MODEL 1
REMARK VINA RESULT:    -9.039      0.000      0.000
REMARK INTER + INTRA:         -13.855
REMARK INTER:                 -12.738
REMARK INTRA:                  -1.117
REMARK UNBOUND:                -1.117
REMARK  Name = 
REMARK  8 active torsions:
REMARK  status: ('A' for Active; 'I' for Inactive)
REMARK    1  A    between atoms: C_1  and  C_2
REMARK    2  A    between atoms: C_2  and  N_3
REMARK    3  A    between atoms: C_2  and  C_25
REMARK    4  A    between atoms: N_3  and  C_4
REMARK    5  A    between atoms: C_4  and  C_5
REMARK    6  A    between atoms: C_9  and  C_10
REMARK    7  A    between atoms: C_10  and  N_11
REMARK    8  A    between atoms: C_12  and  C_14
REMARK                            x       y       z     vdW  Elec       q    Type
REMARK                         _______ _______ _______ _____ _____    ______ ____
ROOT
ATOM      1  C   UNL     1      46.122   6.040  11.463  0.00  0.00    +0.000 A 
ATOM      2  C   UNL     1      47.145   6.996  11.383  0.00  0.00    +0.000 A 
ATOM      3  C   UNL     1      48.099   7.102  12.392  0.00  0.00    +0.000 A 
ATOM      4  C   UNL     1      48.017   6.283  13.517  0.00  0.00    +0.000 A 
ATOM      5  C   UNL     1      46.975   5.358  13.643  0.00  0.00    +0.000 A 
ATOM      6  C   UNL     1      46.071   5.199  12.584  0.00  0.00    +0.000 A 
ENDROOT
BRANCH   1   7
ATOM      7  C   UNL     1      45.071   5.957  10.381  0.00  0.00    +0.000 C 
BRANCH   7   8
ATOM      8  N   UNL     1      45.605   5.296   9.191  0.00  0.00    +0.000 NA
ATOM      9  H   UNL     1      45.667   5.981   8.439  0.00  0.00    +0.000 HD
BRANCH   8  11
ATOM     10  C   UNL     1      44.029   3.481   9.851  0.00  0.00    +0.000 C 
ATOM     11  C   UNL     1      44.796   4.169   8.715  0.00  0.00    +0.000 C 
BRANCH  11  12
ATOM     12  C   UNL     1      45.661   3.125   8.028  0.00  0.00    +0.000 A 
ATOM     13  C   UNL     1      46.527   3.425   6.969  0.00  0.00    +0.000 A 
ATOM     14  C   UNL     1      47.368   2.440   6.457  0.00  0.00    +0.000 A 
ATOM     15  C   UNL     1      47.321   1.178   7.023  0.00  0.00    +0.000 A 
ATOM     16  N   UNL     1      46.492   0.839   8.033  0.00  0.00    +0.000 NA
ATOM     17  C   UNL     1      45.688   1.817   8.509  0.00  0.00    +0.000 A 
ENDBRANCH  11  12
ENDBRANCH   8  11
ENDBRANCH   7   8
ENDBRANCH   1   7
BRANCH   5  18
ATOM     18  C   UNL     1      46.793   4.585  14.918  0.00  0.00    +0.000 C 
BRANCH  18  19
ATOM     19  N   UNL     1      47.988   4.568  15.713  0.00  0.00    +0.000 N 
ATOM     20  C   UNL     1      47.963   4.358  17.065  0.00  0.00    +0.000 C 
ATOM     21  O   UNL     1      46.919   4.206  17.692  0.00  0.00    +0.000 OA
ATOM     22  H   UNL     1      48.829   4.927  15.277  0.00  0.00    +0.000 HD
BRANCH  20  23
ATOM     23  C   UNL     1      49.270   4.241  17.718  0.00  0.00    +0.000 A 
ATOM     24  C   UNL     1      49.687   5.230  18.599  0.00  0.00    +0.000 A 
ATOM     25  S   UNL     1      51.213   4.925  19.294  0.00  0.00    +0.000 S 
ATOM     26  C   UNL     1      51.385   3.480  18.415  0.00  0.00    +0.000 A 
ATOM     27  N   UNL     1      52.507   2.722  18.530  0.00  0.00    +0.000 NA
ATOM     28  C   UNL     1      52.511   1.660  17.796  0.00  0.00    +0.000 A 
ATOM     29  N   UNL     1      51.492   1.282  16.962  0.00  0.00    +0.000 N 
ATOM     30  C   UNL     1      50.316   1.989  16.849  0.00  0.00    +0.000 A 
ATOM     31  O   UNL     1      49.388   1.566  16.172  0.00  0.00    +0.000 OA
ATOM     32  C   UNL     1      50.278   3.213  17.628  0.00  0.00    +0.000 A 
ATOM     33  H   UNL     1      51.544   0.425  16.434  0.00  0.00    +0.000 HD
ENDBRANCH  20  23
ENDBRANCH  18  19
ENDBRANCH   5  18
TORSDOF 7
ENDMDL
MODEL 2
REMARK VINA RESULT:    -8.972      1.133      1.455
REMARK INTER + INTRA:         -13.761
REMARK INTER:                 -12.699
REMARK INTRA:                  -1.062
REMARK UNBOUND:                -1.117
REMARK  Name = 
REMARK  8 active torsions:
REMARK  status: ('A' for Active; 'I' for Inactive)
REMARK    1  A    between atoms: C_1  and  C_2
REMARK    2  A    between atoms: C_2  and  N_3
REMARK    3  A    between atoms: C_2  and  C_25
REMARK    4  A    between atoms: N_3  and  C_4
REMARK    5  A    between atoms: C_4  and  C_5
REMARK    6  A    between atoms: C_9  and  C_10
REMARK    7  A    between atoms: C_10  and  N_11
REMARK    8  A    between atoms: C_12  and  C_14
REMARK                            x       y       z     vdW  Elec       q    Type
REMARK                         _______ _______ _______ _____ _____    ______ ____
ROOT
ATOM      1  C   UNL     1      46.113   6.084  11.538  0.00  0.00    +0.000 A 
ATOM      2  C   UNL     1      47.052   7.123  11.615  0.00  0.00    +0.000 A 
ATOM      3  C   UNL     1      47.976   7.170  12.656  0.00  0.00    +0.000 A 
ATOM      4  C   UNL     1      47.944   6.204  13.660  0.00  0.00    +0.000 A 
ATOM      5  C   UNL     1      46.984   5.186  13.631  0.00  0.00    +0.000 A 
ATOM      6  C   UNL     1      46.115   5.098  12.535  0.00  0.00    +0.000 A 
ENDROOT
BRANCH   1   7
ATOM      7  C   UNL     1      45.092   6.061  10.425  0.00  0.00    +0.000 C 
BRANCH   7   8
ATOM      8  N   UNL     1      45.630   5.388   9.243  0.00  0.00    +0.000 NA
ATOM      9  H   UNL     1      45.686   6.063   8.481  0.00  0.00    +0.000 HD
BRANCH   8  11
ATOM     10  C   UNL     1      44.068   3.571   9.929  0.00  0.00    +0.000 C 
ATOM     11  C   UNL     1      44.830   4.248   8.784  0.00  0.00    +0.000 C 
BRANCH  11  12
ATOM     12  C   UNL     1      45.704   3.200   8.113  0.00  0.00    +0.000 A 
ATOM     13  C   UNL     1      46.644   3.508   7.121  0.00  0.00    +0.000 A 
ATOM     14  C   UNL     1      47.484   2.514   6.626  0.00  0.00    +0.000 A 
ATOM     15  C   UNL     1      47.362   1.235   7.140  0.00  0.00    +0.000 A 
ATOM     16  N   UNL     1      46.461   0.889   8.084  0.00  0.00    +0.000 NA
ATOM     17  C   UNL     1      45.659   1.876   8.546  0.00  0.00    +0.000 A 
ENDBRANCH  11  12
ENDBRANCH   8  11
ENDBRANCH   7   8
ENDBRANCH   1   7
BRANCH   5  18
ATOM     18  C   UNL     1      46.846   4.237  14.786  0.00  0.00    +0.000 C 
BRANCH  18  19
ATOM     19  N   UNL     1      47.516   4.716  15.961  0.00  0.00    +0.000 N 
ATOM     20  C   UNL     1      47.280   4.193  17.204  0.00  0.00    +0.000 C 
ATOM     21  O   UNL     1      46.455   3.305  17.401  0.00  0.00    +0.000 OA
ATOM     22  H   UNL     1      48.012   5.596  15.874  0.00  0.00    +0.000 HD
BRANCH  20  23
ATOM     23  C   UNL     1      48.132   4.697  18.284  0.00  0.00    +0.000 A 
ATOM     24  C   UNL     1      47.597   5.559  19.233  0.00  0.00    +0.000 A 
ATOM     25  S   UNL     1      48.712   6.025  20.435  0.00  0.00    +0.000 S 
ATOM     26  C   UNL     1      49.956   5.121  19.709  0.00  0.00    +0.000 A 
ATOM     27  N   UNL     1      51.208   5.108  20.235  0.00  0.00    +0.000 NA
ATOM     28  C   UNL     1      52.058   4.394  19.576  0.00  0.00    +0.000 A 
ATOM     29  N   UNL     1      51.767   3.684  18.441  0.00  0.00    +0.000 N 
ATOM     30  C   UNL     1      50.503   3.624  17.898  0.00  0.00    +0.000 A 
ATOM     31  O   UNL     1      50.259   2.897  16.944  0.00  0.00    +0.000 OA
ATOM     32  C   UNL     1      49.519   4.443  18.584  0.00  0.00    +0.000 A 
ATOM     33  H   UNL     1      52.469   3.121  17.987  0.00  0.00    +0.000 HD
ENDBRANCH  20  23
ENDBRANCH  18  19
ENDBRANCH   5  18
TORSDOF 7
ENDMDL
MODEL 3
REMARK VINA RESULT:    -8.573      2.117      2.886
REMARK INTER + INTRA:         -13.198
REMARK INTER:                 -11.888
REMARK INTRA:                  -1.310
REMARK UNBOUND:                -1.117
REMARK  Name = 
REMARK  8 active torsions:
REMARK  status: ('A' for Active; 'I' for Inactive)
REMARK    1  A    between atoms: C_1  and  C_2
REMARK    2  A    between atoms: C_2  and  N_3
REMARK    3  A    between atoms: C_2  and  C_25
REMARK    4  A    between atoms: N_3  and  C_4
REMARK    5  A    between atoms: C_4  and  C_5
REMARK    6  A    between atoms: C_9  and  C_10
REMARK    7  A    between atoms: C_10  and  N_11
REMARK    8  A    between atoms: C_12  and  C_14
REMARK                            x       y       z     vdW  Elec       q    Type
REMARK                         _______ _______ _______ _____ _____    ______ ____
ROOT
ATOM      1  C   UNL     1      45.790   6.484  11.525  0.00  0.00    +0.000 A 
ATOM      2  C   UNL     1      44.947   7.597  11.651  0.00  0.00    +0.000 A 
ATOM      3  C   UNL     1      45.451   8.825  12.077  0.00  0.00    +0.000 A 
ATOM      4  C   UNL     1      46.794   8.942  12.428  0.00  0.00    +0.000 A 
ATOM      5  C   UNL     1      47.643   7.832  12.360  0.00  0.00    +0.000 A 
ATOM      6  C   UNL     1      47.148   6.625  11.847  0.00  0.00    +0.000 A 
ENDROOT
BRANCH   1   7
ATOM      7  C   UNL     1      45.228   5.149  11.096  0.00  0.00    +0.000 C 
BRANCH   7   8
ATOM      8  N   UNL     1      45.131   5.073   9.639  0.00  0.00    +0.000 NA
ATOM      9  H   UNL     1      44.579   5.864   9.308  0.00  0.00    +0.000 HD
BRANCH   8  11
ATOM     10  C   UNL     1      43.988   2.951  10.275  0.00  0.00    +0.000 C 
ATOM     11  C   UNL     1      44.507   3.842   9.140  0.00  0.00    +0.000 C 
BRANCH  11  12
ATOM     12  C   UNL     1      45.486   3.029   8.309  0.00  0.00    +0.000 A 
ATOM     13  C   UNL     1      46.288   3.589   7.307  0.00  0.00    +0.000 A 
ATOM     14  C   UNL     1      47.238   2.805   6.657  0.00  0.00    +0.000 A 
ATOM     15  C   UNL     1      47.363   1.478   7.033  0.00  0.00    +0.000 A 
ATOM     16  N   UNL     1      46.601   0.893   7.982  0.00  0.00    +0.000 NA
ATOM     17  C   UNL     1      45.687   1.679   8.595  0.00  0.00    +0.000 A 
ENDBRANCH  11  12
ENDBRANCH   8  11
ENDBRANCH   7   8
ENDBRANCH   1   7
BRANCH   5  18
ATOM     18  C   UNL     1      49.048   7.914  12.882  0.00  0.00    +0.000 C 
BRANCH  18  19
ATOM     19  N   UNL     1      49.232   7.122  14.064  0.00  0.00    +0.000 N 
ATOM     20  C   UNL     1      48.930   7.591  15.314  0.00  0.00    +0.000 C 
ATOM     21  O   UNL     1      48.516   8.731  15.510  0.00  0.00    +0.000 OA
ATOM     22  H   UNL     1      49.791   6.282  13.966  0.00  0.00    +0.000 HD
BRANCH  20  23
ATOM     23  C   UNL     1      49.050   6.624  16.407  0.00  0.00    +0.000 A 
ATOM     24  C   UNL     1      49.886   6.902  17.480  0.00  0.00    +0.000 A 
ATOM     25  S   UNL     1      49.886   5.689  18.677  0.00  0.00    +0.000 S 
ATOM     26  C   UNL     1      48.795   4.735  17.788  0.00  0.00    +0.000 A 
ATOM     27  N   UNL     1      48.390   3.523  18.250  0.00  0.00    +0.000 NA
ATOM     28  C   UNL     1      47.573   2.899  17.468  0.00  0.00    +0.000 A 
ATOM     29  N   UNL     1      47.119   3.381  16.269  0.00  0.00    +0.000 N 
ATOM     30  C   UNL     1      47.460   4.622  15.781  0.00  0.00    +0.000 A 
ATOM     31  O   UNL     1      46.954   5.059  14.757  0.00  0.00    +0.000 OA
ATOM     32  C   UNL     1      48.408   5.348  16.609  0.00  0.00    +0.000 A 
ATOM     33  H   UNL     1      46.459   2.856  15.716  0.00  0.00    +0.000 HD
ENDBRANCH  20  23
ENDBRANCH  18  19
ENDBRANCH   5  18
TORSDOF 7
ENDMDL
MODEL 4
REMARK VINA RESULT:    -7.787      2.706      4.041
REMARK INTER + INTRA:         -12.091
REMARK INTER:                 -10.895
REMARK INTRA:                  -1.196
REMARK UNBOUND:                -1.117
REMARK  Name = 
REMARK  8 active torsions:
REMARK  status: ('A' for Active; 'I' for Inactive)
REMARK    1  A    between atoms: C_1  and  C_2
REMARK    2  A    between atoms: C_2  and  N_3
REMARK    3  A    between atoms: C_2  and  C_25
REMARK    4  A    between atoms: N_3  and  C_4
REMARK    5  A    between atoms: C_4  and  C_5
REMARK    6  A    between atoms: C_9  and  C_10
REMARK    7  A    between atoms: C_10  and  N_11
REMARK    8  A    between atoms: C_12  and  C_14
REMARK                            x       y       z     vdW  Elec       q    Type
REMARK                         _______ _______ _______ _____ _____    ______ ____
ROOT
ATOM      1  C   UNL     1      45.372   5.802  12.377  0.00  0.00    +0.000 A 
ATOM      2  C   UNL     1      46.189   6.901  12.080  0.00  0.00    +0.000 A 
ATOM      3  C   UNL     1      47.410   7.075  12.729  0.00  0.00    +0.000 A 
ATOM      4  C   UNL     1      47.807   6.177  13.718  0.00  0.00    +0.000 A 
ATOM      5  C   UNL     1      46.983   5.101  14.067  0.00  0.00    +0.000 A 
ATOM      6  C   UNL     1      45.800   4.885  13.349  0.00  0.00    +0.000 A 
ENDROOT
BRANCH   1   7
ATOM      7  C   UNL     1      44.034   5.641  11.693  0.00  0.00    +0.000 C 
BRANCH   7   8
ATOM      8  N   UNL     1      44.211   5.409  10.260  0.00  0.00    +0.000 NA
ATOM      9  H   UNL     1      43.598   6.043   9.749  0.00  0.00    +0.000 HD
BRANCH   8  11
ATOM     10  C   UNL     1      43.687   3.092  11.015  0.00  0.00    +0.000 C 
ATOM     11  C   UNL     1      43.908   4.039   9.830  0.00  0.00    +0.000 C 
BRANCH  11  12
ATOM     12  C   UNL     1      45.030   3.473   8.974  0.00  0.00    +0.000 A 
ATOM     13  C   UNL     1      45.357   2.111   8.943  0.00  0.00    +0.000 A 
ATOM     14  C   UNL     1      46.326   1.649   8.057  0.00  0.00    +0.000 A 
ATOM     15  C   UNL     1      46.941   2.563   7.220  0.00  0.00    +0.000 A 
ATOM     16  N   UNL     1      46.670   3.886   7.226  0.00  0.00    +0.000 NA
ATOM     17  C   UNL     1      45.724   4.306   8.098  0.00  0.00    +0.000 A 
ENDBRANCH  11  12
ENDBRANCH   8  11
ENDBRANCH   7   8
ENDBRANCH   1   7
BRANCH   5  18
ATOM     18  C   UNL     1      47.333   4.223  15.234  0.00  0.00    +0.000 C 
BRANCH  18  19
ATOM     19  N   UNL     1      47.261   4.929  16.481  0.00  0.00    +0.000 N 
ATOM     20  C   UNL     1      48.379   5.293  17.182  0.00  0.00    +0.000 C 
ATOM     21  O   UNL     1      49.514   5.010  16.809  0.00  0.00    +0.000 OA
ATOM     22  H   UNL     1      46.354   4.962  16.933  0.00  0.00    +0.000 HD
BRANCH  20  23
ATOM     23  C   UNL     1      48.149   6.119  18.370  0.00  0.00    +0.000 A 
ATOM     24  C   UNL     1      47.955   5.508  19.602  0.00  0.00    +0.000 A 
ATOM     25  S   UNL     1      47.733   6.611  20.882  0.00  0.00    +0.000 S 
ATOM     26  C   UNL     1      47.853   7.941  19.830  0.00  0.00    +0.000 A 
ATOM     27  N   UNL     1      47.724   9.212  20.292  0.00  0.00    +0.000 NA
ATOM     28  C   UNL     1      47.821  10.124  19.383  0.00  0.00    +0.000 A 
ATOM     29  N   UNL     1      48.045   9.881  18.054  0.00  0.00    +0.000 N 
ATOM     30  C   UNL     1      48.233   8.616  17.545  0.00  0.00    +0.000 A 
ATOM     31  O   UNL     1      48.532   8.446  16.370  0.00  0.00    +0.000 OA
ATOM     32  C   UNL     1      48.095   7.552  18.523  0.00  0.00    +0.000 A 
ATOM     33  H   UNL     1      48.139  10.640  17.397  0.00  0.00    +0.000 HD
ENDBRANCH  20  23
ENDBRANCH  18  19
ENDBRANCH   5  18
TORSDOF 7
ENDMDL
MODEL 5
REMARK VINA RESULT:    -7.765      3.378      8.456
REMARK INTER + INTRA:         -12.059
REMARK INTER:                 -10.676
REMARK INTRA:                  -1.383
REMARK UNBOUND:                -1.117
REMARK  Name = 
REMARK  8 active torsions:
REMARK  status: ('A' for Active; 'I' for Inactive)
REMARK    1  A    between atoms: C_1  and  C_2
REMARK    2  A    between atoms: C_2  and  N_3
REMARK    3  A    between atoms: C_2  and  C_25
REMARK    4  A    between atoms: N_3  and  C_4
REMARK    5  A    between atoms: C_4  and  C_5
REMARK    6  A    between atoms: C_9  and  C_10
REMARK    7  A    between atoms: C_10  and  N_11
REMARK    8  A    between atoms: C_12  and  C_14
REMARK                            x       y       z     vdW  Elec       q    Type
REMARK                         _______ _______ _______ _____ _____    ______ ____
ROOT
ATOM      1  C   UNL     1      49.298   7.435  15.324  0.00  0.00    +0.000 A 
ATOM      2  C   UNL     1      50.641   7.799  15.153  0.00  0.00    +0.000 A 
ATOM      3  C   UNL     1      51.098   8.271  13.924  0.00  0.00    +0.000 A 
ATOM      4  C   UNL     1      50.227   8.343  12.839  0.00  0.00    +0.000 A 
ATOM      5  C   UNL     1      48.895   7.937  12.972  0.00  0.00    +0.000 A 
ATOM      6  C   UNL     1      48.423   7.546  14.233  0.00  0.00    +0.000 A 
ENDROOT
BRANCH   1   7
ATOM      7  C   UNL     1      48.819   6.890  16.650  0.00  0.00    +0.000 C 
BRANCH   7   8
ATOM      8  N   UNL     1      47.841   5.822  16.448  0.00  0.00    +0.000 NA
ATOM      9  H   UNL     1      46.910   6.236  16.409  0.00  0.00    +0.000 HD
BRANCH   8  11
ATOM     10  C   UNL     1      48.048   5.398  18.895  0.00  0.00    +0.000 C 
ATOM     11  C   UNL     1      47.841   4.799  17.499  0.00  0.00    +0.000 C 
BRANCH  11  12
ATOM     12  C   UNL     1      48.931   3.768  17.260  0.00  0.00    +0.000 A 
ATOM     13  C   UNL     1      50.188   3.825  17.875  0.00  0.00    +0.000 A 
ATOM     14  C   UNL     1      51.100   2.790  17.692  0.00  0.00    +0.000 A 
ATOM     15  C   UNL     1      50.727   1.718  16.899  0.00  0.00    +0.000 A 
ATOM     16  N   UNL     1      49.533   1.627  16.275  0.00  0.00    +0.000 NA
ATOM     17  C   UNL     1      48.668   2.648  16.471  0.00  0.00    +0.000 A 
ENDBRANCH  11  12
ENDBRANCH   8  11
ENDBRANCH   7   8
ENDBRANCH   1   7
BRANCH   5  18
ATOM     18  C   UNL     1      47.996   7.865  11.771  0.00  0.00    +0.000 C 
BRANCH  18  19
ATOM     19  N   UNL     1      47.161   6.698  11.791  0.00  0.00    +0.000 N 
ATOM     20  C   UNL     1      45.795   6.776  11.823  0.00  0.00    +0.000 C 
ATOM     21  O   UNL     1      45.195   7.846  11.872  0.00  0.00    +0.000 OA
ATOM     22  H   UNL     1      47.618   5.817  11.995  0.00  0.00    +0.000 HD
BRANCH  20  23
ATOM     23  C   UNL     1      45.079   5.503  11.710  0.00  0.00    +0.000 A 
ATOM     24  C   UNL     1      44.344   5.032  12.790  0.00  0.00    +0.000 A 
ATOM     25  S   UNL     1      43.548   3.557  12.482  0.00  0.00    +0.000 S 
ATOM     26  C   UNL     1      44.186   3.479  10.908  0.00  0.00    +0.000 A 
ATOM     27  N   UNL     1      43.910   2.427  10.094  0.00  0.00    +0.000 NA
ATOM     28  C   UNL     1      44.471   2.488   8.933  0.00  0.00    +0.000 A 
ATOM     29  N   UNL     1      45.278   3.510   8.508  0.00  0.00    +0.000 N 
ATOM     30  C   UNL     1      45.547   4.621   9.276  0.00  0.00    +0.000 A 
ATOM     31  O   UNL     1      46.188   5.560   8.824  0.00  0.00    +0.000 OA
ATOM     32  C   UNL     1      44.968   4.581  10.607  0.00  0.00    +0.000 A 
ATOM     33  H   UNL     1      45.665   3.513   7.577  0.00  0.00    +0.000 HD
ENDBRANCH  20  23
ENDBRANCH  18  19
ENDBRANCH   5  18
TORSDOF 7
ENDMDL
MODEL 6
REMARK VINA RESULT:    -7.701      2.760      3.792
REMARK INTER + INTRA:         -11.969
REMARK INTER:                 -10.807
REMARK INTRA:                  -1.162
REMARK UNBOUND:                -1.117
REMARK  Name = 
REMARK  8 active torsions:
REMARK  status: ('A' for Active; 'I' for Inactive)
REMARK    1  A    between atoms: C_1  and  C_2
REMARK    2  A    between atoms: C_2  and  N_3
REMARK    3  A    between atoms: C_2  and  C_25
REMARK    4  A    between atoms: N_3  and  C_4
REMARK    5  A    between atoms: C_4  and  C_5
REMARK    6  A    between atoms: C_9  and  C_10
REMARK    7  A    between atoms: C_10  and  N_11
REMARK    8  A    between atoms: C_12  and  C_14
REMARK                            x       y       z     vdW  Elec       q    Type
REMARK                         _______ _______ _______ _____ _____    ______ ____
ROOT
ATOM      1  C   UNL     1      45.742   6.750  11.945  0.00  0.00    +0.000 A 
ATOM      2  C   UNL     1      44.956   7.839  11.543  0.00  0.00    +0.000 A 
ATOM      3  C   UNL     1      45.277   9.133  11.946  0.00  0.00    +0.000 A 
ATOM      4  C   UNL     1      46.361   9.350  12.795  0.00  0.00    +0.000 A 
ATOM      5  C   UNL     1      47.128   8.272  13.251  0.00  0.00    +0.000 A 
ATOM      6  C   UNL     1      46.852   6.985  12.770  0.00  0.00    +0.000 A 
ENDROOT
BRANCH   1   7
ATOM      7  C   UNL     1      45.366   5.346  11.531  0.00  0.00    +0.000 C 
BRANCH   7   8
ATOM      8  N   UNL     1      44.590   5.362  10.292  0.00  0.00    +0.000 NA
ATOM      9  H   UNL     1      43.812   6.011  10.403  0.00  0.00    +0.000 HD
BRANCH   8  11
ATOM     10  C   UNL     1      43.793   3.150  11.118  0.00  0.00    +0.000 C 
ATOM     11  C   UNL     1      44.042   4.057   9.908  0.00  0.00    +0.000 C 
BRANCH  11  12
ATOM     12  C   UNL     1      44.976   3.329   8.955  0.00  0.00    +0.000 A 
ATOM     13  C   UNL     1      45.739   3.985   7.980  0.00  0.00    +0.000 A 
ATOM     14  C   UNL     1      46.652   3.267   7.212  0.00  0.00    +0.000 A 
ATOM     15  C   UNL     1      46.782   1.909   7.445  0.00  0.00    +0.000 A 
ATOM     16  N   UNL     1      46.058   1.233   8.362  0.00  0.00    +0.000 NA
ATOM     17  C   UNL     1      45.179   1.956   9.092  0.00  0.00    +0.000 A 
ENDBRANCH  11  12
ENDBRANCH   8  11
ENDBRANCH   7   8
ENDBRANCH   1   7
BRANCH   5  18
ATOM     18  C   UNL     1      48.197   8.482  14.284  0.00  0.00    +0.000 C 
BRANCH  18  19
ATOM     19  N   UNL     1      48.026   7.622  15.420  0.00  0.00    +0.000 N 
ATOM     20  C   UNL     1      48.999   6.752  15.833  0.00  0.00    +0.000 C 
ATOM     21  O   UNL     1      50.066   6.624  15.240  0.00  0.00    +0.000 OA
ATOM     22  H   UNL     1      47.082   7.525  15.778  0.00  0.00    +0.000 HD
BRANCH  20  23
ATOM     23  C   UNL     1      48.727   6.034  17.080  0.00  0.00    +0.000 A 
ATOM     24  C   UNL     1      48.877   4.654  17.124  0.00  0.00    +0.000 A 
ATOM     25  S   UNL     1      48.554   3.981  18.656  0.00  0.00    +0.000 S 
ATOM     26  C   UNL     1      48.168   5.504  19.304  0.00  0.00    +0.000 A 
ATOM     27  N   UNL     1      47.773   5.633  20.598  0.00  0.00    +0.000 NA
ATOM     28  C   UNL     1      47.496   6.843  20.954  0.00  0.00    +0.000 A 
ATOM     29  N   UNL     1      47.587   7.938  20.137  0.00  0.00    +0.000 N 
ATOM     30  C   UNL     1      48.030   7.867  18.835  0.00  0.00    +0.000 A 
ATOM     31  O   UNL     1      48.195   8.879  18.168  0.00  0.00    +0.000 OA
ATOM     32  C   UNL     1      48.318   6.519  18.375  0.00  0.00    +0.000 A 
ATOM     33  H   UNL     1      47.383   8.862  20.483  0.00  0.00    +0.000 HD
ENDBRANCH  20  23
ENDBRANCH  18  19
ENDBRANCH   5  18
TORSDOF 7
ENDMDL
MODEL 7
REMARK VINA RESULT:    -7.524      2.016      2.658
REMARK INTER + INTRA:         -11.719
REMARK INTER:                 -10.886
REMARK INTRA:                  -0.834
REMARK UNBOUND:                -1.117
REMARK  Name = 
REMARK  8 active torsions:
REMARK  status: ('A' for Active; 'I' for Inactive)
REMARK    1  A    between atoms: C_1  and  C_2
REMARK    2  A    between atoms: C_2  and  N_3
REMARK    3  A    between atoms: C_2  and  C_25
REMARK    4  A    between atoms: N_3  and  C_4
REMARK    5  A    between atoms: C_4  and  C_5
REMARK    6  A    between atoms: C_9  and  C_10
REMARK    7  A    between atoms: C_10  and  N_11
REMARK    8  A    between atoms: C_12  and  C_14
REMARK                            x       y       z     vdW  Elec       q    Type
REMARK                         _______ _______ _______ _____ _____    ______ ____
ROOT
ATOM      1  C   UNL     1      45.553   6.500  11.616  0.00  0.00    +0.000 A 
ATOM      2  C   UNL     1      44.977   7.740  11.930  0.00  0.00    +0.000 A 
ATOM      3  C   UNL     1      45.729   8.735  12.550  0.00  0.00    +0.000 A 
ATOM      4  C   UNL     1      47.054   8.488  12.905  0.00  0.00    +0.000 A 
ATOM      5  C   UNL     1      47.634   7.240  12.648  0.00  0.00    +0.000 A 
ATOM      6  C   UNL     1      46.897   6.277  11.946  0.00  0.00    +0.000 A 
ENDROOT
BRANCH   1   7
ATOM      7  C   UNL     1      44.719   5.415  10.976  0.00  0.00    +0.000 C 
BRANCH   7   8
ATOM      8  N   UNL     1      45.164   5.160   9.606  0.00  0.00    +0.000 NA
ATOM      9  H   UNL     1      44.868   5.938   9.018  0.00  0.00    +0.000 HD
BRANCH   8  11
ATOM     10  C   UNL     1      44.016   2.999  10.076  0.00  0.00    +0.000 C 
ATOM     11  C   UNL     1      44.638   3.922   9.022  0.00  0.00    +0.000 C 
BRANCH  11  12
ATOM     12  C   UNL     1      45.730   3.149   8.300  0.00  0.00    +0.000 A 
ATOM     13  C   UNL     1      45.891   1.763   8.417  0.00  0.00    +0.000 A 
ATOM     14  C   UNL     1      46.846   1.106   7.645  0.00  0.00    +0.000 A 
ATOM     15  C   UNL     1      47.613   1.856   6.771  0.00  0.00    +0.000 A 
ATOM     16  N   UNL     1      47.503   3.196   6.637  0.00  0.00    +0.000 NA
ATOM     17  C   UNL     1      46.567   3.805   7.400  0.00  0.00    +0.000 A 
ENDBRANCH  11  12
ENDBRANCH   8  11
ENDBRANCH   7   8
ENDBRANCH   1   7
BRANCH   5  18
ATOM     18  C   UNL     1      49.006   6.917  13.165  0.00  0.00    +0.000 C 
BRANCH  18  19
ATOM     19  N   UNL     1      49.130   7.188  14.569  0.00  0.00    +0.000 N 
ATOM     20  C   UNL     1      48.654   6.330  15.524  0.00  0.00    +0.000 C 
ATOM     21  O   UNL     1      48.060   5.293  15.245  0.00  0.00    +0.000 OA
ATOM     22  H   UNL     1      49.390   8.132  14.829  0.00  0.00    +0.000 HD
BRANCH  20  23
ATOM     23  C   UNL     1      48.969   6.680  16.912  0.00  0.00    +0.000 A 
ATOM     24  C   UNL     1      48.579   7.915  17.412  0.00  0.00    +0.000 A 
ATOM     25  S   UNL     1      48.994   8.149  19.049  0.00  0.00    +0.000 S 
ATOM     26  C   UNL     1      49.739   6.623  19.135  0.00  0.00    +0.000 A 
ATOM     27  N   UNL     1      50.334   6.200  20.281  0.00  0.00    +0.000 NA
ATOM     28  C   UNL     1      50.873   5.029  20.202  0.00  0.00    +0.000 A 
ATOM     29  N   UNL     1      50.864   4.239  19.083  0.00  0.00    +0.000 N 
ATOM     30  C   UNL     1      50.232   4.601  17.915  0.00  0.00    +0.000 A 
ATOM     31  O   UNL     1      50.159   3.826  16.971  0.00  0.00    +0.000 OA
ATOM     32  C   UNL     1      49.642   5.928  17.942  0.00  0.00    +0.000 A 
ATOM     33  H   UNL     1      51.280   3.321  19.093  0.00  0.00    +0.000 HD
ENDBRANCH  20  23
ENDBRANCH  18  19
ENDBRANCH   5  18
TORSDOF 7
ENDMDL
MODEL 8
REMARK VINA RESULT:    -7.428      3.941      9.891
REMARK INTER + INTRA:         -11.585
REMARK INTER:                  -9.996
REMARK INTRA:                  -1.589
REMARK UNBOUND:                -1.117
REMARK  Name = 
REMARK  8 active torsions:
REMARK  status: ('A' for Active; 'I' for Inactive)
REMARK    1  A    between atoms: C_1  and  C_2
REMARK    2  A    between atoms: C_2  and  N_3
REMARK    3  A    between atoms: C_2  and  C_25
REMARK    4  A    between atoms: N_3  and  C_4
REMARK    5  A    between atoms: C_4  and  C_5
REMARK    6  A    between atoms: C_9  and  C_10
REMARK    7  A    between atoms: C_10  and  N_11
REMARK    8  A    between atoms: C_12  and  C_14
REMARK                            x       y       z     vdW  Elec       q    Type
REMARK                         _______ _______ _______ _____ _____    ______ ____
ROOT
ATOM      1  C   UNL     1      50.874   4.577  17.603  0.00  0.00    +0.000 A 
ATOM      2  C   UNL     1      51.485   3.316  17.657  0.00  0.00    +0.000 A 
ATOM      3  C   UNL     1      50.763   2.163  17.358  0.00  0.00    +0.000 A 
ATOM      4  C   UNL     1      49.408   2.252  17.045  0.00  0.00    +0.000 A 
ATOM      5  C   UNL     1      48.764   3.495  17.035  0.00  0.00    +0.000 A 
ATOM      6  C   UNL     1      49.518   4.656  17.252  0.00  0.00    +0.000 A 
ENDROOT
BRANCH   1   7
ATOM      7  C   UNL     1      51.657   5.818  17.963  0.00  0.00    +0.000 C 
BRANCH   7   8
ATOM      8  N   UNL     1      50.755   6.917  18.309  0.00  0.00    +0.000 NA
ATOM      9  H   UNL     1      51.028   7.742  17.777  0.00  0.00    +0.000 HD
BRANCH   8  11
ATOM     10  C   UNL     1      52.004   6.758  20.459  0.00  0.00    +0.000 C 
ATOM     11  C   UNL     1      50.756   7.271  19.732  0.00  0.00    +0.000 C 
BRANCH  11  12
ATOM     12  C   UNL     1      49.532   6.709  20.438  0.00  0.00    +0.000 A 
ATOM     13  C   UNL     1      49.445   5.384  20.881  0.00  0.00    +0.000 A 
ATOM     14  C   UNL     1      48.337   4.966  21.613  0.00  0.00    +0.000 A 
ATOM     15  C   UNL     1      47.344   5.891  21.887  0.00  0.00    +0.000 A 
ATOM     16  N   UNL     1      47.378   7.174  21.467  0.00  0.00    +0.000 NA
ATOM     17  C   UNL     1      48.467   7.550  20.758  0.00  0.00    +0.000 A 
ENDBRANCH  11  12
ENDBRANCH   8  11
ENDBRANCH   7   8
ENDBRANCH   1   7
BRANCH   5  18
ATOM     18  C   UNL     1      47.276   3.580  16.852  0.00  0.00    +0.000 C 
BRANCH  18  19
ATOM     19  N   UNL     1      46.911   4.542  15.852  0.00  0.00    +0.000 N 
ATOM     20  C   UNL     1      46.885   4.236  14.518  0.00  0.00    +0.000 C 
ATOM     21  O   UNL     1      47.206   3.133  14.086  0.00  0.00    +0.000 OA
ATOM     22  H   UNL     1      46.878   5.512  16.144  0.00  0.00    +0.000 HD
BRANCH  20  23
ATOM     23  C   UNL     1      46.369   5.283  13.631  0.00  0.00    +0.000 A 
ATOM     24  C   UNL     1      47.132   6.418  13.394  0.00  0.00    +0.000 A 
ATOM     25  S   UNL     1      46.401   7.518  12.317  0.00  0.00    +0.000 S 
ATOM     26  C   UNL     1      45.025   6.533  12.159  0.00  0.00    +0.000 A 
ATOM     27  N   UNL     1      43.979   6.915  11.380  0.00  0.00    +0.000 NA
ATOM     28  C   UNL     1      42.994   6.080  11.362  0.00  0.00    +0.000 A 
ATOM     29  N   UNL     1      42.963   4.894  12.046  0.00  0.00    +0.000 N 
ATOM     30  C   UNL     1      44.016   4.440  12.808  0.00  0.00    +0.000 A 
ATOM     31  O   UNL     1      43.992   3.329  13.320  0.00  0.00    +0.000 OA
ATOM     32  C   UNL     1      45.135   5.362  12.889  0.00  0.00    +0.000 A 
ATOM     33  H   UNL     1      42.173   4.271  11.970  0.00  0.00    +0.000 HD
ENDBRANCH  20  23
ENDBRANCH  18  19
ENDBRANCH   5  18
TORSDOF 7
ENDMDL
MODEL 9
REMARK VINA RESULT:    -7.135      3.629      8.998
REMARK INTER + INTRA:         -11.171
REMARK INTER:                  -9.402
REMARK INTRA:                  -1.770
REMARK UNBOUND:                -1.117
REMARK  Name = 
REMARK  8 active torsions:
REMARK  status: ('A' for Active; 'I' for Inactive)
REMARK    1  A    between atoms: C_1  and  C_2
REMARK    2  A    between atoms: C_2  and  N_3
REMARK    3  A    between atoms: C_2  and  C_25
REMARK    4  A    between atoms: N_3  and  C_4
REMARK    5  A    between atoms: C_4  and  C_5
REMARK    6  A    between atoms: C_9  and  C_10
REMARK    7  A    between atoms: C_10  and  N_11
REMARK    8  A    between atoms: C_12  and  C_14
REMARK                            x       y       z     vdW  Elec       q    Type
REMARK                         _______ _______ _______ _____ _____    ______ ____
ROOT
ATOM      1  C   UNL     1      48.784   5.069  17.886  0.00  0.00    +0.000 A 
ATOM      2  C   UNL     1      49.115   5.777  19.050  0.00  0.00    +0.000 A 
ATOM      3  C   UNL     1      49.285   7.159  19.017  0.00  0.00    +0.000 A 
ATOM      4  C   UNL     1      49.171   7.846  17.809  0.00  0.00    +0.000 A 
ATOM      5  C   UNL     1      48.892   7.154  16.626  0.00  0.00    +0.000 A 
ATOM      6  C   UNL     1      48.637   5.777  16.684  0.00  0.00    +0.000 A 
ENDROOT
BRANCH   1   7
ATOM      7  C   UNL     1      48.636   3.566  17.925  0.00  0.00    +0.000 C 
BRANCH   7   8
ATOM      8  N   UNL     1      49.846   2.941  18.459  0.00  0.00    +0.000 NA
ATOM      9  H   UNL     1      50.158   3.477  19.268  0.00  0.00    +0.000 HD
BRANCH   8  11
ATOM     10  C   UNL     1      51.493   1.441  17.342  0.00  0.00    +0.000 C 
ATOM     11  C   UNL     1      50.958   2.868  17.505  0.00  0.00    +0.000 C 
BRANCH  11  12
ATOM     12  C   UNL     1      52.110   3.760  17.936  0.00  0.00    +0.000 A 
ATOM     13  C   UNL     1      52.334   5.034  17.401  0.00  0.00    +0.000 A 
ATOM     14  C   UNL     1      53.347   5.838  17.918  0.00  0.00    +0.000 A 
ATOM     15  C   UNL     1      54.107   5.345  18.964  0.00  0.00    +0.000 A 
ATOM     16  N   UNL     1      53.938   4.117  19.501  0.00  0.00    +0.000 NA
ATOM     17  C   UNL     1      52.947   3.360  18.978  0.00  0.00    +0.000 A 
ENDBRANCH  11  12
ENDBRANCH   8  11
ENDBRANCH   7   8
ENDBRANCH   1   7
BRANCH   5  18
ATOM     18  C   UNL     1      48.921   7.864  15.303  0.00  0.00    +0.000 C 
BRANCH  18  19
ATOM     19  N   UNL     1      47.776   7.551  14.497  0.00  0.00    +0.000 N 
ATOM     20  C   UNL     1      47.850   6.722  13.411  0.00  0.00    +0.000 C 
ATOM     21  O   UNL     1      48.905   6.221  13.033  0.00  0.00    +0.000 OA
ATOM     22  H   UNL     1      46.955   8.130  14.630  0.00  0.00    +0.000 HD
BRANCH  20  23
ATOM     23  C   UNL     1      46.576   6.397  12.766  0.00  0.00    +0.000 A 
ATOM     24  C   UNL     1      45.840   7.403  12.155  0.00  0.00    +0.000 A 
ATOM     25  S   UNL     1      44.402   6.850  11.426  0.00  0.00    +0.000 S 
ATOM     26  C   UNL     1      44.695   5.254  11.932  0.00  0.00    +0.000 A 
ATOM     27  N   UNL     1      43.812   4.260  11.652  0.00  0.00    +0.000 NA
ATOM     28  C   UNL     1      44.152   3.100  12.108  0.00  0.00    +0.000 A 
ATOM     29  N   UNL     1      45.297   2.843  12.813  0.00  0.00    +0.000 N 
ATOM     30  C   UNL     1      46.246   3.805  13.079  0.00  0.00    +0.000 A 
ATOM     31  O   UNL     1      47.304   3.516  13.621  0.00  0.00    +0.000 OA
ATOM     32  C   UNL     1      45.891   5.136  12.617  0.00  0.00    +0.000 A 
ATOM     33  H   UNL     1      45.520   1.909  13.119  0.00  0.00    +0.000 HD
ENDBRANCH  20  23
ENDBRANCH  18  19
ENDBRANCH   5  18
TORSDOF 7
ENDMDL
