MODEL 1
REMARK VINA RESULT:    -8.272      0.000      0.000
REMARK INTER + INTRA:         -13.306
REMARK INTER:                 -12.625
REMARK INTRA:                  -0.681
REMARK UNBOUND:                -0.681
REMARK  Name = 
REMARK  10 active torsions:
REMARK  status: ('A' for Active; 'I' for Inactive)
REMARK    1  A    between atoms: C_1  and  C_2
REMARK    2  A    between atoms: C_2  and  N_3
REMARK    3  A    between atoms: C_2  and  C_19
REMARK    4  A    between atoms: N_3  and  C_4
REMARK    5  A    between atoms: C_4  and  C_5
REMARK    6  A    between atoms: C_8  and  C_9
REMARK    7  A    between atoms: C_9  and  C_10
REMARK    8  A    between atoms: C_10  and  C_11
REMARK    9  A    between atoms: C_11  and  N_12
REMARK   10  A    between atoms: C_19  and  C_21
REMARK                            x       y       z     vdW  Elec       q    Type
REMARK                         _______ _______ _______ _____ _____    ______ ____
ROOT
ATOM      1  N   UNL     1      47.753   5.242  15.475  0.00  0.00    +0.000 NA
ATOM      2  H   UNL     1      46.777   5.213  15.771  0.00  0.00    +0.000 HD
ENDROOT
BRANCH   1   4
ATOM      3  C   UNL     1      49.911   6.342  16.138  0.00  0.00    +0.000 C 
ATOM      4  C   UNL     1      48.585   5.733  16.605  0.00  0.00    +0.000 C 
BRANCH   4   5
ATOM      5  C   UNL     1      48.793   4.641  17.688  0.00  0.00    +0.000 C 
ATOM      6  O   UNL     1      47.825   4.056  18.182  0.00  0.00    +0.000 OA
BRANCH   5   7
ATOM      7  C   UNL     1      50.162   4.287  18.091  0.00  0.00    +0.000 A 
ATOM      8  C   UNL     1      50.929   5.088  18.919  0.00  0.00    +0.000 A 
ATOM      9  S   UNL     1      52.468   4.427  19.257  0.00  0.00    +0.000 S 
ATOM     10  C   UNL     1      52.103   3.004  18.399  0.00  0.00    +0.000 A 
ATOM     11  N   UNL     1      52.942   1.933  18.434  0.00  0.00    +0.000 NA
ATOM     12  C   UNL     1      52.531   0.917  17.752  0.00  0.00    +0.000 A 
ATOM     13  N   UNL     1      51.389   0.894  16.995  0.00  0.00    +0.000 N 
ATOM     14  C   UNL     1      50.505   1.949  16.927  0.00  0.00    +0.000 A 
ATOM     15  O   UNL     1      49.484   1.861  16.255  0.00  0.00    +0.000 OA
ATOM     16  C   UNL     1      50.888   3.090  17.742  0.00  0.00    +0.000 A 
ATOM     17  H   UNL     1      51.136   0.077  16.458  0.00  0.00    +0.000 HD
ENDBRANCH   5   7
ENDBRANCH   4   5
ENDBRANCH   1   4
BRANCH   1  18
ATOM     18  C   UNL     1      47.843   6.090  14.284  0.00  0.00    +0.000 C 
BRANCH  18  19
ATOM     19  C   UNL     1      46.806   5.733  13.245  0.00  0.00    +0.000 A 
ATOM     20  C   UNL     1      46.746   6.430  12.031  0.00  0.00    +0.000 A 
ATOM     21  C   UNL     1      45.869   6.027  11.021  0.00  0.00    +0.000 A 
ATOM     22  C   UNL     1      45.036   4.916  11.204  0.00  0.00    +0.000 A 
ATOM     23  C   UNL     1      45.055   4.257  12.441  0.00  0.00    +0.000 A 
ATOM     24  C   UNL     1      45.927   4.664  13.453  0.00  0.00    +0.000 A 
BRANCH  22  25
ATOM     25  C   UNL     1      44.133   4.428  10.098  0.00  0.00    +0.000 C 
BRANCH  25  26
ATOM     26  C   UNL     1      44.871   4.050   8.809  0.00  0.00    +0.000 C 
BRANCH  26  27
ATOM     27  C   UNL     1      45.172   2.553   8.703  0.00  0.00    +0.000 C 
BRANCH  27  28
ATOM     28  N   UNL     1      46.223   2.290   7.738  0.00  0.00    +0.000 N 
ATOM     29  C   UNL     1      46.684   3.142   6.779  0.00  0.00    +0.000 A 
ATOM     30  C   UNL     1      47.677   2.450   6.131  0.00  0.00    +0.000 A 
ATOM     31  N   UNL     1      47.824   1.196   6.671  0.00  0.00    +0.000 NA
ATOM     32  C   UNL     1      46.929   1.125   7.631  0.00  0.00    +0.000 A 
ENDBRANCH  27  28
ENDBRANCH  26  27
ENDBRANCH  25  26
ENDBRANCH  22  25
ENDBRANCH  18  19
ENDBRANCH   1  18
TORSDOF 9
ENDMDL
MODEL 2
REMARK VINA RESULT:    -7.689      1.710      2.244
REMARK INTER + INTRA:         -12.415
REMARK INTER:                 -11.585
REMARK INTRA:                  -0.830
REMARK UNBOUND:                -0.681
REMARK  Name = 
REMARK  10 active torsions:
REMARK  status: ('A' for Active; 'I' for Inactive)
REMARK    1  A    between atoms: C_1  and  C_2
REMARK    2  A    between atoms: C_2  and  N_3
REMARK    3  A    between atoms: C_2  and  C_19
REMARK    4  A    between atoms: N_3  and  C_4
REMARK    5  A    between atoms: C_4  and  C_5
REMARK    6  A    between atoms: C_8  and  C_9
REMARK    7  A    between atoms: C_9  and  C_10
REMARK    8  A    between atoms: C_10  and  C_11
REMARK    9  A    between atoms: C_11  and  N_12
REMARK   10  A    between atoms: C_19  and  C_21
REMARK                            x       y       z     vdW  Elec       q    Type
REMARK                         _______ _______ _______ _____ _____    ______ ____
ROOT
ATOM      1  N   UNL     1      47.847   6.506  14.984  0.00  0.00    +0.000 NA
ATOM      2  H   UNL     1      46.935   6.542  15.439  0.00  0.00    +0.000 HD
ENDROOT
BRANCH   1   4
ATOM      3  C   UNL     1      50.183   7.417  15.127  0.00  0.00    +0.000 C 
ATOM      4  C   UNL     1      48.834   7.228  15.829  0.00  0.00    +0.000 C 
BRANCH   4   5
ATOM      5  C   UNL     1      48.990   6.572  17.227  0.00  0.00    +0.000 C 
ATOM      6  O   UNL     1      49.258   7.261  18.215  0.00  0.00    +0.000 OA
BRANCH   5   7
ATOM      7  C   UNL     1      48.780   5.123  17.363  0.00  0.00    +0.000 A 
ATOM      8  C   UNL     1      47.523   4.546  17.360  0.00  0.00    +0.000 A 
ATOM      9  S   UNL     1      47.564   2.844  17.500  0.00  0.00    +0.000 S 
ATOM     10  C   UNL     1      49.264   2.828  17.454  0.00  0.00    +0.000 A 
ATOM     11  N   UNL     1      49.949   1.656  17.363  0.00  0.00    +0.000 NA
ATOM     12  C   UNL     1      51.232   1.796  17.320  0.00  0.00    +0.000 A 
ATOM     13  N   UNL     1      51.891   2.994  17.415  0.00  0.00    +0.000 N 
ATOM     14  C   UNL     1      51.246   4.208  17.505  0.00  0.00    +0.000 A 
ATOM     15  O   UNL     1      51.889   5.249  17.559  0.00  0.00    +0.000 OA
ATOM     16  C   UNL     1      49.796   4.106  17.480  0.00  0.00    +0.000 A 
ATOM     17  H   UNL     1      52.900   3.035  17.404  0.00  0.00    +0.000 HD
ENDBRANCH   5   7
ENDBRANCH   4   5
ENDBRANCH   1   4
BRANCH   1  18
ATOM     18  C   UNL     1      47.710   7.080  13.643  0.00  0.00    +0.000 C 
BRANCH  18  19
ATOM     19  C   UNL     1      46.849   6.228  12.739  0.00  0.00    +0.000 A 
ATOM     20  C   UNL     1      46.200   5.093  13.239  0.00  0.00    +0.000 A 
ATOM     21  C   UNL     1      45.309   4.371  12.439  0.00  0.00    +0.000 A 
ATOM     22  C   UNL     1      45.050   4.774  11.123  0.00  0.00    +0.000 A 
ATOM     23  C   UNL     1      45.746   5.875  10.606  0.00  0.00    +0.000 A 
ATOM     24  C   UNL     1      46.641   6.592  11.403  0.00  0.00    +0.000 A 
BRANCH  22  25
ATOM     25  C   UNL     1      44.041   4.046  10.270  0.00  0.00    +0.000 C 
BRANCH  25  26
ATOM     26  C   UNL     1      44.544   3.693   8.866  0.00  0.00    +0.000 C 
BRANCH  26  27
ATOM     27  C   UNL     1      44.998   2.237   8.737  0.00  0.00    +0.000 C 
BRANCH  27  28
ATOM     28  N   UNL     1      46.195   2.125   7.924  0.00  0.00    +0.000 N 
ATOM     29  C   UNL     1      46.855   3.139   7.296  0.00  0.00    +0.000 A 
ATOM     30  C   UNL     1      47.921   2.541   6.672  0.00  0.00    +0.000 A 
ATOM     31  N   UNL     1      47.919   1.187   6.900  0.00  0.00    +0.000 NA
ATOM     32  C   UNL     1      46.863   0.965   7.650  0.00  0.00    +0.000 A 
ENDBRANCH  27  28
ENDBRANCH  26  27
ENDBRANCH  25  26
ENDBRANCH  22  25
ENDBRANCH  18  19
ENDBRANCH   1  18
TORSDOF 9
ENDMDL
MODEL 3
REMARK VINA RESULT:    -7.569      2.626      3.927
REMARK INTER + INTRA:         -12.232
REMARK INTER:                 -11.067
REMARK INTRA:                  -1.165
REMARK UNBOUND:                -0.681
REMARK  Name = 
REMARK  10 active torsions:
REMARK  status: ('A' for Active; 'I' for Inactive)
REMARK    1  A    between atoms: C_1  and  C_2
REMARK    2  A    between atoms: C_2  and  N_3
REMARK    3  A    between atoms: C_2  and  C_19
REMARK    4  A    between atoms: N_3  and  C_4
REMARK    5  A    between atoms: C_4  and  C_5
REMARK    6  A    between atoms: C_8  and  C_9
REMARK    7  A    between atoms: C_9  and  C_10
REMARK    8  A    between atoms: C_10  and  C_11
REMARK    9  A    between atoms: C_11  and  N_12
REMARK   10  A    between atoms: C_19  and  C_21
REMARK                            x       y       z     vdW  Elec       q    Type
REMARK                         _______ _______ _______ _____ _____    ______ ____
ROOT
ATOM      1  N   UNL     1      47.177   5.104  15.708  0.00  0.00    +0.000 NA
ATOM      2  H   UNL     1      47.106   5.954  16.268  0.00  0.00    +0.000 HD
ENDROOT
BRANCH   1   4
ATOM      3  C   UNL     1      47.284   3.061  17.164  0.00  0.00    +0.000 C 
ATOM      4  C   UNL     1      48.066   4.140  16.407  0.00  0.00    +0.000 C 
BRANCH   4   5
ATOM      5  C   UNL     1      49.098   4.858  17.317  0.00  0.00    +0.000 C 
ATOM      6  O   UNL     1      50.294   4.877  17.013  0.00  0.00    +0.000 OA
BRANCH   5   7
ATOM      7  C   UNL     1      48.626   5.548  18.527  0.00  0.00    +0.000 A 
ATOM      8  C   UNL     1      48.461   4.902  19.740  0.00  0.00    +0.000 A 
ATOM      9  S   UNL     1      47.934   5.942  20.989  0.00  0.00    +0.000 S 
ATOM     10  C   UNL     1      48.022   7.299  19.968  0.00  0.00    +0.000 A 
ATOM     11  N   UNL     1      47.859   8.556  20.462  0.00  0.00    +0.000 NA
ATOM     12  C   UNL     1      47.968   9.491  19.577  0.00  0.00    +0.000 A 
ATOM     13  N   UNL     1      48.170   9.279  18.239  0.00  0.00    +0.000 N 
ATOM     14  C   UNL     1      48.344   8.028  17.688  0.00  0.00    +0.000 A 
ATOM     15  O   UNL     1      48.549   7.903  16.486  0.00  0.00    +0.000 OA
ATOM     16  C   UNL     1      48.305   6.948  18.660  0.00  0.00    +0.000 A 
ATOM     17  H   UNL     1      48.217  10.052  17.591  0.00  0.00    +0.000 HD
ENDBRANCH   5   7
ENDBRANCH   4   5
ENDBRANCH   1   4
BRANCH   1  18
ATOM     18  C   UNL     1      47.664   5.474  14.377  0.00  0.00    +0.000 C 
BRANCH  18  19
ATOM     19  C   UNL     1      46.635   5.226  13.298  0.00  0.00    +0.000 A 
ATOM     20  C   UNL     1      46.476   6.136  12.245  0.00  0.00    +0.000 A 
ATOM     21  C   UNL     1      45.611   5.853  11.185  0.00  0.00    +0.000 A 
ATOM     22  C   UNL     1      44.890   4.652  11.157  0.00  0.00    +0.000 A 
ATOM     23  C   UNL     1      45.006   3.771  12.240  0.00  0.00    +0.000 A 
ATOM     24  C   UNL     1      45.865   4.057  13.303  0.00  0.00    +0.000 A 
BRANCH  22  25
ATOM     25  C   UNL     1      44.005   4.302   9.986  0.00  0.00    +0.000 C 
BRANCH  25  26
ATOM     26  C   UNL     1      44.770   3.870   8.729  0.00  0.00    +0.000 C 
BRANCH  26  27
ATOM     27  C   UNL     1      45.336   2.452   8.827  0.00  0.00    +0.000 C 
BRANCH  27  28
ATOM     28  N   UNL     1      46.376   2.227   7.839  0.00  0.00    +0.000 N 
ATOM     29  C   UNL     1      46.990   3.170   7.069  0.00  0.00    +0.000 A 
ATOM     30  C   UNL     1      47.899   2.476   6.311  0.00  0.00    +0.000 A 
ATOM     31  N   UNL     1      47.846   1.134   6.597  0.00  0.00    +0.000 NA
ATOM     32  C   UNL     1      46.913   1.014   7.515  0.00  0.00    +0.000 A 
ENDBRANCH  27  28
ENDBRANCH  26  27
ENDBRANCH  25  26
ENDBRANCH  22  25
ENDBRANCH  18  19
ENDBRANCH   1  18
TORSDOF 9
ENDMDL
MODEL 4
REMARK VINA RESULT:    -7.543      2.824      3.460
REMARK INTER + INTRA:         -12.193
REMARK INTER:                 -11.209
REMARK INTRA:                  -0.984
REMARK UNBOUND:                -0.681
REMARK  Name = 
REMARK  10 active torsions:
REMARK  status: ('A' for Active; 'I' for Inactive)
REMARK    1  A    between atoms: C_1  and  C_2
REMARK    2  A    between atoms: C_2  and  N_3
REMARK    3  A    between atoms: C_2  and  C_19
REMARK    4  A    between atoms: N_3  and  C_4
REMARK    5  A    between atoms: C_4  and  C_5
REMARK    6  A    between atoms: C_8  and  C_9
REMARK    7  A    between atoms: C_9  and  C_10
REMARK    8  A    between atoms: C_10  and  C_11
REMARK    9  A    between atoms: C_11  and  N_12
REMARK   10  A    between atoms: C_19  and  C_21
REMARK                            x       y       z     vdW  Elec       q    Type
REMARK                         _______ _______ _______ _____ _____    ______ ____
ROOT
ATOM      1  N   UNL     1      47.649   6.300  15.046  0.00  0.00    +0.000 NA
ATOM      2  H   UNL     1      47.916   7.215  15.410  0.00  0.00    +0.000 HD
ENDROOT
BRANCH   1   4
ATOM      3  C   UNL     1      47.251   4.337  16.561  0.00  0.00    +0.000 C 
ATOM      4  C   UNL     1      48.281   5.247  15.883  0.00  0.00    +0.000 C 
BRANCH   4   5
ATOM      5  C   UNL     1      49.291   5.844  16.900  0.00  0.00    +0.000 C 
ATOM      6  O   UNL     1      50.505   5.671  16.752  0.00  0.00    +0.000 OA
BRANCH   5   7
ATOM      7  C   UNL     1      48.785   6.648  18.021  0.00  0.00    +0.000 A 
ATOM      8  C   UNL     1      48.470   7.990  17.898  0.00  0.00    +0.000 A 
ATOM      9  S   UNL     1      47.872   8.676  19.343  0.00  0.00    +0.000 S 
ATOM     10  C   UNL     1      47.912   7.172  20.136  0.00  0.00    +0.000 A 
ATOM     11  N   UNL     1      47.367   7.020  21.373  0.00  0.00    +0.000 NA
ATOM     12  C   UNL     1      47.455   5.822  21.846  0.00  0.00    +0.000 A 
ATOM     13  N   UNL     1      48.086   4.779  21.220  0.00  0.00    +0.000 N 
ATOM     14  C   UNL     1      48.652   4.879  19.968  0.00  0.00    +0.000 A 
ATOM     15  O   UNL     1      49.179   3.904  19.446  0.00  0.00    +0.000 OA
ATOM     16  C   UNL     1      48.510   6.193  19.362  0.00  0.00    +0.000 A 
ATOM     17  H   UNL     1      48.147   3.870  21.656  0.00  0.00    +0.000 HD
ENDBRANCH   5   7
ENDBRANCH   4   5
ENDBRANCH   1   4
BRANCH   1  18
ATOM     18  C   UNL     1      48.051   6.233  13.639  0.00  0.00    +0.000 C 
BRANCH  18  19
ATOM     19  C   UNL     1      46.920   5.797  12.738  0.00  0.00    +0.000 A 
ATOM     20  C   UNL     1      46.683   6.455  11.524  0.00  0.00    +0.000 A 
ATOM     21  C   UNL     1      45.716   5.982  10.633  0.00  0.00    +0.000 A 
ATOM     22  C   UNL     1      44.966   4.838  10.940  0.00  0.00    +0.000 A 
ATOM     23  C   UNL     1      45.163   4.217  12.181  0.00  0.00    +0.000 A 
ATOM     24  C   UNL     1      46.125   4.695  13.073  0.00  0.00    +0.000 A 
BRANCH  22  25
ATOM     25  C   UNL     1      43.967   4.276   9.960  0.00  0.00    +0.000 C 
BRANCH  25  26
ATOM     26  C   UNL     1      44.581   3.820   8.631  0.00  0.00    +0.000 C 
BRANCH  26  27
ATOM     27  C   UNL     1      45.125   2.391   8.678  0.00  0.00    +0.000 C 
BRANCH  27  28
ATOM     28  N   UNL     1      46.207   2.204   7.728  0.00  0.00    +0.000 N 
ATOM     29  C   UNL     1      46.644   3.102   6.800  0.00  0.00    +0.000 A 
ATOM     30  C   UNL     1      47.683   2.476   6.157  0.00  0.00    +0.000 A 
ATOM     31  N   UNL     1      47.881   1.217   6.668  0.00  0.00    +0.000 NA
ATOM     32  C   UNL     1      46.971   1.078   7.607  0.00  0.00    +0.000 A 
ENDBRANCH  27  28
ENDBRANCH  26  27
ENDBRANCH  25  26
ENDBRANCH  22  25
ENDBRANCH  18  19
ENDBRANCH   1  18
TORSDOF 9
ENDMDL
MODEL 5
REMARK VINA RESULT:    -7.286      2.430      3.436
REMARK INTER + INTRA:         -11.800
REMARK INTER:                 -10.386
REMARK INTRA:                  -1.414
REMARK UNBOUND:                -0.681
REMARK  Name = 
REMARK  10 active torsions:
REMARK  status: ('A' for Active; 'I' for Inactive)
REMARK    1  A    between atoms: C_1  and  C_2
REMARK    2  A    between atoms: C_2  and  N_3
REMARK    3  A    between atoms: C_2  and  C_19
REMARK    4  A    between atoms: N_3  and  C_4
REMARK    5  A    between atoms: C_4  and  C_5
REMARK    6  A    between atoms: C_8  and  C_9
REMARK    7  A    between atoms: C_9  and  C_10
REMARK    8  A    between atoms: C_10  and  C_11
REMARK    9  A    between atoms: C_11  and  N_12
REMARK   10  A    between atoms: C_19  and  C_21
REMARK                            x       y       z     vdW  Elec       q    Type
REMARK                         _______ _______ _______ _____ _____    ______ ____
ROOT
ATOM      1  N   UNL     1      47.442   5.739  15.472  0.00  0.00    +0.000 NA
ATOM      2  H   UNL     1      47.572   6.706  15.771  0.00  0.00    +0.000 HD
ENDROOT
BRANCH   1   4
ATOM      3  C   UNL     1      47.177   3.875  17.134  0.00  0.00    +0.000 C 
ATOM      4  C   UNL     1      48.137   4.842  16.433  0.00  0.00    +0.000 C 
BRANCH   4   5
ATOM      5  C   UNL     1      49.005   5.638  17.444  0.00  0.00    +0.000 C 
ATOM      6  O   UNL     1      48.556   5.937  18.555  0.00  0.00    +0.000 OA
BRANCH   5   7
ATOM      7  C   UNL     1      50.381   5.999  17.075  0.00  0.00    +0.000 A 
ATOM      8  C   UNL     1      51.475   5.222  17.413  0.00  0.00    +0.000 A 
ATOM      9  S   UNL     1      52.953   5.852  16.832  0.00  0.00    +0.000 S 
ATOM     10  C   UNL     1      52.155   7.117  16.021  0.00  0.00    +0.000 A 
ATOM     11  N   UNL     1      52.832   7.940  15.175  0.00  0.00    +0.000 NA
ATOM     12  C   UNL     1      52.098   8.843  14.616  0.00  0.00    +0.000 A 
ATOM     13  N   UNL     1      50.764   9.032  14.868  0.00  0.00    +0.000 N 
ATOM     14  C   UNL     1      50.032   8.225  15.712  0.00  0.00    +0.000 A 
ATOM     15  O   UNL     1      48.835   8.426  15.877  0.00  0.00    +0.000 OA
ATOM     16  C   UNL     1      50.802   7.145  16.307  0.00  0.00    +0.000 A 
ATOM     17  H   UNL     1      50.250   9.776  14.420  0.00  0.00    +0.000 HD
ENDBRANCH   5   7
ENDBRANCH   4   5
ENDBRANCH   1   4
BRANCH   1  18
ATOM     18  C   UNL     1      47.945   5.613  14.102  0.00  0.00    +0.000 C 
BRANCH  18  19
ATOM     19  C   UNL     1      46.837   5.365  13.104  0.00  0.00    +0.000 A 
ATOM     20  C   UNL     1      46.682   6.201  11.991  0.00  0.00    +0.000 A 
ATOM     21  C   UNL     1      45.737   5.906  11.005  0.00  0.00    +0.000 A 
ATOM     22  C   UNL     1      44.929   4.767  11.113  0.00  0.00    +0.000 A 
ATOM     23  C   UNL     1      45.045   3.964  12.256  0.00  0.00    +0.000 A 
ATOM     24  C   UNL     1      45.985   4.263  13.245  0.00  0.00    +0.000 A 
BRANCH  22  25
ATOM     25  C   UNL     1      43.952   4.399  10.024  0.00  0.00    +0.000 C 
BRANCH  25  26
ATOM     26  C   UNL     1      44.612   3.895   8.735  0.00  0.00    +0.000 C 
BRANCH  26  27
ATOM     27  C   UNL     1      45.113   2.453   8.837  0.00  0.00    +0.000 C 
BRANCH  27  28
ATOM     28  N   UNL     1      46.240   2.218   7.953  0.00  0.00    +0.000 N 
ATOM     29  C   UNL     1      46.949   3.158   7.266  0.00  0.00    +0.000 A 
ATOM     30  C   UNL     1      47.913   2.455   6.588  0.00  0.00    +0.000 A 
ATOM     31  N   UNL     1      47.800   1.110   6.842  0.00  0.00    +0.000 NA
ATOM     32  C   UNL     1      46.778   0.997   7.661  0.00  0.00    +0.000 A 
ENDBRANCH  27  28
ENDBRANCH  26  27
ENDBRANCH  25  26
ENDBRANCH  22  25
ENDBRANCH  18  19
ENDBRANCH   1  18
TORSDOF 9
ENDMDL
MODEL 6
REMARK VINA RESULT:    -7.226      1.563      2.145
REMARK INTER + INTRA:         -11.708
REMARK INTER:                 -10.308
REMARK INTRA:                  -1.400
REMARK UNBOUND:                -0.681
REMARK  Name = 
REMARK  10 active torsions:
REMARK  status: ('A' for Active; 'I' for Inactive)
REMARK    1  A    between atoms: C_1  and  C_2
REMARK    2  A    between atoms: C_2  and  N_3
REMARK    3  A    between atoms: C_2  and  C_19
REMARK    4  A    between atoms: N_3  and  C_4
REMARK    5  A    between atoms: C_4  and  C_5
REMARK    6  A    between atoms: C_8  and  C_9
REMARK    7  A    between atoms: C_9  and  C_10
REMARK    8  A    between atoms: C_10  and  C_11
REMARK    9  A    between atoms: C_11  and  N_12
REMARK   10  A    between atoms: C_19  and  C_21
REMARK                            x       y       z     vdW  Elec       q    Type
REMARK                         _______ _______ _______ _____ _____    ______ ____
ROOT
ATOM      1  N   UNL     1      48.075   7.246  15.510  0.00  0.00    +0.000 NA
ATOM      2  H   UNL     1      47.208   7.750  15.322  0.00  0.00    +0.000 HD
ENDROOT
BRANCH   1   4
ATOM      3  C   UNL     1      50.160   8.645  15.513  0.00  0.00    +0.000 C 
ATOM      4  C   UNL     1      48.970   8.115  16.319  0.00  0.00    +0.000 C 
BRANCH   4   5
ATOM      5  C   UNL     1      49.417   7.421  17.633  0.00  0.00    +0.000 C 
ATOM      6  O   UNL     1      48.928   7.756  18.716  0.00  0.00    +0.000 OA
BRANCH   5   7
ATOM      7  C   UNL     1      50.405   6.334  17.567  0.00  0.00    +0.000 A 
ATOM      8  C   UNL     1      51.763   6.545  17.737  0.00  0.00    +0.000 A 
ATOM      9  S   UNL     1      52.683   5.109  17.645  0.00  0.00    +0.000 S 
ATOM     10  C   UNL     1      51.281   4.158  17.488  0.00  0.00    +0.000 A 
ATOM     11  N   UNL     1      51.351   2.800  17.532  0.00  0.00    +0.000 NA
ATOM     12  C   UNL     1      50.209   2.208  17.417  0.00  0.00    +0.000 A 
ATOM     13  N   UNL     1      49.015   2.848  17.209  0.00  0.00    +0.000 N 
ATOM     14  C   UNL     1      48.889   4.219  17.159  0.00  0.00    +0.000 A 
ATOM     15  O   UNL     1      47.790   4.736  16.997  0.00  0.00    +0.000 OA
ATOM     16  C   UNL     1      50.141   4.931  17.360  0.00  0.00    +0.000 A 
ATOM     17  H   UNL     1      48.157   2.326  17.097  0.00  0.00    +0.000 HD
ENDBRANCH   5   7
ENDBRANCH   4   5
ENDBRANCH   1   4
BRANCH   1  18
ATOM     18  C   UNL     1      48.661   6.854  14.226  0.00  0.00    +0.000 C 
BRANCH  18  19
ATOM     19  C   UNL     1      47.632   6.297  13.270  0.00  0.00    +0.000 A 
ATOM     20  C   UNL     1      46.807   5.233  13.656  0.00  0.00    +0.000 A 
ATOM     21  C   UNL     1      45.775   4.793  12.821  0.00  0.00    +0.000 A 
ATOM     22  C   UNL     1      45.549   5.411  11.585  0.00  0.00    +0.000 A 
ATOM     23  C   UNL     1      46.412   6.436  11.176  0.00  0.00    +0.000 A 
ATOM     24  C   UNL     1      47.447   6.871  12.007  0.00  0.00    +0.000 A 
BRANCH  22  25
ATOM     25  C   UNL     1      44.397   4.993  10.704  0.00  0.00    +0.000 C 
BRANCH  25  26
ATOM     26  C   UNL     1      44.615   3.660   9.979  0.00  0.00    +0.000 C 
BRANCH  26  27
ATOM     27  C   UNL     1      44.942   3.828   8.494  0.00  0.00    +0.000 C 
BRANCH  27  28
ATOM     28  N   UNL     1      45.863   2.805   8.035  0.00  0.00    +0.000 N 
ATOM     29  C   UNL     1      46.901   2.970   7.167  0.00  0.00    +0.000 A 
ATOM     30  C   UNL     1      47.477   1.729   7.057  0.00  0.00    +0.000 A 
ATOM     31  N   UNL     1      46.808   0.814   7.832  0.00  0.00    +0.000 NA
ATOM     32  C   UNL     1      45.836   1.490   8.403  0.00  0.00    +0.000 A 
ENDBRANCH  27  28
ENDBRANCH  26  27
ENDBRANCH  25  26
ENDBRANCH  22  25
ENDBRANCH  18  19
ENDBRANCH   1  18
TORSDOF 9
ENDMDL
MODEL 7
REMARK VINA RESULT:    -7.114      3.605      8.952
REMARK INTER + INTRA:         -11.538
REMARK INTER:                 -10.260
REMARK INTRA:                  -1.278
REMARK UNBOUND:                -0.681
REMARK  Name = 
REMARK  10 active torsions:
REMARK  status: ('A' for Active; 'I' for Inactive)
REMARK    1  A    between atoms: C_1  and  C_2
REMARK    2  A    between atoms: C_2  and  N_3
REMARK    3  A    between atoms: C_2  and  C_19
REMARK    4  A    between atoms: N_3  and  C_4
REMARK    5  A    between atoms: C_4  and  C_5
REMARK    6  A    between atoms: C_8  and  C_9
REMARK    7  A    between atoms: C_9  and  C_10
REMARK    8  A    between atoms: C_10  and  C_11
REMARK    9  A    between atoms: C_11  and  N_12
REMARK   10  A    between atoms: C_19  and  C_21
REMARK                            x       y       z     vdW  Elec       q    Type
REMARK                         _______ _______ _______ _____ _____    ______ ____
ROOT
ATOM      1  N   UNL     1      46.510   8.047  13.646  0.00  0.00    +0.000 NA
ATOM      2  H   UNL     1      46.226   7.588  14.511  0.00  0.00    +0.000 HD
ENDROOT
BRANCH   1   4
ATOM      3  C   UNL     1      47.848   7.335  11.644  0.00  0.00    +0.000 C 
ATOM      4  C   UNL     1      46.684   7.017  12.589  0.00  0.00    +0.000 C 
BRANCH   4   5
ATOM      5  C   UNL     1      45.364   6.748  11.819  0.00  0.00    +0.000 C 
ATOM      6  O   UNL     1      44.754   7.676  11.280  0.00  0.00    +0.000 OA
BRANCH   5   7
ATOM      7  C   UNL     1      44.870   5.368  11.708  0.00  0.00    +0.000 A 
ATOM      8  C   UNL     1      44.180   4.736  12.728  0.00  0.00    +0.000 A 
ATOM      9  S   UNL     1      43.691   3.149  12.327  0.00  0.00    +0.000 S 
ATOM     10  C   UNL     1      44.289   3.309  10.742  0.00  0.00    +0.000 A 
ATOM     11  N   UNL     1      44.042   2.356   9.803  0.00  0.00    +0.000 NA
ATOM     12  C   UNL     1      44.542   2.617   8.641  0.00  0.00    +0.000 A 
ATOM     13  N   UNL     1      45.311   3.713   8.349  0.00  0.00    +0.000 N 
ATOM     14  C   UNL     1      45.588   4.708   9.261  0.00  0.00    +0.000 A 
ATOM     15  O   UNL     1      46.259   5.679   8.935  0.00  0.00    +0.000 OA
ATOM     16  C   UNL     1      44.981   4.495  10.565  0.00  0.00    +0.000 A 
ATOM     17  H   UNL     1      45.698   3.846   7.426  0.00  0.00    +0.000 HD
ENDBRANCH   5   7
ENDBRANCH   4   5
ENDBRANCH   1   4
BRANCH   1  18
ATOM     18  C   UNL     1      47.733   8.808  13.914  0.00  0.00    +0.000 C 
BRANCH  18  19
ATOM     19  C   UNL     1      48.431   8.348  15.173  0.00  0.00    +0.000 A 
ATOM     20  C   UNL     1      48.132   8.936  16.408  0.00  0.00    +0.000 A 
ATOM     21  C   UNL     1      48.686   8.435  17.589  0.00  0.00    +0.000 A 
ATOM     22  C   UNL     1      49.549   7.332  17.557  0.00  0.00    +0.000 A 
ATOM     23  C   UNL     1      49.894   6.783  16.315  0.00  0.00    +0.000 A 
ATOM     24  C   UNL     1      49.346   7.289  15.134  0.00  0.00    +0.000 A 
BRANCH  22  25
ATOM     25  C   UNL     1      50.101   6.737  18.829  0.00  0.00    +0.000 C 
BRANCH  25  26
ATOM     26  C   UNL     1      49.637   5.302  19.102  0.00  0.00    +0.000 C 
BRANCH  26  27
ATOM     27  C   UNL     1      50.604   4.244  18.569  0.00  0.00    +0.000 C 
BRANCH  27  28
ATOM     28  N   UNL     1      49.947   3.347  17.636  0.00  0.00    +0.000 N 
ATOM     29  C   UNL     1      48.673   3.449  17.163  0.00  0.00    +0.000 A 
ATOM     30  C   UNL     1      48.521   2.385  16.308  0.00  0.00    +0.000 A 
ATOM     31  N   UNL     1      49.671   1.636  16.259  0.00  0.00    +0.000 NA
ATOM     32  C   UNL     1      50.510   2.235  17.075  0.00  0.00    +0.000 A 
ENDBRANCH  27  28
ENDBRANCH  26  27
ENDBRANCH  25  26
ENDBRANCH  22  25
ENDBRANCH  18  19
ENDBRANCH   1  18
TORSDOF 9
ENDMDL
MODEL 8
REMARK VINA RESULT:    -7.031      2.968      3.852
REMARK INTER + INTRA:         -11.411
REMARK INTER:                 -10.168
REMARK INTRA:                  -1.243
REMARK UNBOUND:                -0.681
REMARK  Name = 
REMARK  10 active torsions:
REMARK  status: ('A' for Active; 'I' for Inactive)
REMARK    1  A    between atoms: C_1  and  C_2
REMARK    2  A    between atoms: C_2  and  N_3
REMARK    3  A    between atoms: C_2  and  C_19
REMARK    4  A    between atoms: N_3  and  C_4
REMARK    5  A    between atoms: C_4  and  C_5
REMARK    6  A    between atoms: C_8  and  C_9
REMARK    7  A    between atoms: C_9  and  C_10
REMARK    8  A    between atoms: C_10  and  C_11
REMARK    9  A    between atoms: C_11  and  N_12
REMARK   10  A    between atoms: C_19  and  C_21
REMARK                            x       y       z     vdW  Elec       q    Type
REMARK                         _______ _______ _______ _____ _____    ______ ____
ROOT
ATOM      1  N   UNL     1      47.582   7.161  14.135  0.00  0.00    +0.000 NA
ATOM      2  H   UNL     1      47.243   7.304  15.087  0.00  0.00    +0.000 HD
ENDROOT
BRANCH   1   4
ATOM      3  C   UNL     1      49.473   7.716  12.579  0.00  0.00    +0.000 C 
ATOM      4  C   UNL     1      48.808   7.977  13.935  0.00  0.00    +0.000 C 
BRANCH   4   5
ATOM      5  C   UNL     1      49.806   7.823  15.114  0.00  0.00    +0.000 C 
ATOM      6  O   UNL     1      50.987   7.531  14.900  0.00  0.00    +0.000 OA
BRANCH   5   7
ATOM      7  C   UNL     1      49.335   8.063  16.485  0.00  0.00    +0.000 A 
ATOM      8  C   UNL     1      49.397   9.306  17.091  0.00  0.00    +0.000 A 
ATOM      9  S   UNL     1      48.752   9.316  18.673  0.00  0.00    +0.000 S 
ATOM     10  C   UNL     1      48.271   7.689  18.544  0.00  0.00    +0.000 A 
ATOM     11  N   UNL     1      47.499   7.111  19.504  0.00  0.00    +0.000 NA
ATOM     12  C   UNL     1      47.197   5.878  19.267  0.00  0.00    +0.000 A 
ATOM     13  N   UNL     1      47.641   5.158  18.189  0.00  0.00    +0.000 N 
ATOM     14  C   UNL     1      48.421   5.695  17.189  0.00  0.00    +0.000 A 
ATOM     15  O   UNL     1      48.766   5.008  16.235  0.00  0.00    +0.000 OA
ATOM     16  C   UNL     1      48.725   7.105  17.374  0.00  0.00    +0.000 A 
ATOM     17  H   UNL     1      47.392   4.186  18.076  0.00  0.00    +0.000 HD
ENDBRANCH   5   7
ENDBRANCH   4   5
ENDBRANCH   1   4
BRANCH   1  18
ATOM     18  C   UNL     1      46.502   7.509  13.209  0.00  0.00    +0.000 C 
BRANCH  18  19
ATOM     19  C   UNL     1      45.978   6.306  12.459  0.00  0.00    +0.000 A 
ATOM     20  C   UNL     1      46.195   5.012  12.950  0.00  0.00    +0.000 A 
ATOM     21  C   UNL     1      45.612   3.906  12.326  0.00  0.00    +0.000 A 
ATOM     22  C   UNL     1      44.798   4.074  11.199  0.00  0.00    +0.000 A 
ATOM     23  C   UNL     1      44.630   5.362  10.674  0.00  0.00    +0.000 A 
ATOM     24  C   UNL     1      45.219   6.467  11.295  0.00  0.00    +0.000 A 
BRANCH  22  25
ATOM     25  C   UNL     1      44.107   2.897  10.556  0.00  0.00    +0.000 C 
BRANCH  25  26
ATOM     26  C   UNL     1      44.398   2.740   9.059  0.00  0.00    +0.000 C 
BRANCH  26  27
ATOM     27  C   UNL     1      45.463   1.683   8.759  0.00  0.00    +0.000 C 
BRANCH  27  28
ATOM     28  N   UNL     1      46.286   2.066   7.627  0.00  0.00    +0.000 N 
ATOM     29  C   UNL     1      47.402   1.427   7.174  0.00  0.00    +0.000 A 
ATOM     30  C   UNL     1      47.815   2.153   6.085  0.00  0.00    +0.000 A 
ATOM     31  N   UNL     1      46.979   3.222   5.871  0.00  0.00    +0.000 NA
ATOM     32  C   UNL     1      46.073   3.148   6.821  0.00  0.00    +0.000 A 
ENDBRANCH  27  28
ENDBRANCH  26  27
ENDBRANCH  25  26
ENDBRANCH  22  25
ENDBRANCH  18  19
ENDBRANCH   1  18
TORSDOF 9
ENDMDL
MODEL 9
REMARK VINA RESULT:    -6.726      2.478      3.825
REMARK INTER + INTRA:         -10.946
REMARK INTER:                  -9.539
REMARK INTRA:                  -1.407
REMARK UNBOUND:                -0.681
REMARK  Name = 
REMARK  10 active torsions:
REMARK  status: ('A' for Active; 'I' for Inactive)
REMARK    1  A    between atoms: C_1  and  C_2
REMARK    2  A    between atoms: C_2  and  N_3
REMARK    3  A    between atoms: C_2  and  C_19
REMARK    4  A    between atoms: N_3  and  C_4
REMARK    5  A    between atoms: C_4  and  C_5
REMARK    6  A    between atoms: C_8  and  C_9
REMARK    7  A    between atoms: C_9  and  C_10
REMARK    8  A    between atoms: C_10  and  C_11
REMARK    9  A    between atoms: C_11  and  N_12
REMARK   10  A    between atoms: C_19  and  C_21
REMARK                            x       y       z     vdW  Elec       q    Type
REMARK                         _______ _______ _______ _____ _____    ______ ____
ROOT
ATOM      1  N   UNL     1      51.252   6.552  15.523  0.00  0.00    +0.000 NA
ATOM      2  H   UNL     1      50.588   5.819  15.773  0.00  0.00    +0.000 HD
ENDROOT
BRANCH   1   4
ATOM      3  C   UNL     1      53.566   6.702  16.485  0.00  0.00    +0.000 C 
ATOM      4  C   UNL     1      52.064   6.894  16.719  0.00  0.00    +0.000 C 
BRANCH   4   5
ATOM      5  C   UNL     1      51.572   6.146  17.987  0.00  0.00    +0.000 C 
ATOM      6  O   UNL     1      52.382   5.681  18.794  0.00  0.00    +0.000 OA
BRANCH   5   7
ATOM      7  C   UNL     1      50.127   6.031  18.232  0.00  0.00    +0.000 A 
ATOM      8  C   UNL     1      49.379   7.050  18.796  0.00  0.00    +0.000 A 
ATOM      9  S   UNL     1      47.720   6.668  18.939  0.00  0.00    +0.000 S 
ATOM     10  C   UNL     1      47.941   5.178  18.147  0.00  0.00    +0.000 A 
ATOM     11  N   UNL     1      46.875   4.413  17.788  0.00  0.00    +0.000 NA
ATOM     12  C   UNL     1      47.190   3.318  17.181  0.00  0.00    +0.000 A 
ATOM     13  N   UNL     1      48.473   2.894  16.950  0.00  0.00    +0.000 N 
ATOM     14  C   UNL     1      49.587   3.631  17.291  0.00  0.00    +0.000 A 
ATOM     15  O   UNL     1      50.709   3.212  17.034  0.00  0.00    +0.000 OA
ATOM     16  C   UNL     1      49.278   4.909  17.910  0.00  0.00    +0.000 A 
ATOM     17  H   UNL     1      48.655   2.012  16.495  0.00  0.00    +0.000 HD
ENDBRANCH   5   7
ENDBRANCH   4   5
ENDBRANCH   1   4
BRANCH   1  18
ATOM     18  C   UNL     1      50.496   7.691  14.996  0.00  0.00    +0.000 C 
BRANCH  18  19
ATOM     19  C   UNL     1      49.429   7.268  14.013  0.00  0.00    +0.000 A 
ATOM     20  C   UNL     1      48.354   6.472  14.430  0.00  0.00    +0.000 A 
ATOM     21  C   UNL     1      47.305   6.178  13.555  0.00  0.00    +0.000 A 
ATOM     22  C   UNL     1      47.311   6.676  12.245  0.00  0.00    +0.000 A 
ATOM     23  C   UNL     1      48.415   7.422  11.813  0.00  0.00    +0.000 A 
ATOM     24  C   UNL     1      49.467   7.711  12.686  0.00  0.00    +0.000 A 
BRANCH  22  25
ATOM     25  C   UNL     1      46.153   6.424  11.311  0.00  0.00    +0.000 C 
BRANCH  25  26
ATOM     26  C   UNL     1      45.071   5.503  11.888  0.00  0.00    +0.000 C 
BRANCH  26  27
ATOM     27  C   UNL     1      43.958   5.182  10.889  0.00  0.00    +0.000 C 
BRANCH  27  28
ATOM     28  N   UNL     1      44.343   4.105   9.994  0.00  0.00    +0.000 N 
ATOM     29  C   UNL     1      44.280   2.768  10.250  0.00  0.00    +0.000 A 
ATOM     30  C   UNL     1      44.736   2.162   9.106  0.00  0.00    +0.000 A 
ATOM     31  N   UNL     1      45.080   3.101   8.165  0.00  0.00    +0.000 NA
ATOM     32  C   UNL     1      44.840   4.263   8.732  0.00  0.00    +0.000 A 
ENDBRANCH  27  28
ENDBRANCH  26  27
ENDBRANCH  25  26
ENDBRANCH  22  25
ENDBRANCH  18  19
ENDBRANCH   1  18
TORSDOF 9
ENDMDL
