MODEL 1
REMARK VINA RESULT:    -7.237      0.000      0.000
REMARK INTER + INTRA:         -10.149
REMARK INTER:                  -9.563
REMARK INTRA:                  -0.585
REMARK UNBOUND:                -0.585
REMARK  Name = 
REMARK  6 active torsions:
REMARK  status: ('A' for Active; 'I' for Inactive)
REMARK    1  A    between atoms: N_1  and  C_2
REMARK    2  A    between atoms: C_2  and  C_3
REMARK    3  A    between atoms: C_7  and  N_8
REMARK    4  A    between atoms: N_8  and  C_9
REMARK    5  A    between atoms: C_9  and  C_10
REMARK    6  A    between atoms: C_10  and  C_11
REMARK                            x       y       z     vdW  Elec       q    Type
REMARK                         _______ _______ _______ _____ _____    ______ ____
ROOT
ATOM      1  C   UNL     1      46.569   2.632   6.779  0.00  0.00    +0.000 A 
ATOM      2  C   UNL     1      46.654   1.410   7.453  0.00  0.00    +0.000 A 
ATOM      3  C   UNL     1      45.873   1.179   8.581  0.00  0.00    +0.000 A 
ATOM      4  C   UNL     1      45.014   2.174   9.058  0.00  0.00    +0.000 A 
ATOM      5  C   UNL     1      44.939   3.427   8.440  0.00  0.00    +0.000 A 
ATOM      6  C   UNL     1      45.692   3.618   7.270  0.00  0.00    +0.000 A 
ENDROOT
BRANCH   5   7
ATOM      7  N   UNL     1      44.052   4.438   8.853  0.00  0.00    +0.000 N 
ATOM      8  H   UNL     1      44.271   5.313   8.377  0.00  0.00    +0.000 HD
BRANCH   7   9
ATOM      9  C   UNL     1      43.851   4.617  10.295  0.00  0.00    +0.000 C 
BRANCH   9  10
ATOM     10  C   UNL     1      44.829   5.659  10.850  0.00  0.00    +0.000 C 
BRANCH  10  11
ATOM     11  C   UNL     1      45.612   5.122  12.020  0.00  0.00    +0.000 A 
ATOM     12  C   UNL     1      46.461   5.936  12.773  0.00  0.00    +0.000 A 
ATOM     13  C   UNL     1      47.185   5.388  13.829  0.00  0.00    +0.000 A 
ATOM     14  C   UNL     1      47.039   4.037  14.095  0.00  0.00    +0.000 A 
ATOM     15  N   UNL     1      46.234   3.218  13.388  0.00  0.00    +0.000 NA
ATOM     16  C   UNL     1      45.540   3.776  12.371  0.00  0.00    +0.000 A 
ENDBRANCH  10  11
ENDBRANCH   9  10
ENDBRANCH   7   9
ENDBRANCH   5   7
BRANCH   1  17
ATOM     17  C   UNL     1      47.383   2.874   5.534  0.00  0.00    +0.000 C 
BRANCH  17  18
ATOM     18  N   UNL     1      48.487   1.926   5.420  0.00  0.00    +0.000 NA
ATOM     19  H   UNL     1      48.341   1.167   6.082  0.00  0.00    +0.000 HD
ATOM     20  H   UNL     1      49.347   2.394   5.703  0.00  0.00    +0.000 HD
ENDBRANCH  17  18
ENDBRANCH   1  17
TORSDOF 6
ENDMDL
MODEL 2
REMARK VINA RESULT:    -7.164      1.105      6.298
REMARK INTER + INTRA:         -10.053
REMARK INTER:                  -9.543
REMARK INTRA:                  -0.510
REMARK UNBOUND:                -0.585
REMARK  Name = 
REMARK  6 active torsions:
REMARK  status: ('A' for Active; 'I' for Inactive)
REMARK    1  A    between atoms: N_1  and  C_2
REMARK    2  A    between atoms: C_2  and  C_3
REMARK    3  A    between atoms: C_7  and  N_8
REMARK    4  A    between atoms: N_8  and  C_9
REMARK    5  A    between atoms: C_9  and  C_10
REMARK    6  A    between atoms: C_10  and  C_11
REMARK                            x       y       z     vdW  Elec       q    Type
REMARK                         _______ _______ _______ _____ _____    ______ ____
ROOT
ATOM      1  C   UNL     1      46.476   4.949  13.367  0.00  0.00    +0.000 A 
ATOM      2  C   UNL     1      46.909   6.150  12.795  0.00  0.00    +0.000 A 
ATOM      3  C   UNL     1      46.405   6.557  11.563  0.00  0.00    +0.000 A 
ATOM      4  C   UNL     1      45.479   5.759  10.883  0.00  0.00    +0.000 A 
ATOM      5  C   UNL     1      45.061   4.528  11.400  0.00  0.00    +0.000 A 
ATOM      6  C   UNL     1      45.538   4.164  12.670  0.00  0.00    +0.000 A 
ENDROOT
BRANCH   5   7
ATOM      7  N   UNL     1      44.095   3.717  10.776  0.00  0.00    +0.000 N 
ATOM      8  H   UNL     1      43.918   2.886  11.339  0.00  0.00    +0.000 HD
BRANCH   7   9
ATOM      9  C   UNL     1      44.284   3.407   9.356  0.00  0.00    +0.000 C 
BRANCH   9  10
ATOM     10  C   UNL     1      45.125   2.135   9.190  0.00  0.00    +0.000 C 
BRANCH  10  11
ATOM     11  C   UNL     1      46.045   2.225   8.000  0.00  0.00    +0.000 A 
ATOM     12  C   UNL     1      46.038   3.331   7.148  0.00  0.00    +0.000 A 
ATOM     13  C   UNL     1      46.888   3.358   6.044  0.00  0.00    +0.000 A 
ATOM     14  C   UNL     1      47.716   2.269   5.827  0.00  0.00    +0.000 A 
ATOM     15  N   UNL     1      47.747   1.181   6.623  0.00  0.00    +0.000 NA
ATOM     16  C   UNL     1      46.914   1.183   7.688  0.00  0.00    +0.000 A 
ENDBRANCH  10  11
ENDBRANCH   9  10
ENDBRANCH   7   9
ENDBRANCH   5   7
BRANCH   1  17
ATOM     17  C   UNL     1      46.988   4.521  14.719  0.00  0.00    +0.000 C 
BRANCH  17  18
ATOM     18  N   UNL     1      47.512   3.159  14.689  0.00  0.00    +0.000 NA
ATOM     19  H   UNL     1      47.130   2.640  15.477  0.00  0.00    +0.000 HD
ATOM     20  H   UNL     1      48.521   3.197  14.831  0.00  0.00    +0.000 HD
ENDBRANCH  17  18
ENDBRANCH   1  17
TORSDOF 6
ENDMDL
MODEL 3
REMARK VINA RESULT:    -7.142      1.349      2.033
REMARK INTER + INTRA:         -10.024
REMARK INTER:                  -9.315
REMARK INTRA:                  -0.709
REMARK UNBOUND:                -0.585
REMARK  Name = 
REMARK  6 active torsions:
REMARK  status: ('A' for Active; 'I' for Inactive)
REMARK    1  A    between atoms: N_1  and  C_2
REMARK    2  A    between atoms: C_2  and  C_3
REMARK    3  A    between atoms: C_7  and  N_8
REMARK    4  A    between atoms: N_8  and  C_9
REMARK    5  A    between atoms: C_9  and  C_10
REMARK    6  A    between atoms: C_10  and  C_11
REMARK                            x       y       z     vdW  Elec       q    Type
REMARK                         _______ _______ _______ _____ _____    ______ ____
ROOT
ATOM      1  C   UNL     1      46.527   2.275   7.658  0.00  0.00    +0.000 A 
ATOM      2  C   UNL     1      46.643   3.631   7.336  0.00  0.00    +0.000 A 
ATOM      3  C   UNL     1      45.954   4.586   8.077  0.00  0.00    +0.000 A 
ATOM      4  C   UNL     1      45.126   4.194   9.134  0.00  0.00    +0.000 A 
ATOM      5  C   UNL     1      44.946   2.844   9.454  0.00  0.00    +0.000 A 
ATOM      6  C   UNL     1      45.695   1.901   8.731  0.00  0.00    +0.000 A 
ENDROOT
BRANCH   5   7
ATOM      7  N   UNL     1      44.165   2.407  10.540  0.00  0.00    +0.000 N 
ATOM      8  H   UNL     1      43.607   1.598  10.268  0.00  0.00    +0.000 HD
BRANCH   7   9
ATOM      9  C   UNL     1      43.382   3.414  11.262  0.00  0.00    +0.000 C 
BRANCH   9  10
ATOM     10  C   UNL     1      43.835   3.501  12.725  0.00  0.00    +0.000 C 
BRANCH  10  11
ATOM     11  C   UNL     1      45.004   4.437  12.892  0.00  0.00    +0.000 A 
ATOM     12  C   UNL     1      44.912   5.792  12.568  0.00  0.00    +0.000 A 
ATOM     13  C   UNL     1      46.028   6.614  12.714  0.00  0.00    +0.000 A 
ATOM     14  C   UNL     1      47.204   6.048  13.177  0.00  0.00    +0.000 A 
ATOM     15  N   UNL     1      47.333   4.744  13.495  0.00  0.00    +0.000 NA
ATOM     16  C   UNL     1      46.235   3.970  13.347  0.00  0.00    +0.000 A 
ENDBRANCH  10  11
ENDBRANCH   9  10
ENDBRANCH   7   9
ENDBRANCH   5   7
BRANCH   1  17
ATOM     17  C   UNL     1      47.302   1.238   6.886  0.00  0.00    +0.000 C 
BRANCH  17  18
ATOM     18  N   UNL     1      48.459   1.822   6.214  0.00  0.00    +0.000 NA
ATOM     19  H   UNL     1      49.305   1.533   6.701  0.00  0.00    +0.000 HD
ATOM     20  H   UNL     1      48.408   2.836   6.303  0.00  0.00    +0.000 HD
ENDBRANCH  17  18
ENDBRANCH   1  17
TORSDOF 6
ENDMDL
MODEL 4
REMARK VINA RESULT:    -6.651      1.498      6.210
REMARK INTER + INTRA:          -9.375
REMARK INTER:                  -8.937
REMARK INTRA:                  -0.438
REMARK UNBOUND:                -0.585
REMARK  Name = 
REMARK  6 active torsions:
REMARK  status: ('A' for Active; 'I' for Inactive)
REMARK    1  A    between atoms: N_1  and  C_2
REMARK    2  A    between atoms: C_2  and  C_3
REMARK    3  A    between atoms: C_7  and  N_8
REMARK    4  A    between atoms: N_8  and  C_9
REMARK    5  A    between atoms: C_9  and  C_10
REMARK    6  A    between atoms: C_10  and  C_11
REMARK                            x       y       z     vdW  Elec       q    Type
REMARK                         _______ _______ _______ _____ _____    ______ ____
ROOT
ATOM      1  C   UNL     1      45.288   5.971  12.466  0.00  0.00    +0.000 A 
ATOM      2  C   UNL     1      46.235   5.488  13.374  0.00  0.00    +0.000 A 
ATOM      3  C   UNL     1      46.484   4.122  13.463  0.00  0.00    +0.000 A 
ATOM      4  C   UNL     1      45.774   3.223  12.661  0.00  0.00    +0.000 A 
ATOM      5  C   UNL     1      44.783   3.665  11.776  0.00  0.00    +0.000 A 
ATOM      6  C   UNL     1      44.589   5.051  11.660  0.00  0.00    +0.000 A 
ENDROOT
BRANCH   5   7
ATOM      7  N   UNL     1      44.081   2.803  10.914  0.00  0.00    +0.000 N 
ATOM      8  H   UNL     1      44.108   1.849  11.271  0.00  0.00    +0.000 HD
BRANCH   7   9
ATOM      9  C   UNL     1      44.386   2.878   9.482  0.00  0.00    +0.000 C 
BRANCH   9  10
ATOM     10  C   UNL     1      45.211   1.662   9.043  0.00  0.00    +0.000 C 
BRANCH  10  11
ATOM     11  C   UNL     1      46.113   1.988   7.882  0.00  0.00    +0.000 A 
ATOM     12  C   UNL     1      45.987   3.180   7.165  0.00  0.00    +0.000 A 
ATOM     13  C   UNL     1      46.827   3.426   6.081  0.00  0.00    +0.000 A 
ATOM     14  C   UNL     1      47.766   2.465   5.746  0.00  0.00    +0.000 A 
ATOM     15  N   UNL     1      47.914   1.300   6.409  0.00  0.00    +0.000 NA
ATOM     16  C   UNL     1      47.088   1.088   7.458  0.00  0.00    +0.000 A 
ENDBRANCH  10  11
ENDBRANCH   9  10
ENDBRANCH   7   9
ENDBRANCH   5   7
BRANCH   1  17
ATOM     17  C   UNL     1      45.042   7.452  12.336  0.00  0.00    +0.000 C 
BRANCH  17  18
ATOM     18  N   UNL     1      44.449   7.788  11.044  0.00  0.00    +0.000 NA
ATOM     19  H   UNL     1      43.748   7.088  10.810  0.00  0.00    +0.000 HD
ATOM     20  H   UNL     1      45.173   7.721  10.329  0.00  0.00    +0.000 HD
ENDBRANCH  17  18
ENDBRANCH   1  17
TORSDOF 6
ENDMDL
MODEL 5
REMARK VINA RESULT:    -6.600      1.689      2.221
REMARK INTER + INTRA:          -9.308
REMARK INTER:                  -8.874
REMARK INTRA:                  -0.434
REMARK UNBOUND:                -0.585
REMARK  Name = 
REMARK  6 active torsions:
REMARK  status: ('A' for Active; 'I' for Inactive)
REMARK    1  A    between atoms: N_1  and  C_2
REMARK    2  A    between atoms: C_2  and  C_3
REMARK    3  A    between atoms: C_7  and  N_8
REMARK    4  A    between atoms: N_8  and  C_9
REMARK    5  A    between atoms: C_9  and  C_10
REMARK    6  A    between atoms: C_10  and  C_11
REMARK                            x       y       z     vdW  Elec       q    Type
REMARK                         _______ _______ _______ _____ _____    ______ ____
ROOT
ATOM      1  C   UNL     1      46.800   2.692   7.252  0.00  0.00    +0.000 A 
ATOM      2  C   UNL     1      46.582   1.389   7.713  0.00  0.00    +0.000 A 
ATOM      3  C   UNL     1      45.523   1.123   8.577  0.00  0.00    +0.000 A 
ATOM      4  C   UNL     1      44.686   2.158   9.004  0.00  0.00    +0.000 A 
ATOM      5  C   UNL     1      44.904   3.481   8.604  0.00  0.00    +0.000 A 
ATOM      6  C   UNL     1      45.941   3.719   7.688  0.00  0.00    +0.000 A 
ENDROOT
BRANCH   5   7
ATOM      7  N   UNL     1      44.058   4.546   8.968  0.00  0.00    +0.000 N 
ATOM      8  H   UNL     1      44.375   5.411   8.533  0.00  0.00    +0.000 HD
BRANCH   7   9
ATOM      9  C   UNL     1      43.749   4.712  10.392  0.00  0.00    +0.000 C 
BRANCH   9  10
ATOM     10  C   UNL     1      45.035   4.709  11.226  0.00  0.00    +0.000 C 
BRANCH  10  11
ATOM     11  C   UNL     1      45.495   6.108  11.547  0.00  0.00    +0.000 A 
ATOM     12  C   UNL     1      46.807   6.377  11.942  0.00  0.00    +0.000 A 
ATOM     13  C   UNL     1      47.180   7.683  12.254  0.00  0.00    +0.000 A 
ATOM     14  C   UNL     1      46.221   8.679  12.165  0.00  0.00    +0.000 A 
ATOM     15  N   UNL     1      44.944   8.457  11.793  0.00  0.00    +0.000 NA
ATOM     16  C   UNL     1      44.610   7.182  11.493  0.00  0.00    +0.000 A 
ENDBRANCH  10  11
ENDBRANCH   9  10
ENDBRANCH   7   9
ENDBRANCH   5   7
BRANCH   1  17
ATOM     17  C   UNL     1      47.920   2.981   6.285  0.00  0.00    +0.000 C 
BRANCH  17  18
ATOM     18  N   UNL     1      48.510   1.752   5.763  0.00  0.00    +0.000 NA
ATOM     19  H   UNL     1      47.797   1.230   5.258  0.00  0.00    +0.000 HD
ATOM     20  H   UNL     1      48.791   1.168   6.550  0.00  0.00    +0.000 HD
ENDBRANCH  17  18
ENDBRANCH   1  17
TORSDOF 6
ENDMDL
MODEL 6
REMARK VINA RESULT:    -6.217      2.170      6.360
REMARK INTER + INTRA:          -8.801
REMARK INTER:                  -8.351
REMARK INTRA:                  -0.450
REMARK UNBOUND:                -0.585
REMARK  Name = 
REMARK  6 active torsions:
REMARK  status: ('A' for Active; 'I' for Inactive)
REMARK    1  A    between atoms: N_1  and  C_2
REMARK    2  A    between atoms: C_2  and  C_3
REMARK    3  A    between atoms: C_7  and  N_8
REMARK    4  A    between atoms: N_8  and  C_9
REMARK    5  A    between atoms: C_9  and  C_10
REMARK    6  A    between atoms: C_10  and  C_11
REMARK                            x       y       z     vdW  Elec       q    Type
REMARK                         _______ _______ _______ _____ _____    ______ ____
ROOT
ATOM      1  C   UNL     1      45.194   7.438  11.972  0.00  0.00    +0.000 A 
ATOM      2  C   UNL     1      46.302   7.106  12.758  0.00  0.00    +0.000 A 
ATOM      3  C   UNL     1      46.584   5.773  13.038  0.00  0.00    +0.000 A 
ATOM      4  C   UNL     1      45.751   4.760  12.554  0.00  0.00    +0.000 A 
ATOM      5  C   UNL     1      44.606   5.056  11.807  0.00  0.00    +0.000 A 
ATOM      6  C   UNL     1      44.372   6.403  11.486  0.00  0.00    +0.000 A 
ENDROOT
BRANCH   5   7
ATOM      7  N   UNL     1      43.767   4.069  11.256  0.00  0.00    +0.000 N 
ATOM      8  H   UNL     1      43.180   3.662  11.983  0.00  0.00    +0.000 HD
BRANCH   7   9
ATOM      9  C   UNL     1      44.386   3.054  10.397  0.00  0.00    +0.000 C 
BRANCH   9  10
ATOM     10  C   UNL     1      44.485   3.560   8.953  0.00  0.00    +0.000 C 
BRANCH  10  11
ATOM     11  C   UNL     1      45.613   2.897   8.206  0.00  0.00    +0.000 A 
ATOM     12  C   UNL     1      45.863   1.528   8.317  0.00  0.00    +0.000 A 
ATOM     13  C   UNL     1      46.935   0.964   7.628  0.00  0.00    +0.000 A 
ATOM     14  C   UNL     1      47.726   1.794   6.851  0.00  0.00    +0.000 A 
ATOM     15  N   UNL     1      47.520   3.120   6.723  0.00  0.00    +0.000 NA
ATOM     16  C   UNL     1      46.472   3.641   7.400  0.00  0.00    +0.000 A 
ENDBRANCH  10  11
ENDBRANCH   9  10
ENDBRANCH   7   9
ENDBRANCH   5   7
BRANCH   1  17
ATOM     17  C   UNL     1      44.905   8.878  11.630  0.00  0.00    +0.000 C 
BRANCH  17  18
ATOM     18  N   UNL     1      44.654   9.674  12.828  0.00  0.00    +0.000 NA
ATOM     19  H   UNL     1      45.113  10.577  12.727  0.00  0.00    +0.000 HD
ATOM     20  H   UNL     1      45.097   9.214  13.622  0.00  0.00    +0.000 HD
ENDBRANCH  17  18
ENDBRANCH   1  17
TORSDOF 6
ENDMDL
MODEL 7
REMARK VINA RESULT:    -6.083      2.334      6.362
REMARK INTER + INTRA:          -8.625
REMARK INTER:                  -8.005
REMARK INTRA:                  -0.620
REMARK UNBOUND:                -0.585
REMARK  Name = 
REMARK  6 active torsions:
REMARK  status: ('A' for Active; 'I' for Inactive)
REMARK    1  A    between atoms: N_1  and  C_2
REMARK    2  A    between atoms: C_2  and  C_3
REMARK    3  A    between atoms: C_7  and  N_8
REMARK    4  A    between atoms: N_8  and  C_9
REMARK    5  A    between atoms: C_9  and  C_10
REMARK    6  A    between atoms: C_10  and  C_11
REMARK                            x       y       z     vdW  Elec       q    Type
REMARK                         _______ _______ _______ _____ _____    ______ ____
ROOT
ATOM      1  C   UNL     1      45.655   8.017  12.029  0.00  0.00    +0.000 A 
ATOM      2  C   UNL     1      47.048   8.032  12.141  0.00  0.00    +0.000 A 
ATOM      3  C   UNL     1      47.728   6.890  12.551  0.00  0.00    +0.000 A 
ATOM      4  C   UNL     1      47.021   5.727  12.872  0.00  0.00    +0.000 A 
ATOM      5  C   UNL     1      45.623   5.689  12.820  0.00  0.00    +0.000 A 
ATOM      6  C   UNL     1      44.961   6.834  12.349  0.00  0.00    +0.000 A 
ENDROOT
BRANCH   5   7
ATOM      7  N   UNL     1      44.873   4.528  13.085  0.00  0.00    +0.000 N 
ATOM      8  H   UNL     1      44.921   4.298  14.077  0.00  0.00    +0.000 HD
BRANCH   7   9
ATOM      9  C   UNL     1      45.098   3.363  12.224  0.00  0.00    +0.000 C 
BRANCH   9  10
ATOM     10  C   UNL     1      44.170   3.408  11.004  0.00  0.00    +0.000 C 
BRANCH  10  11
ATOM     11  C   UNL     1      44.945   3.400   9.712  0.00  0.00    +0.000 A 
ATOM     12  C   UNL     1      45.319   2.210   9.086  0.00  0.00    +0.000 A 
ATOM     13  C   UNL     1      46.060   2.253   7.906  0.00  0.00    +0.000 A 
ATOM     14  C   UNL     1      46.407   3.492   7.394  0.00  0.00    +0.000 A 
ATOM     15  N   UNL     1      46.070   4.662   7.972  0.00  0.00    +0.000 NA
ATOM     16  C   UNL     1      45.350   4.592   9.114  0.00  0.00    +0.000 A 
ENDBRANCH  10  11
ENDBRANCH   9  10
ENDBRANCH   7   9
ENDBRANCH   5   7
BRANCH   1  17
ATOM     17  C   UNL     1      44.915   9.239  11.547  0.00  0.00    +0.000 C 
BRANCH  17  18
ATOM     18  N   UNL     1      44.312   9.974  12.655  0.00  0.00    +0.000 NA
ATOM     19  H   UNL     1      44.513   9.486  13.525  0.00  0.00    +0.000 HD
ATOM     20  H   UNL     1      43.299   9.957  12.542  0.00  0.00    +0.000 HD
ENDBRANCH  17  18
ENDBRANCH   1  17
TORSDOF 6
ENDMDL
MODEL 8
REMARK VINA RESULT:    -5.203      3.748      7.622
REMARK INTER + INTRA:          -7.462
REMARK INTER:                  -7.035
REMARK INTRA:                  -0.427
REMARK UNBOUND:                -0.585
REMARK  Name = 
REMARK  6 active torsions:
REMARK  status: ('A' for Active; 'I' for Inactive)
REMARK    1  A    between atoms: N_1  and  C_2
REMARK    2  A    between atoms: C_2  and  C_3
REMARK    3  A    between atoms: C_7  and  N_8
REMARK    4  A    between atoms: N_8  and  C_9
REMARK    5  A    between atoms: C_9  and  C_10
REMARK    6  A    between atoms: C_10  and  C_11
REMARK                            x       y       z     vdW  Elec       q    Type
REMARK                         _______ _______ _______ _____ _____    ______ ____
ROOT
ATOM      1  C   UNL     1      48.400   4.279  16.805  0.00  0.00    +0.000 A 
ATOM      2  C   UNL     1      49.472   4.934  17.418  0.00  0.00    +0.000 A 
ATOM      3  C   UNL     1      49.880   6.184  16.961  0.00  0.00    +0.000 A 
ATOM      4  C   UNL     1      49.233   6.782  15.875  0.00  0.00    +0.000 A 
ATOM      5  C   UNL     1      48.189   6.134  15.205  0.00  0.00    +0.000 A 
ATOM      6  C   UNL     1      47.756   4.901  15.718  0.00  0.00    +0.000 A 
ENDROOT
BRANCH   5   7
ATOM      7  N   UNL     1      47.476   6.719  14.141  0.00  0.00    +0.000 N 
ATOM      8  H   UNL     1      46.570   7.052  14.467  0.00  0.00    +0.000 HD
BRANCH   7   9
ATOM      9  C   UNL     1      47.382   5.961  12.889  0.00  0.00    +0.000 C 
BRANCH   9  10
ATOM     10  C   UNL     1      46.110   6.344  12.123  0.00  0.00    +0.000 C 
BRANCH  10  11
ATOM     11  C   UNL     1      45.178   5.171  11.967  0.00  0.00    +0.000 A 
ATOM     12  C   UNL     1      44.778   4.713  10.710  0.00  0.00    +0.000 A 
ATOM     13  C   UNL     1      43.892   3.641  10.616  0.00  0.00    +0.000 A 
ATOM     14  C   UNL     1      43.431   3.065  11.788  0.00  0.00    +0.000 A 
ATOM     15  N   UNL     1      43.789   3.483  13.019  0.00  0.00    +0.000 NA
ATOM     16  C   UNL     1      44.651   4.522  13.081  0.00  0.00    +0.000 A 
ENDBRANCH  10  11
ENDBRANCH   9  10
ENDBRANCH   7   9
ENDBRANCH   5   7
BRANCH   1  17
ATOM     17  C   UNL     1      47.927   2.944  17.320  0.00  0.00    +0.000 C 
BRANCH  17  18
ATOM     18  N   UNL     1      46.503   2.964  17.640  0.00  0.00    +0.000 NA
ATOM     19  H   UNL     1      46.374   3.409  18.546  0.00  0.00    +0.000 HD
ATOM     20  H   UNL     1      46.180   2.002  17.743  0.00  0.00    +0.000 HD
ENDBRANCH  17  18
ENDBRANCH   1  17
TORSDOF 6
ENDMDL
MODEL 9
REMARK VINA RESULT:    -5.034      2.456      4.129
REMARK INTER + INTRA:          -7.238
REMARK INTER:                  -6.836
REMARK INTRA:                  -0.402
REMARK UNBOUND:                -0.585
REMARK  Name = 
REMARK  6 active torsions:
REMARK  status: ('A' for Active; 'I' for Inactive)
REMARK    1  A    between atoms: N_1  and  C_2
REMARK    2  A    between atoms: C_2  and  C_3
REMARK    3  A    between atoms: C_7  and  N_8
REMARK    4  A    between atoms: N_8  and  C_9
REMARK    5  A    between atoms: C_9  and  C_10
REMARK    6  A    between atoms: C_10  and  C_11
REMARK                            x       y       z     vdW  Elec       q    Type
REMARK                         _______ _______ _______ _____ _____    ______ ____
ROOT
ATOM      1  C   UNL     1      44.823   4.257  10.207  0.00  0.00    +0.000 A 
ATOM      2  C   UNL     1      44.016   3.226  10.699  0.00  0.00    +0.000 A 
ATOM      3  C   UNL     1      43.607   3.235  12.029  0.00  0.00    +0.000 A 
ATOM      4  C   UNL     1      44.016   4.262  12.885  0.00  0.00    +0.000 A 
ATOM      5  C   UNL     1      44.864   5.283  12.441  0.00  0.00    +0.000 A 
ATOM      6  C   UNL     1      45.218   5.288  11.083  0.00  0.00    +0.000 A 
ENDROOT
BRANCH   5   7
ATOM      7  N   UNL     1      45.259   6.363  13.252  0.00  0.00    +0.000 N 
ATOM      8  H   UNL     1      44.561   7.105  13.213  0.00  0.00    +0.000 HD
BRANCH   7   9
ATOM      9  C   UNL     1      46.627   6.867  13.094  0.00  0.00    +0.000 C 
BRANCH   9  10
ATOM     10  C   UNL     1      47.645   5.752  13.362  0.00  0.00    +0.000 C 
BRANCH  10  11
ATOM     11  C   UNL     1      47.678   5.364  14.817  0.00  0.00    +0.000 A 
ATOM     12  C   UNL     1      48.393   6.106  15.760  0.00  0.00    +0.000 A 
ATOM     13  C   UNL     1      48.417   5.692  17.090  0.00  0.00    +0.000 A 
ATOM     14  C   UNL     1      47.725   4.542  17.433  0.00  0.00    +0.000 A 
ATOM     15  N   UNL     1      47.029   3.797  16.551  0.00  0.00    +0.000 NA
ATOM     16  C   UNL     1      47.021   4.222  15.268  0.00  0.00    +0.000 A 
ENDBRANCH  10  11
ENDBRANCH   9  10
ENDBRANCH   7   9
ENDBRANCH   5   7
BRANCH   1  17
ATOM     17  C   UNL     1      45.237   4.276   8.758  0.00  0.00    +0.000 C 
BRANCH  17  18
ATOM     18  N   UNL     1      44.302   3.530   7.921  0.00  0.00    +0.000 NA
ATOM     19  H   UNL     1      43.758   4.187   7.365  0.00  0.00    +0.000 HD
ATOM     20  H   UNL     1      43.638   3.048   8.527  0.00  0.00    +0.000 HD
ENDBRANCH  17  18
ENDBRANCH   1  17
TORSDOF 6
ENDMDL
