MODEL 1
REMARK VINA RESULT:    -9.120      0.000      0.000
REMARK INTER + INTRA:         -14.348
REMARK INTER:                 -13.118
REMARK INTRA:                  -1.229
REMARK UNBOUND:                -1.229
REMARK  Name = 
REMARK  9 active torsions:
REMARK  status: ('A' for Active; 'I' for Inactive)
REMARK    1  A    between atoms: C_1  and  O_2
REMARK    2  A    between atoms: O_2  and  C_3
REMARK    3  A    between atoms: C_5  and  C_6
REMARK    4  A    between atoms: C_6  and  O_7
REMARK    5  A    between atoms: C_6  and  C_8
REMARK    6  A    between atoms: C_8  and  O_9
REMARK    7  A    between atoms: O_9  and  C_10
REMARK    8  A    between atoms: C_13  and  C_14
REMARK    9  A    between atoms: C_20  and  C_21
REMARK                            x       y       z     vdW  Elec       q    Type
REMARK                         _______ _______ _______ _____ _____    ______ ____
ROOT
ATOM      1  C   UNL     1      43.441   4.792  12.439  0.00  0.00    +0.000 C 
ENDROOT
BRANCH   1   4
ATOM      2  C   UNL     1      46.921   4.158  13.853  0.00  0.00    +0.000 A 
ATOM      3  C   UNL     1      45.580   3.962  13.566  0.00  0.00    +0.000 A 
ATOM      4  C   UNL     1      44.909   4.919  12.795  0.00  0.00    +0.000 A 
ATOM      5  C   UNL     1      45.634   6.038  12.369  0.00  0.00    +0.000 A 
ATOM      6  C   UNL     1      46.978   6.175  12.721  0.00  0.00    +0.000 A 
ATOM      7  N   UNL     1      47.621   5.231  13.445  0.00  0.00    +0.000 NA
BRANCH   6   8
ATOM      8  C   UNL     1      47.789   7.358  12.377  0.00  0.00    +0.000 A 
ATOM      9  C   UNL     1      49.177   7.272  12.169  0.00  0.00    +0.000 A 
ATOM     10  C   UNL     1      49.927   8.394  11.805  0.00  0.00    +0.000 A 
ATOM     11  C   UNL     1      49.303   9.626  11.638  0.00  0.00    +0.000 A 
ATOM     12  C   UNL     1      47.930   9.741  11.833  0.00  0.00    +0.000 A 
ATOM     13  C   UNL     1      47.184   8.617  12.197  0.00  0.00    +0.000 A 
ENDBRANCH   6   8
BRANCH   2  15
ATOM     14  C   UNL     1      47.602   3.563  16.007  0.00  0.00    +0.000 C 
ATOM     15  O   UNL     1      47.545   3.199  14.628  0.00  0.00    +0.000 OA
ENDBRANCH   2  15
ENDBRANCH   1   4
BRANCH   1  16
ATOM     16  O   UNL     1      42.887   6.104  12.324  0.00  0.00    +0.000 OA
ATOM     17  H   UNL     1      43.130   6.605  13.118  0.00  0.00    +0.000 HD
ENDBRANCH   1  16
BRANCH   1  18
ATOM     18  C   UNL     1      43.235   3.964  11.160  0.00  0.00    +0.000 C 
BRANCH  18  19
ATOM     19  O   UNL     1      43.641   4.700   9.995  0.00  0.00    +0.000 OA
BRANCH  19  20
ATOM     20  C   UNL     1      44.574   4.000   9.255  0.00  0.00    +0.000 A 
ATOM     21  C   UNL     1      44.667   2.632   9.456  0.00  0.00    +0.000 A 
ATOM     22  C   UNL     1      45.603   1.915   8.704  0.00  0.00    +0.000 A 
ATOM     23  C   UNL     1      46.413   2.582   7.780  0.00  0.00    +0.000 A 
ATOM     24  C   UNL     1      46.245   3.953   7.663  0.00  0.00    +0.000 A 
ATOM     25  N   UNL     1      45.348   4.673   8.375  0.00  0.00    +0.000 NA
BRANCH  23  26
ATOM     26  C   UNL     1      47.403   1.820   6.977  0.00  0.00    +0.000 C 
ATOM     27  N   UNL     1      48.476   2.480   6.444  0.00  0.00    +0.000 N 
ATOM     28  O   UNL     1      47.265   0.619   6.783  0.00  0.00    +0.000 OA
ATOM     29  H   UNL     1      48.679   3.465   6.526  0.00  0.00    +0.000 HD
ATOM     30  H   UNL     1      49.121   1.924   5.896  0.00  0.00    +0.000 HD
ENDBRANCH  23  26
ENDBRANCH  19  20
ENDBRANCH  18  19
ENDBRANCH   1  18
TORSDOF 8
ENDMDL
MODEL 2
REMARK VINA RESULT:    -8.236      1.663      3.936
REMARK INTER + INTRA:         -13.076
REMARK INTER:                 -12.271
REMARK INTRA:                  -0.805
REMARK UNBOUND:                -1.229
REMARK  Name = 
REMARK  9 active torsions:
REMARK  status: ('A' for Active; 'I' for Inactive)
REMARK    1  A    between atoms: C_1  and  O_2
REMARK    2  A    between atoms: O_2  and  C_3
REMARK    3  A    between atoms: C_5  and  C_6
REMARK    4  A    between atoms: C_6  and  O_7
REMARK    5  A    between atoms: C_6  and  C_8
REMARK    6  A    between atoms: C_8  and  O_9
REMARK    7  A    between atoms: O_9  and  C_10
REMARK    8  A    between atoms: C_13  and  C_14
REMARK    9  A    between atoms: C_20  and  C_21
REMARK                            x       y       z     vdW  Elec       q    Type
REMARK                         _______ _______ _______ _____ _____    ______ ____
ROOT
ATOM      1  C   UNL     1      44.974   4.205  12.025  0.00  0.00    +0.000 C 
ENDROOT
BRANCH   1   4
ATOM      2  C   UNL     1      47.803   6.552  13.027  0.00  0.00    +0.000 A 
ATOM      3  C   UNL     1      46.815   5.964  12.253  0.00  0.00    +0.000 A 
ATOM      4  C   UNL     1      46.067   4.913  12.800  0.00  0.00    +0.000 A 
ATOM      5  C   UNL     1      46.376   4.501  14.102  0.00  0.00    +0.000 A 
ATOM      6  C   UNL     1      47.404   5.130  14.808  0.00  0.00    +0.000 A 
ATOM      7  N   UNL     1      48.102   6.160  14.277  0.00  0.00    +0.000 NA
BRANCH   6   8
ATOM      8  C   UNL     1      47.841   4.706  16.152  0.00  0.00    +0.000 A 
ATOM      9  C   UNL     1      47.542   3.430  16.660  0.00  0.00    +0.000 A 
ATOM     10  C   UNL     1      47.997   3.027  17.920  0.00  0.00    +0.000 A 
ATOM     11  C   UNL     1      48.761   3.893  18.696  0.00  0.00    +0.000 A 
ATOM     12  C   UNL     1      49.075   5.161  18.216  0.00  0.00    +0.000 A 
ATOM     13  C   UNL     1      48.619   5.559  16.957  0.00  0.00    +0.000 A 
ENDBRANCH   6   8
BRANCH   2  15
ATOM     14  C   UNL     1      47.742   8.749  12.236  0.00  0.00    +0.000 C 
ATOM     15  O   UNL     1      48.527   7.576  12.448  0.00  0.00    +0.000 OA
ENDBRANCH   2  15
ENDBRANCH   1   4
BRANCH   1  16
ATOM     16  O   UNL     1      44.093   3.574  12.957  0.00  0.00    +0.000 OA
ATOM     17  H   UNL     1      44.521   3.581  13.827  0.00  0.00    +0.000 HD
ENDBRANCH   1  16
BRANCH   1  18
ATOM     18  C   UNL     1      44.228   5.168  11.087  0.00  0.00    +0.000 C 
BRANCH  18  19
ATOM     19  O   UNL     1      43.667   4.467   9.964  0.00  0.00    +0.000 OA
BRANCH  19  20
ATOM     20  C   UNL     1      44.650   3.856   9.209  0.00  0.00    +0.000 A 
ATOM     21  C   UNL     1      44.748   2.475   9.268  0.00  0.00    +0.000 A 
ATOM     22  C   UNL     1      45.735   1.848   8.500  0.00  0.00    +0.000 A 
ATOM     23  C   UNL     1      46.587   2.616   7.701  0.00  0.00    +0.000 A 
ATOM     24  C   UNL     1      46.408   3.990   7.719  0.00  0.00    +0.000 A 
ATOM     25  N   UNL     1      45.463   4.624   8.451  0.00  0.00    +0.000 NA
BRANCH  23  26
ATOM     26  C   UNL     1      47.630   1.950   6.879  0.00  0.00    +0.000 C 
ATOM     27  N   UNL     1      48.615   2.711   6.311  0.00  0.00    +0.000 N 
ATOM     28  O   UNL     1      47.614   0.739   6.702  0.00  0.00    +0.000 OA
ATOM     29  H   UNL     1      48.715   3.712   6.377  0.00  0.00    +0.000 HD
ATOM     30  H   UNL     1      49.300   2.218   5.752  0.00  0.00    +0.000 HD
ENDBRANCH  23  26
ENDBRANCH  19  20
ENDBRANCH  18  19
ENDBRANCH   1  18
TORSDOF 8
ENDMDL
MODEL 3
REMARK VINA RESULT:    -7.706      2.570      6.831
REMARK INTER + INTRA:         -12.314
REMARK INTER:                 -11.098
REMARK INTRA:                  -1.216
REMARK UNBOUND:                -1.229
REMARK  Name = 
REMARK  9 active torsions:
REMARK  status: ('A' for Active; 'I' for Inactive)
REMARK    1  A    between atoms: C_1  and  O_2
REMARK    2  A    between atoms: O_2  and  C_3
REMARK    3  A    between atoms: C_5  and  C_6
REMARK    4  A    between atoms: C_6  and  O_7
REMARK    5  A    between atoms: C_6  and  C_8
REMARK    6  A    between atoms: C_8  and  O_9
REMARK    7  A    between atoms: O_9  and  C_10
REMARK    8  A    between atoms: C_13  and  C_14
REMARK    9  A    between atoms: C_20  and  C_21
REMARK                            x       y       z     vdW  Elec       q    Type
REMARK                         _______ _______ _______ _____ _____    ______ ____
ROOT
ATOM      1  C   UNL     1      45.498   7.157  10.991  0.00  0.00    +0.000 C 
ENDROOT
BRANCH   1   4
ATOM      2  C   UNL     1      43.914   3.695  10.847  0.00  0.00    +0.000 A 
ATOM      3  C   UNL     1      44.196   4.977  11.290  0.00  0.00    +0.000 A 
ATOM      4  C   UNL     1      45.122   5.748  10.575  0.00  0.00    +0.000 A 
ATOM      5  C   UNL     1      45.727   5.168   9.455  0.00  0.00    +0.000 A 
ATOM      6  C   UNL     1      45.407   3.859   9.087  0.00  0.00    +0.000 A 
ATOM      7  N   UNL     1      44.493   3.134   9.772  0.00  0.00    +0.000 NA
BRANCH   6   8
ATOM      8  C   UNL     1      46.055   3.150   7.968  0.00  0.00    +0.000 A 
ATOM      9  C   UNL     1      46.449   3.818   6.795  0.00  0.00    +0.000 A 
ATOM     10  C   UNL     1      47.099   3.142   5.759  0.00  0.00    +0.000 A 
ATOM     11  C   UNL     1      47.370   1.782   5.875  0.00  0.00    +0.000 A 
ATOM     12  C   UNL     1      46.996   1.096   7.026  0.00  0.00    +0.000 A 
ATOM     13  C   UNL     1      46.347   1.776   8.060  0.00  0.00    +0.000 A 
ENDBRANCH   6   8
BRANCH   2  15
ATOM     14  C   UNL     1      43.311   2.960  12.981  0.00  0.00    +0.000 C 
ATOM     15  O   UNL     1      43.007   2.961  11.586  0.00  0.00    +0.000 OA
ENDBRANCH   2  15
ENDBRANCH   1   4
BRANCH   1  16
ATOM     16  O   UNL     1      44.342   7.989  10.874  0.00  0.00    +0.000 OA
ATOM     17  H   UNL     1      44.541   8.841  11.294  0.00  0.00    +0.000 HD
ENDBRANCH   1  16
BRANCH   1  18
ATOM     18  C   UNL     1      46.094   7.191  12.408  0.00  0.00    +0.000 C 
BRANCH  18  19
ATOM     19  O   UNL     1      47.347   6.489  12.461  0.00  0.00    +0.000 OA
BRANCH  19  20
ATOM     20  C   UNL     1      47.427   5.685  13.581  0.00  0.00    +0.000 A 
ATOM     21  C   UNL     1      46.831   4.435  13.526  0.00  0.00    +0.000 A 
ATOM     22  C   UNL     1      46.916   3.611  14.653  0.00  0.00    +0.000 A 
ATOM     23  C   UNL     1      47.590   4.058  15.793  0.00  0.00    +0.000 A 
ATOM     24  C   UNL     1      48.145   5.328  15.746  0.00  0.00    +0.000 A 
ATOM     25  N   UNL     1      48.079   6.147  14.671  0.00  0.00    +0.000 NA
BRANCH  23  26
ATOM     26  C   UNL     1      47.686   3.181  16.988  0.00  0.00    +0.000 C 
ATOM     27  N   UNL     1      48.922   2.841  17.466  0.00  0.00    +0.000 N 
ATOM     28  O   UNL     1      46.679   2.759  17.541  0.00  0.00    +0.000 OA
ATOM     29  H   UNL     1      49.813   3.117  17.081  0.00  0.00    +0.000 HD
ATOM     30  H   UNL     1      48.941   2.235  18.276  0.00  0.00    +0.000 HD
ENDBRANCH  23  26
ENDBRANCH  19  20
ENDBRANCH  18  19
ENDBRANCH   1  18
TORSDOF 8
ENDMDL
MODEL 4
REMARK VINA RESULT:    -6.792      4.322      7.417
REMARK INTER + INTRA:         -10.999
REMARK INTER:                 -10.251
REMARK INTRA:                  -0.748
REMARK UNBOUND:                -1.229
REMARK  Name = 
REMARK  9 active torsions:
REMARK  status: ('A' for Active; 'I' for Inactive)
REMARK    1  A    between atoms: C_1  and  O_2
REMARK    2  A    between atoms: O_2  and  C_3
REMARK    3  A    between atoms: C_5  and  C_6
REMARK    4  A    between atoms: C_6  and  O_7
REMARK    5  A    between atoms: C_6  and  C_8
REMARK    6  A    between atoms: C_8  and  O_9
REMARK    7  A    between atoms: O_9  and  C_10
REMARK    8  A    between atoms: C_13  and  C_14
REMARK    9  A    between atoms: C_20  and  C_21
REMARK                            x       y       z     vdW  Elec       q    Type
REMARK                         _______ _______ _______ _____ _____    ______ ____
ROOT
ATOM      1  C   UNL     1      47.724   3.124  16.808  0.00  0.00    +0.000 C 
ENDROOT
BRANCH   1   4
ATOM      2  C   UNL     1      50.305   4.930  18.951  0.00  0.00    +0.000 A 
ATOM      3  C   UNL     1      49.096   4.644  18.339  0.00  0.00    +0.000 A 
ATOM      4  C   UNL     1      49.004   3.509  17.524  0.00  0.00    +0.000 A 
ATOM      5  C   UNL     1      50.156   2.730  17.358  0.00  0.00    +0.000 A 
ATOM      6  C   UNL     1      51.345   3.099  17.990  0.00  0.00    +0.000 A 
ATOM      7  N   UNL     1      51.413   4.185  18.795  0.00  0.00    +0.000 NA
BRANCH   6   8
ATOM      8  C   UNL     1      52.618   2.378  17.806  0.00  0.00    +0.000 A 
ATOM      9  C   UNL     1      52.656   1.000  17.528  0.00  0.00    +0.000 A 
ATOM     10  C   UNL     1      53.869   0.337  17.316  0.00  0.00    +0.000 A 
ATOM     11  C   UNL     1      55.068   1.039  17.376  0.00  0.00    +0.000 A 
ATOM     12  C   UNL     1      55.061   2.404  17.645  0.00  0.00    +0.000 A 
ATOM     13  C   UNL     1      53.847   3.063  17.856  0.00  0.00    +0.000 A 
ENDBRANCH   6   8
BRANCH   2  15
ATOM     14  C   UNL     1      49.064   6.547  20.091  0.00  0.00    +0.000 C 
ATOM     15  O   UNL     1      50.360   6.065  19.736  0.00  0.00    +0.000 OA
ENDBRANCH   2  15
ENDBRANCH   1   4
BRANCH   1  16
ATOM     16  O   UNL     1      46.710   2.890  17.787  0.00  0.00    +0.000 OA
ATOM     17  H   UNL     1      46.804   3.559  18.484  0.00  0.00    +0.000 HD
ENDBRANCH   1  16
BRANCH   1  18
ATOM     18  C   UNL     1      47.303   4.190  15.784  0.00  0.00    +0.000 C 
BRANCH  18  19
ATOM     19  O   UNL     1      47.499   3.722  14.439  0.00  0.00    +0.000 OA
BRANCH  19  20
ATOM     20  C   UNL     1      46.449   4.090  13.619  0.00  0.00    +0.000 A 
ATOM     21  C   UNL     1      46.093   5.428  13.582  0.00  0.00    +0.000 A 
ATOM     22  C   UNL     1      45.037   5.810  12.747  0.00  0.00    +0.000 A 
ATOM     23  C   UNL     1      44.374   4.848  11.980  0.00  0.00    +0.000 A 
ATOM     24  C   UNL     1      44.805   3.535  12.097  0.00  0.00    +0.000 A 
ATOM     25  N   UNL     1      45.822   3.137  12.895  0.00  0.00    +0.000 NA
BRANCH  23  26
ATOM     26  C   UNL     1      43.257   5.253  11.089  0.00  0.00    +0.000 C 
ATOM     27  N   UNL     1      42.275   6.068  11.582  0.00  0.00    +0.000 N 
ATOM     28  O   UNL     1      43.204   4.862   9.930  0.00  0.00    +0.000 OA
ATOM     29  H   UNL     1      42.211   6.434  12.519  0.00  0.00    +0.000 HD
ATOM     30  H   UNL     1      41.529   6.312  10.943  0.00  0.00    +0.000 HD
ENDBRANCH  23  26
ENDBRANCH  19  20
ENDBRANCH  18  19
ENDBRANCH   1  18
TORSDOF 8
ENDMDL
MODEL 5
REMARK VINA RESULT:    -6.713      4.612      7.043
REMARK INTER + INTRA:         -10.886
REMARK INTER:                 -10.091
REMARK INTRA:                  -0.795
REMARK UNBOUND:                -1.229
REMARK  Name = 
REMARK  9 active torsions:
REMARK  status: ('A' for Active; 'I' for Inactive)
REMARK    1  A    between atoms: C_1  and  O_2
REMARK    2  A    between atoms: O_2  and  C_3
REMARK    3  A    between atoms: C_5  and  C_6
REMARK    4  A    between atoms: C_6  and  O_7
REMARK    5  A    between atoms: C_6  and  C_8
REMARK    6  A    between atoms: C_8  and  O_9
REMARK    7  A    between atoms: O_9  and  C_10
REMARK    8  A    between atoms: C_13  and  C_14
REMARK    9  A    between atoms: C_20  and  C_21
REMARK                            x       y       z     vdW  Elec       q    Type
REMARK                         _______ _______ _______ _____ _____    ______ ____
ROOT
ATOM      1  C   UNL     1      47.767   3.621  17.115  0.00  0.00    +0.000 C 
ENDROOT
BRANCH   1   4
ATOM      2  C   UNL     1      50.218   5.022  19.672  0.00  0.00    +0.000 A 
ATOM      3  C   UNL     1      49.676   4.170  18.725  0.00  0.00    +0.000 A 
ATOM      4  C   UNL     1      48.440   4.498  18.152  0.00  0.00    +0.000 A 
ATOM      5  C   UNL     1      47.809   5.669  18.588  0.00  0.00    +0.000 A 
ATOM      6  C   UNL     1      48.411   6.464  19.567  0.00  0.00    +0.000 A 
ATOM      7  N   UNL     1      49.616   6.149  20.093  0.00  0.00    +0.000 NA
BRANCH   6   8
ATOM      8  C   UNL     1      47.778   7.670  20.133  0.00  0.00    +0.000 A 
ATOM      9  C   UNL     1      47.390   8.753  19.324  0.00  0.00    +0.000 A 
ATOM     10  C   UNL     1      46.755   9.873  19.869  0.00  0.00    +0.000 A 
ATOM     11  C   UNL     1      46.492   9.931  21.235  0.00  0.00    +0.000 A 
ATOM     12  C   UNL     1      46.861   8.872  22.058  0.00  0.00    +0.000 A 
ATOM     13  C   UNL     1      47.496   7.755  21.509  0.00  0.00    +0.000 A 
ENDBRANCH   6   8
BRANCH   2  15
ATOM     14  C   UNL     1      51.454   4.809  21.643  0.00  0.00    +0.000 C 
ATOM     15  O   UNL     1      51.431   4.659  20.224  0.00  0.00    +0.000 OA
ENDBRANCH   2  15
ENDBRANCH   1   4
BRANCH   1  16
ATOM     16  O   UNL     1      46.518   3.169  17.644  0.00  0.00    +0.000 OA
ATOM     17  H   UNL     1      46.008   2.777  16.918  0.00  0.00    +0.000 HD
ENDBRANCH   1  16
BRANCH   1  18
ATOM     18  C   UNL     1      47.594   4.355  15.775  0.00  0.00    +0.000 C 
BRANCH  18  19
ATOM     19  O   UNL     1      47.360   3.427  14.702  0.00  0.00    +0.000 OA
BRANCH  19  20
ATOM     20  C   UNL     1      46.445   3.926  13.795  0.00  0.00    +0.000 A 
ATOM     21  C   UNL     1      46.182   5.286  13.821  0.00  0.00    +0.000 A 
ATOM     22  C   UNL     1      45.264   5.800  12.899  0.00  0.00    +0.000 A 
ATOM     23  C   UNL     1      44.641   4.944  11.986  0.00  0.00    +0.000 A 
ATOM     24  C   UNL     1      44.971   3.599  12.050  0.00  0.00    +0.000 A 
ATOM     25  N   UNL     1      45.855   3.074  12.929  0.00  0.00    +0.000 NA
BRANCH  23  26
ATOM     26  C   UNL     1      43.671   5.490  11.002  0.00  0.00    +0.000 C 
ATOM     27  N   UNL     1      43.188   6.758  11.177  0.00  0.00    +0.000 N 
ATOM     28  O   UNL     1      43.297   4.819  10.049  0.00  0.00    +0.000 OA
ATOM     29  H   UNL     1      43.414   7.388  11.931  0.00  0.00    +0.000 HD
ATOM     30  H   UNL     1      42.523   7.086  10.489  0.00  0.00    +0.000 HD
ENDBRANCH  23  26
ENDBRANCH  19  20
ENDBRANCH  18  19
ENDBRANCH   1  18
TORSDOF 8
ENDMDL
MODEL 6
REMARK VINA RESULT:    -6.668      3.012      7.060
REMARK INTER + INTRA:         -10.821
REMARK INTER:                  -9.875
REMARK INTRA:                  -0.947
REMARK UNBOUND:                -1.229
REMARK  Name = 
REMARK  9 active torsions:
REMARK  status: ('A' for Active; 'I' for Inactive)
REMARK    1  A    between atoms: C_1  and  O_2
REMARK    2  A    between atoms: O_2  and  C_3
REMARK    3  A    between atoms: C_5  and  C_6
REMARK    4  A    between atoms: C_6  and  O_7
REMARK    5  A    between atoms: C_6  and  C_8
REMARK    6  A    between atoms: C_8  and  O_9
REMARK    7  A    between atoms: O_9  and  C_10
REMARK    8  A    between atoms: C_13  and  C_14
REMARK    9  A    between atoms: C_20  and  C_21
REMARK                            x       y       z     vdW  Elec       q    Type
REMARK                         _______ _______ _______ _____ _____    ______ ____
ROOT
ATOM      1  C   UNL     1      46.356   4.182  14.209  0.00  0.00    +0.000 C 
ENDROOT
BRANCH   1   4
ATOM      2  C   UNL     1      44.518   5.103  11.002  0.00  0.00    +0.000 A 
ATOM      3  C   UNL     1      45.049   4.323  12.016  0.00  0.00    +0.000 A 
ATOM      4  C   UNL     1      45.734   4.954  13.062  0.00  0.00    +0.000 A 
ATOM      5  C   UNL     1      45.860   6.348  13.013  0.00  0.00    +0.000 A 
ATOM      6  C   UNL     1      45.317   7.061  11.942  0.00  0.00    +0.000 A 
ATOM      7  N   UNL     1      44.635   6.441  10.951  0.00  0.00    +0.000 NA
BRANCH   6   8
ATOM      8  C   UNL     1      45.472   8.518  11.777  0.00  0.00    +0.000 A 
ATOM      9  C   UNL     1      44.421   9.328  11.311  0.00  0.00    +0.000 A 
ATOM     10  C   UNL     1      44.569  10.713  11.198  0.00  0.00    +0.000 A 
ATOM     11  C   UNL     1      45.771  11.318  11.551  0.00  0.00    +0.000 A 
ATOM     12  C   UNL     1      46.827  10.542  12.019  0.00  0.00    +0.000 A 
ATOM     13  C   UNL     1      46.675   9.158  12.131  0.00  0.00    +0.000 A 
ENDBRANCH   6   8
BRANCH   2  15
ATOM     14  C   UNL     1      44.685   4.255   8.832  0.00  0.00    +0.000 C 
ATOM     15  O   UNL     1      43.860   4.444   9.981  0.00  0.00    +0.000 OA
ENDBRANCH   2  15
ENDBRANCH   1   4
BRANCH   1  16
ATOM     16  O   UNL     1      46.944   2.989  13.686  0.00  0.00    +0.000 OA
ATOM     17  H   UNL     1      46.584   2.840  12.797  0.00  0.00    +0.000 HD
ENDBRANCH   1  16
BRANCH   1  18
ATOM     18  C   UNL     1      47.374   5.035  14.984  0.00  0.00    +0.000 C 
BRANCH  18  19
ATOM     19  O   UNL     1      47.392   4.682  16.377  0.00  0.00    +0.000 OA
BRANCH  19  20
ATOM     20  C   UNL     1      48.503   3.922  16.690  0.00  0.00    +0.000 A 
ATOM     21  C   UNL     1      49.543   4.542  17.364  0.00  0.00    +0.000 A 
ATOM     22  C   UNL     1      50.667   3.776  17.693  0.00  0.00    +0.000 A 
ATOM     23  C   UNL     1      50.716   2.424  17.341  0.00  0.00    +0.000 A 
ATOM     24  C   UNL     1      49.625   1.905  16.662  0.00  0.00    +0.000 A 
ATOM     25  N   UNL     1      48.525   2.620  16.331  0.00  0.00    +0.000 NA
BRANCH  23  26
ATOM     26  C   UNL     1      51.907   1.610  17.695  0.00  0.00    +0.000 C 
ATOM     27  N   UNL     1      51.733   0.304  18.063  0.00  0.00    +0.000 N 
ATOM     28  O   UNL     1      53.031   2.094  17.668  0.00  0.00    +0.000 OA
ATOM     29  H   UNL     1      50.857  -0.189  18.136  0.00  0.00    +0.000 HD
ATOM     30  H   UNL     1      52.570  -0.211  18.305  0.00  0.00    +0.000 HD
ENDBRANCH  23  26
ENDBRANCH  19  20
ENDBRANCH  18  19
ENDBRANCH   1  18
TORSDOF 8
ENDMDL
MODEL 7
REMARK VINA RESULT:    -6.594      3.526      7.864
REMARK INTER + INTRA:         -10.715
REMARK INTER:                  -9.961
REMARK INTRA:                  -0.754
REMARK UNBOUND:                -1.229
REMARK  Name = 
REMARK  9 active torsions:
REMARK  status: ('A' for Active; 'I' for Inactive)
REMARK    1  A    between atoms: C_1  and  O_2
REMARK    2  A    between atoms: O_2  and  C_3
REMARK    3  A    between atoms: C_5  and  C_6
REMARK    4  A    between atoms: C_6  and  O_7
REMARK    5  A    between atoms: C_6  and  C_8
REMARK    6  A    between atoms: C_8  and  O_9
REMARK    7  A    between atoms: O_9  and  C_10
REMARK    8  A    between atoms: C_13  and  C_14
REMARK    9  A    between atoms: C_20  and  C_21
REMARK                            x       y       z     vdW  Elec       q    Type
REMARK                         _______ _______ _______ _____ _____    ______ ____
ROOT
ATOM      1  C   UNL     1      48.055   6.834  14.399  0.00  0.00    +0.000 C 
ENDROOT
BRANCH   1   4
ATOM      2  C   UNL     1      45.396   8.252  12.069  0.00  0.00    +0.000 A 
ATOM      3  C   UNL     1      46.320   8.189  13.098  0.00  0.00    +0.000 A 
ATOM      4  C   UNL     1      47.031   6.998  13.293  0.00  0.00    +0.000 A 
ATOM      5  C   UNL     1      46.750   5.924  12.440  0.00  0.00    +0.000 A 
ATOM      6  C   UNL     1      45.785   6.059  11.440  0.00  0.00    +0.000 A 
ATOM      7  N   UNL     1      45.124   7.224  11.247  0.00  0.00    +0.000 NA
BRANCH   6   8
ATOM      8  C   UNL     1      45.378   4.955  10.552  0.00  0.00    +0.000 A 
ATOM      9  C   UNL     1      44.678   3.835  11.034  0.00  0.00    +0.000 A 
ATOM     10  C   UNL     1      44.263   2.814  10.174  0.00  0.00    +0.000 A 
ATOM     11  C   UNL     1      44.538   2.893   8.812  0.00  0.00    +0.000 A 
ATOM     12  C   UNL     1      45.225   3.993   8.306  0.00  0.00    +0.000 A 
ATOM     13  C   UNL     1      45.638   5.010   9.170  0.00  0.00    +0.000 A 
ENDBRANCH   6   8
BRANCH   2  15
ATOM     14  C   UNL     1      45.574  10.565  11.797  0.00  0.00    +0.000 C 
ATOM     15  O   UNL     1      44.705   9.439  11.916  0.00  0.00    +0.000 OA
ENDBRANCH   2  15
ENDBRANCH   1   4
BRANCH   1  16
ATOM     16  O   UNL     1      47.999   7.986  15.243  0.00  0.00    +0.000 OA
ATOM     17  H   UNL     1      48.362   7.742  16.109  0.00  0.00    +0.000 HD
ENDBRANCH   1  16
BRANCH   1  18
ATOM     18  C   UNL     1      47.840   5.531  15.185  0.00  0.00    +0.000 C 
BRANCH  18  19
ATOM     19  O   UNL     1      48.281   5.668  16.546  0.00  0.00    +0.000 OA
BRANCH  19  20
ATOM     20  C   UNL     1      49.211   4.700  16.875  0.00  0.00    +0.000 A 
ATOM     21  C   UNL     1      48.776   3.388  16.965  0.00  0.00    +0.000 A 
ATOM     22  C   UNL     1      49.714   2.400  17.287  0.00  0.00    +0.000 A 
ATOM     23  C   UNL     1      51.048   2.754  17.509  0.00  0.00    +0.000 A 
ATOM     24  C   UNL     1      51.376   4.096  17.400  0.00  0.00    +0.000 A 
ATOM     25  N   UNL     1      50.492   5.072  17.089  0.00  0.00    +0.000 NA
BRANCH  23  26
ATOM     26  C   UNL     1      52.045   1.705  17.845  0.00  0.00    +0.000 C 
ATOM     27  N   UNL     1      51.621   0.416  18.020  0.00  0.00    +0.000 N 
ATOM     28  O   UNL     1      53.231   1.983  17.973  0.00  0.00    +0.000 OA
ATOM     29  H   UNL     1      50.673   0.081  17.956  0.00  0.00    +0.000 HD
ATOM     30  H   UNL     1      52.333  -0.263  18.257  0.00  0.00    +0.000 HD
ENDBRANCH  23  26
ENDBRANCH  19  20
ENDBRANCH  18  19
ENDBRANCH   1  18
TORSDOF 8
ENDMDL
MODEL 8
REMARK VINA RESULT:    -6.438      3.397      7.088
REMARK INTER + INTRA:         -10.491
REMARK INTER:                  -9.562
REMARK INTRA:                  -0.929
REMARK UNBOUND:                -1.229
REMARK  Name = 
REMARK  9 active torsions:
REMARK  status: ('A' for Active; 'I' for Inactive)
REMARK    1  A    between atoms: C_1  and  O_2
REMARK    2  A    between atoms: O_2  and  C_3
REMARK    3  A    between atoms: C_5  and  C_6
REMARK    4  A    between atoms: C_6  and  O_7
REMARK    5  A    between atoms: C_6  and  C_8
REMARK    6  A    between atoms: C_8  and  O_9
REMARK    7  A    between atoms: O_9  and  C_10
REMARK    8  A    between atoms: C_13  and  C_14
REMARK    9  A    between atoms: C_20  and  C_21
REMARK                            x       y       z     vdW  Elec       q    Type
REMARK                         _______ _______ _______ _____ _____    ______ ____
ROOT
ATOM      1  C   UNL     1      46.718   4.017  14.435  0.00  0.00    +0.000 C 
ENDROOT
BRANCH   1   4
ATOM      2  C   UNL     1      45.174   6.571  12.068  0.00  0.00    +0.000 A 
ATOM      3  C   UNL     1      45.280   5.466  12.896  0.00  0.00    +0.000 A 
ATOM      4  C   UNL     1      46.507   5.207  13.520  0.00  0.00    +0.000 A 
ATOM      5  C   UNL     1      47.571   6.078  13.254  0.00  0.00    +0.000 A 
ATOM      6  C   UNL     1      47.389   7.158  12.387  0.00  0.00    +0.000 A 
ATOM      7  N   UNL     1      46.192   7.411  11.811  0.00  0.00    +0.000 NA
BRANCH   6   8
ATOM      8  C   UNL     1      48.477   8.075  11.997  0.00  0.00    +0.000 A 
ATOM      9  C   UNL     1      49.765   7.607  11.685  0.00  0.00    +0.000 A 
ATOM     10  C   UNL     1      50.775   8.483  11.278  0.00  0.00    +0.000 A 
ATOM     11  C   UNL     1      50.517   9.847  11.173  0.00  0.00    +0.000 A 
ATOM     12  C   UNL     1      49.249  10.337  11.471  0.00  0.00    +0.000 A 
ATOM     13  C   UNL     1      48.243   9.458  11.878  0.00  0.00    +0.000 A 
ENDBRANCH   6   8
BRANCH   2  15
ATOM     14  C   UNL     1      43.323   5.571  11.053  0.00  0.00    +0.000 C 
ATOM     15  O   UNL     1      43.952   6.786  11.460  0.00  0.00    +0.000 OA
ENDBRANCH   2  15
ENDBRANCH   1   4
BRANCH   1  16
ATOM     16  O   UNL     1      47.667   3.139  13.825  0.00  0.00    +0.000 OA
ATOM     17  H   UNL     1      47.176   2.451  13.347  0.00  0.00    +0.000 HD
ENDBRANCH   1  16
BRANCH   1  18
ATOM     18  C   UNL     1      47.156   4.452  15.843  0.00  0.00    +0.000 C 
BRANCH  18  19
ATOM     19  O   UNL     1      47.301   3.319  16.714  0.00  0.00    +0.000 OA
BRANCH  19  20
ATOM     20  C   UNL     1      48.627   3.088  17.026  0.00  0.00    +0.000 A 
ATOM     21  C   UNL     1      49.271   4.005  17.842  0.00  0.00    +0.000 A 
ATOM     22  C   UNL     1      50.611   3.773  18.170  0.00  0.00    +0.000 A 
ATOM     23  C   UNL     1      51.262   2.639  17.675  0.00  0.00    +0.000 A 
ATOM     24  C   UNL     1      50.529   1.790  16.861  0.00  0.00    +0.000 A 
ATOM     25  N   UNL     1      49.233   1.988  16.528  0.00  0.00    +0.000 NA
BRANCH  23  26
ATOM     26  C   UNL     1      52.683   2.389  18.028  0.00  0.00    +0.000 C 
ATOM     27  N   UNL     1      53.606   3.376  17.811  0.00  0.00    +0.000 N 
ATOM     28  O   UNL     1      53.035   1.315  18.500  0.00  0.00    +0.000 OA
ATOM     29  H   UNL     1      53.431   4.286  17.415  0.00  0.00    +0.000 HD
ATOM     30  H   UNL     1      54.564   3.159  18.058  0.00  0.00    +0.000 HD
ENDBRANCH  23  26
ENDBRANCH  19  20
ENDBRANCH  18  19
ENDBRANCH   1  18
TORSDOF 8
ENDMDL
MODEL 9
REMARK VINA RESULT:    -6.419      3.527      7.698
REMARK INTER + INTRA:         -10.462
REMARK INTER:                  -9.530
REMARK INTRA:                  -0.933
REMARK UNBOUND:                -1.229
REMARK  Name = 
REMARK  9 active torsions:
REMARK  status: ('A' for Active; 'I' for Inactive)
REMARK    1  A    between atoms: C_1  and  O_2
REMARK    2  A    between atoms: O_2  and  C_3
REMARK    3  A    between atoms: C_5  and  C_6
REMARK    4  A    between atoms: C_6  and  O_7
REMARK    5  A    between atoms: C_6  and  C_8
REMARK    6  A    between atoms: C_8  and  O_9
REMARK    7  A    between atoms: O_9  and  C_10
REMARK    8  A    between atoms: C_13  and  C_14
REMARK    9  A    between atoms: C_20  and  C_21
REMARK                            x       y       z     vdW  Elec       q    Type
REMARK                         _______ _______ _______ _____ _____    ______ ____
ROOT
ATOM      1  C   UNL     1      47.552   8.877  13.490  0.00  0.00    +0.000 C 
ENDROOT
BRANCH   1   4
ATOM      2  C   UNL     1      44.365   9.093  11.414  0.00  0.00    +0.000 A 
ATOM      3  C   UNL     1      45.430   9.494  12.203  0.00  0.00    +0.000 A 
ATOM      4  C   UNL     1      46.360   8.532  12.618  0.00  0.00    +0.000 A 
ATOM      5  C   UNL     1      46.148   7.206  12.222  0.00  0.00    +0.000 A 
ATOM      6  C   UNL     1      45.035   6.878  11.445  0.00  0.00    +0.000 A 
ATOM      7  N   UNL     1      44.158   7.821  11.031  0.00  0.00    +0.000 NA
BRANCH   6   8
ATOM      8  C   UNL     1      44.700   5.497  11.052  0.00  0.00    +0.000 A 
ATOM      9  C   UNL     1      45.189   4.924   9.865  0.00  0.00    +0.000 A 
ATOM     10  C   UNL     1      44.896   3.600   9.524  0.00  0.00    +0.000 A 
ATOM     11  C   UNL     1      44.109   2.821  10.366  0.00  0.00    +0.000 A 
ATOM     12  C   UNL     1      43.614   3.360  11.550  0.00  0.00    +0.000 A 
ATOM     13  C   UNL     1      43.910   4.684  11.886  0.00  0.00    +0.000 A 
ENDBRANCH   6   8
BRANCH   2  15
ATOM     14  C   UNL     1      43.615  10.456   9.671  0.00  0.00    +0.000 C 
ATOM     15  O   UNL     1      43.461  10.067  11.036  0.00  0.00    +0.000 OA
ENDBRANCH   2  15
ENDBRANCH   1   4
BRANCH   1  16
ATOM     16  O   UNL     1      47.083   9.148  14.812  0.00  0.00    +0.000 OA
ATOM     17  H   UNL     1      46.152   8.877  14.863  0.00  0.00    +0.000 HD
ENDBRANCH   1  16
BRANCH   1  18
ATOM     18  C   UNL     1      48.612   7.764  13.470  0.00  0.00    +0.000 C 
BRANCH  18  19
ATOM     19  O   UNL     1      49.315   7.696  14.722  0.00  0.00    +0.000 OA
BRANCH  19  20
ATOM     20  C   UNL     1      48.882   6.629  15.486  0.00  0.00    +0.000 A 
ATOM     21  C   UNL     1      49.257   6.592  16.819  0.00  0.00    +0.000 A 
ATOM     22  C   UNL     1      48.814   5.520  17.602  0.00  0.00    +0.000 A 
ATOM     23  C   UNL     1      48.016   4.525  17.031  0.00  0.00    +0.000 A 
ATOM     24  C   UNL     1      47.704   4.654  15.686  0.00  0.00    +0.000 A 
ATOM     25  N   UNL     1      48.117   5.679  14.905  0.00  0.00    +0.000 NA
BRANCH  23  26
ATOM     26  C   UNL     1      47.540   3.389  17.862  0.00  0.00    +0.000 C 
ATOM     27  N   UNL     1      48.211   3.082  19.015  0.00  0.00    +0.000 N 
ATOM     28  O   UNL     1      46.566   2.728  17.526  0.00  0.00    +0.000 OA
ATOM     29  H   UNL     1      49.029   3.547  19.376  0.00  0.00    +0.000 HD
ATOM     30  H   UNL     1      47.858   2.296  19.545  0.00  0.00    +0.000 HD
ENDBRANCH  23  26
ENDBRANCH  19  20
ENDBRANCH  18  19
ENDBRANCH   1  18
TORSDOF 8
ENDMDL
