MODEL 1
REMARK VINA RESULT:    -8.176      0.000      0.000
REMARK INTER + INTRA:         -11.208
REMARK INTER:                 -10.566
REMARK INTRA:                  -0.642
REMARK UNBOUND:                -0.642
REMARK  Name = 
REMARK  5 active torsions:
REMARK  status: ('A' for Active; 'I' for Inactive)
REMARK    1  A    between atoms: C_2  and  C_4
REMARK    2  A    between atoms: C_8  and  C_9
REMARK    3  A    between atoms: C_9  and  S_10
REMARK    4  A    between atoms: S_10  and  C_11
REMARK    5  A    between atoms: C_15  and  C_16
REMARK                            x       y       z     vdW  Elec       q    Type
REMARK                         _______ _______ _______ _____ _____    ______ ____
ROOT
ATOM      1  S   UNL     1      43.749   6.413  11.433  0.00  0.00    +0.000 S 
ENDROOT
BRANCH   1   2
ATOM      2  C   UNL     1      43.955   4.750  10.815  0.00  0.00    +0.000 A 
ATOM      3  C   UNL     1      43.262   3.707  11.420  0.00  0.00    +0.000 A 
ATOM      4  N   UNL     1      43.346   2.411  11.039  0.00  0.00    +0.000 NA
ATOM      5  C   UNL     1      44.173   2.133  10.005  0.00  0.00    +0.000 A 
ATOM      6  C   UNL     1      44.935   3.077   9.313  0.00  0.00    +0.000 A 
ATOM      7  C   UNL     1      44.804   4.405   9.757  0.00  0.00    +0.000 A 
BRANCH   6   8
ATOM      8  C   UNL     1      45.815   2.717   8.182  0.00  0.00    +0.000 A 
ATOM      9  C   UNL     1      46.113   3.617   7.146  0.00  0.00    +0.000 A 
ATOM     10  C   UNL     1      46.938   3.241   6.085  0.00  0.00    +0.000 A 
ATOM     11  C   UNL     1      47.464   1.963   6.084  0.00  0.00    +0.000 A 
ATOM     12  N   UNL     1      47.213   1.057   7.050  0.00  0.00    +0.000 NA
ATOM     13  C   UNL     1      46.400   1.452   8.062  0.00  0.00    +0.000 A 
ENDBRANCH   6   8
ENDBRANCH   1   2
BRANCH   1  14
ATOM     14  C   UNL     1      45.399   7.127  11.147  0.00  0.00    +0.000 C 
BRANCH  14  19
ATOM     15  C   UNL     1      47.212   5.501  14.084  0.00  0.00    +0.000 A 
ATOM     16  C   UNL     1      48.166   6.476  14.395  0.00  0.00    +0.000 A 
ATOM     17  C   UNL     1      48.187   7.680  13.689  0.00  0.00    +0.000 A 
ATOM     18  C   UNL     1      47.272   7.907  12.660  0.00  0.00    +0.000 A 
ATOM     19  C   UNL     1      46.335   6.925  12.311  0.00  0.00    +0.000 A 
ATOM     20  C   UNL     1      46.304   5.726  13.040  0.00  0.00    +0.000 A 
BRANCH  15  22
ATOM     21  N   UNL     1      46.861   4.236  16.136  0.00  0.00    +0.000 N 
ATOM     22  C   UNL     1      47.154   4.202  14.801  0.00  0.00    +0.000 C 
ATOM     23  O   UNL     1      47.324   3.138  14.219  0.00  0.00    +0.000 OA
ATOM     24  H   UNL     1      46.713   3.340  16.584  0.00  0.00    +0.000 HD
ATOM     25  H   UNL     1      46.470   5.053  16.582  0.00  0.00    +0.000 HD
ENDBRANCH  15  22
ENDBRANCH  14  19
ENDBRANCH   1  14
TORSDOF 5
ENDMDL
MODEL 2
REMARK VINA RESULT:    -7.806      2.658      6.664
REMARK INTER + INTRA:         -10.730
REMARK INTER:                 -10.177
REMARK INTRA:                  -0.553
REMARK UNBOUND:                -0.642
REMARK  Name = 
REMARK  5 active torsions:
REMARK  status: ('A' for Active; 'I' for Inactive)
REMARK    1  A    between atoms: C_2  and  C_4
REMARK    2  A    between atoms: C_8  and  C_9
REMARK    3  A    between atoms: C_9  and  S_10
REMARK    4  A    between atoms: S_10  and  C_11
REMARK    5  A    between atoms: C_15  and  C_16
REMARK                            x       y       z     vdW  Elec       q    Type
REMARK                         _______ _______ _______ _____ _____    ______ ____
ROOT
ATOM      1  S   UNL     1      43.406   4.574  11.321  0.00  0.00    +0.000 S 
ENDROOT
BRANCH   1   2
ATOM      2  C   UNL     1      44.883   4.992  12.234  0.00  0.00    +0.000 A 
ATOM      3  C   UNL     1      45.232   4.235  13.347  0.00  0.00    +0.000 A 
ATOM      4  N   UNL     1      46.324   4.463  14.115  0.00  0.00    +0.000 NA
ATOM      5  C   UNL     1      47.107   5.510  13.763  0.00  0.00    +0.000 A 
ATOM      6  C   UNL     1      46.872   6.357  12.678  0.00  0.00    +0.000 A 
ATOM      7  C   UNL     1      45.722   6.067  11.921  0.00  0.00    +0.000 A 
BRANCH   6   8
ATOM      8  C   UNL     1      47.768   7.480  12.334  0.00  0.00    +0.000 A 
ATOM      9  C   UNL     1      49.141   7.301  12.103  0.00  0.00    +0.000 A 
ATOM     10  C   UNL     1      49.964   8.385  11.793  0.00  0.00    +0.000 A 
ATOM     11  C   UNL     1      49.391   9.640  11.710  0.00  0.00    +0.000 A 
ATOM     12  N   UNL     1      48.081   9.873  11.923  0.00  0.00    +0.000 NA
ATOM     13  C   UNL     1      47.311   8.798  12.230  0.00  0.00    +0.000 A 
ENDBRANCH   6   8
ENDBRANCH   1   2
BRANCH   1  14
ATOM     14  C   UNL     1      43.887   3.010  10.523  0.00  0.00    +0.000 C 
BRANCH  14  19
ATOM     15  C   UNL     1      46.467   2.250   7.816  0.00  0.00    +0.000 A 
ATOM     16  C   UNL     1      46.693   3.524   7.283  0.00  0.00    +0.000 A 
ATOM     17  C   UNL     1      46.051   4.633   7.835  0.00  0.00    +0.000 A 
ATOM     18  C   UNL     1      45.168   4.474   8.904  0.00  0.00    +0.000 A 
ATOM     19  C   UNL     1      44.902   3.200   9.425  0.00  0.00    +0.000 A 
ATOM     20  C   UNL     1      45.569   2.092   8.880  0.00  0.00    +0.000 A 
BRANCH  15  22
ATOM     21  N   UNL     1      46.649  -0.175   7.675  0.00  0.00    +0.000 N 
ATOM     22  C   UNL     1      47.121   1.039   7.259  0.00  0.00    +0.000 C 
ATOM     23  O   UNL     1      48.022   1.116   6.433  0.00  0.00    +0.000 OA
ATOM     24  H   UNL     1      47.026  -0.987   7.201  0.00  0.00    +0.000 HD
ATOM     25  H   UNL     1      45.760  -0.276   8.143  0.00  0.00    +0.000 HD
ENDBRANCH  15  22
ENDBRANCH  14  19
ENDBRANCH   1  14
TORSDOF 5
ENDMDL
MODEL 3
REMARK VINA RESULT:    -7.525      2.533      6.953
REMARK INTER + INTRA:         -10.367
REMARK INTER:                  -9.688
REMARK INTRA:                  -0.679
REMARK UNBOUND:                -0.642
REMARK  Name = 
REMARK  5 active torsions:
REMARK  status: ('A' for Active; 'I' for Inactive)
REMARK    1  A    between atoms: C_2  and  C_4
REMARK    2  A    between atoms: C_8  and  C_9
REMARK    3  A    between atoms: C_9  and  S_10
REMARK    4  A    between atoms: S_10  and  C_11
REMARK    5  A    between atoms: C_15  and  C_16
REMARK                            x       y       z     vdW  Elec       q    Type
REMARK                         _______ _______ _______ _____ _____    ______ ____
ROOT
ATOM      1  S   UNL     1      44.024   5.351  11.093  0.00  0.00    +0.000 S 
ENDROOT
BRANCH   1   2
ATOM      2  C   UNL     1      45.381   5.370  12.254  0.00  0.00    +0.000 A 
ATOM      3  C   UNL     1      45.325   4.557  13.381  0.00  0.00    +0.000 A 
ATOM      4  N   UNL     1      46.291   4.494  14.328  0.00  0.00    +0.000 NA
ATOM      5  C   UNL     1      47.369   5.293  14.150  0.00  0.00    +0.000 A 
ATOM      6  C   UNL     1      47.552   6.164  13.075  0.00  0.00    +0.000 A 
ATOM      7  C   UNL     1      46.513   6.183  12.127  0.00  0.00    +0.000 A 
BRANCH   6   8
ATOM      8  C   UNL     1      48.756   7.007  12.928  0.00  0.00    +0.000 A 
ATOM      9  C   UNL     1      49.136   7.565  11.696  0.00  0.00    +0.000 A 
ATOM     10  C   UNL     1      50.287   8.346  11.588  0.00  0.00    +0.000 A 
ATOM     11  C   UNL     1      51.040   8.566  12.726  0.00  0.00    +0.000 A 
ATOM     12  N   UNL     1      50.725   8.057  13.933  0.00  0.00    +0.000 NA
ATOM     13  C   UNL     1      49.604   7.294  14.001  0.00  0.00    +0.000 A 
ENDBRANCH   6   8
ENDBRANCH   1   2
BRANCH   1  14
ATOM     14  C   UNL     1      44.898   5.364   9.495  0.00  0.00    +0.000 C 
BRANCH  14  19
ATOM     15  C   UNL     1      46.503   2.512   7.535  0.00  0.00    +0.000 A 
ATOM     16  C   UNL     1      45.900   1.396   8.125  0.00  0.00    +0.000 A 
ATOM     17  C   UNL     1      44.936   1.570   9.118  0.00  0.00    +0.000 A 
ATOM     18  C   UNL     1      44.585   2.854   9.540  0.00  0.00    +0.000 A 
ATOM     19  C   UNL     1      45.208   3.980   8.986  0.00  0.00    +0.000 A 
ATOM     20  C   UNL     1      46.160   3.799   7.971  0.00  0.00    +0.000 A 
BRANCH  15  22
ATOM     21  N   UNL     1      47.382   3.130   5.348  0.00  0.00    +0.000 N 
ATOM     22  C   UNL     1      47.539   2.378   6.479  0.00  0.00    +0.000 C 
ATOM     23  O   UNL     1      48.516   1.654   6.624  0.00  0.00    +0.000 OA
ATOM     24  H   UNL     1      48.152   3.114   4.691  0.00  0.00    +0.000 HD
ATOM     25  H   UNL     1      46.744   3.911   5.305  0.00  0.00    +0.000 HD
ENDBRANCH  15  22
ENDBRANCH  14  19
ENDBRANCH   1  14
TORSDOF 5
ENDMDL
MODEL 4
REMARK VINA RESULT:    -7.324      2.636      7.520
REMARK INTER + INTRA:         -10.107
REMARK INTER:                  -9.505
REMARK INTRA:                  -0.602
REMARK UNBOUND:                -0.642
REMARK  Name = 
REMARK  5 active torsions:
REMARK  status: ('A' for Active; 'I' for Inactive)
REMARK    1  A    between atoms: C_2  and  C_4
REMARK    2  A    between atoms: C_8  and  C_9
REMARK    3  A    between atoms: C_9  and  S_10
REMARK    4  A    between atoms: S_10  and  C_11
REMARK    5  A    between atoms: C_15  and  C_16
REMARK                            x       y       z     vdW  Elec       q    Type
REMARK                         _______ _______ _______ _____ _____    ______ ____
ROOT
ATOM      1  S   UNL     1      43.777   4.382  11.062  0.00  0.00    +0.000 S 
ENDROOT
BRANCH   1   2
ATOM      2  C   UNL     1      45.214   5.116  11.828  0.00  0.00    +0.000 A 
ATOM      3  C   UNL     1      45.882   6.147  11.177  0.00  0.00    +0.000 A 
ATOM      4  N   UNL     1      46.981   6.772  11.661  0.00  0.00    +0.000 NA
ATOM      5  C   UNL     1      47.450   6.340  12.855  0.00  0.00    +0.000 A 
ATOM      6  C   UNL     1      46.886   5.311  13.612  0.00  0.00    +0.000 A 
ATOM      7  C   UNL     1      45.747   4.702  13.054  0.00  0.00    +0.000 A 
BRANCH   6   8
ATOM      8  C   UNL     1      47.436   4.887  14.916  0.00  0.00    +0.000 A 
ATOM      9  C   UNL     1      47.190   3.614  15.457  0.00  0.00    +0.000 A 
ATOM     10  C   UNL     1      47.713   3.250  16.698  0.00  0.00    +0.000 A 
ATOM     11  C   UNL     1      48.488   4.170  17.379  0.00  0.00    +0.000 A 
ATOM     12  N   UNL     1      48.757   5.404  16.911  0.00  0.00    +0.000 NA
ATOM     13  C   UNL     1      48.225   5.730  15.705  0.00  0.00    +0.000 A 
ENDBRANCH   6   8
ENDBRANCH   1   2
BRANCH   1  14
ATOM     14  C   UNL     1      44.152   4.584   9.291  0.00  0.00    +0.000 C 
BRANCH  14  19
ATOM     15  C   UNL     1      46.506   2.499   7.131  0.00  0.00    +0.000 A 
ATOM     16  C   UNL     1      46.356   1.230   7.702  0.00  0.00    +0.000 A 
ATOM     17  C   UNL     1      45.454   1.041   8.750  0.00  0.00    +0.000 A 
ATOM     18  C   UNL     1      44.715   2.118   9.244  0.00  0.00    +0.000 A 
ATOM     19  C   UNL     1      44.883   3.402   8.708  0.00  0.00    +0.000 A 
ATOM     20  C   UNL     1      45.775   3.580   7.639  0.00  0.00    +0.000 A 
BRANCH  15  22
ATOM     21  N   UNL     1      48.781   2.496   6.257  0.00  0.00    +0.000 N 
ATOM     22  C   UNL     1      47.458   2.752   6.020  0.00  0.00    +0.000 C 
ATOM     23  O   UNL     1      47.077   3.139   4.922  0.00  0.00    +0.000 OA
ATOM     24  H   UNL     1      49.398   2.564   5.458  0.00  0.00    +0.000 HD
ATOM     25  H   UNL     1      49.090   1.945   7.044  0.00  0.00    +0.000 HD
ENDBRANCH  15  22
ENDBRANCH  14  19
ENDBRANCH   1  14
TORSDOF 5
ENDMDL
MODEL 5
REMARK VINA RESULT:    -7.261      2.777      3.589
REMARK INTER + INTRA:         -10.025
REMARK INTER:                  -9.371
REMARK INTRA:                  -0.654
REMARK UNBOUND:                -0.642
REMARK  Name = 
REMARK  5 active torsions:
REMARK  status: ('A' for Active; 'I' for Inactive)
REMARK    1  A    between atoms: C_2  and  C_4
REMARK    2  A    between atoms: C_8  and  C_9
REMARK    3  A    between atoms: C_9  and  S_10
REMARK    4  A    between atoms: S_10  and  C_11
REMARK    5  A    between atoms: C_15  and  C_16
REMARK                            x       y       z     vdW  Elec       q    Type
REMARK                         _______ _______ _______ _____ _____    ______ ____
ROOT
ATOM      1  S   UNL     1      45.367   5.389  13.247  0.00  0.00    +0.000 S 
ENDROOT
BRANCH   1   2
ATOM      2  C   UNL     1      44.827   4.203  12.026  0.00  0.00    +0.000 A 
ATOM      3  C   UNL     1      43.679   3.454  12.265  0.00  0.00    +0.000 A 
ATOM      4  N   UNL     1      43.181   2.526  11.414  0.00  0.00    +0.000 NA
ATOM      5  C   UNL     1      43.869   2.321  10.266  0.00  0.00    +0.000 A 
ATOM      6  C   UNL     1      45.039   2.992   9.904  0.00  0.00    +0.000 A 
ATOM      7  C   UNL     1      45.504   3.943  10.830  0.00  0.00    +0.000 A 
BRANCH   6   8
ATOM      8  C   UNL     1      45.744   2.734   8.631  0.00  0.00    +0.000 A 
ATOM      9  C   UNL     1      45.983   3.746   7.687  0.00  0.00    +0.000 A 
ATOM     10  C   UNL     1      46.641   3.466   6.488  0.00  0.00    +0.000 A 
ATOM     11  C   UNL     1      47.059   2.170   6.257  0.00  0.00    +0.000 A 
ATOM     12  N   UNL     1      46.857   1.159   7.124  0.00  0.00    +0.000 NA
ATOM     13  C   UNL     1      46.207   1.463   8.276  0.00  0.00    +0.000 A 
ENDBRANCH   6   8
ENDBRANCH   1   2
BRANCH   1  14
ATOM     14  C   UNL     1      46.811   6.138  12.429  0.00  0.00    +0.000 C 
BRANCH  14  19
ATOM     15  C   UNL     1      45.181   9.512  11.714  0.00  0.00    +0.000 A 
ATOM     16  C   UNL     1      46.276  10.377  11.818  0.00  0.00    +0.000 A 
ATOM     17  C   UNL     1      47.549   9.862  12.066  0.00  0.00    +0.000 A 
ATOM     18  C   UNL     1      47.730   8.487  12.231  0.00  0.00    +0.000 A 
ATOM     19  C   UNL     1      46.638   7.612  12.169  0.00  0.00    +0.000 A 
ATOM     20  C   UNL     1      45.364   8.135  11.895  0.00  0.00    +0.000 A 
BRANCH  15  22
ATOM     21  N   UNL     1      42.967   9.204  10.744  0.00  0.00    +0.000 N 
ATOM     22  C   UNL     1      43.807  10.013  11.458  0.00  0.00    +0.000 C 
ATOM     23  O   UNL     1      43.422  11.091  11.897  0.00  0.00    +0.000 OA
ATOM     24  H   UNL     1      42.004   9.508  10.678  0.00  0.00    +0.000 HD
ATOM     25  H   UNL     1      43.162   8.225  10.594  0.00  0.00    +0.000 HD
ENDBRANCH  15  22
ENDBRANCH  14  19
ENDBRANCH   1  14
TORSDOF 5
ENDMDL
MODEL 6
REMARK VINA RESULT:    -7.144      2.669      3.254
REMARK INTER + INTRA:          -9.874
REMARK INTER:                  -9.378
REMARK INTRA:                  -0.497
REMARK UNBOUND:                -0.642
REMARK  Name = 
REMARK  5 active torsions:
REMARK  status: ('A' for Active; 'I' for Inactive)
REMARK    1  A    between atoms: C_2  and  C_4
REMARK    2  A    between atoms: C_8  and  C_9
REMARK    3  A    between atoms: C_9  and  S_10
REMARK    4  A    between atoms: S_10  and  C_11
REMARK    5  A    between atoms: C_15  and  C_16
REMARK                            x       y       z     vdW  Elec       q    Type
REMARK                         _______ _______ _______ _____ _____    ______ ____
ROOT
ATOM      1  S   UNL     1      44.666   6.671  11.537  0.00  0.00    +0.000 S 
ENDROOT
BRANCH   1   2
ATOM      2  C   UNL     1      44.527   5.034  10.837  0.00  0.00    +0.000 A 
ATOM      3  C   UNL     1      43.631   4.128  11.394  0.00  0.00    +0.000 A 
ATOM      4  N   UNL     1      43.446   2.863  10.949  0.00  0.00    +0.000 NA
ATOM      5  C   UNL     1      44.204   2.471   9.898  0.00  0.00    +0.000 A 
ATOM      6  C   UNL     1      45.148   3.270   9.250  0.00  0.00    +0.000 A 
ATOM      7  C   UNL     1      45.292   4.573   9.760  0.00  0.00    +0.000 A 
BRANCH   6   8
ATOM      8  C   UNL     1      45.941   2.792   8.099  0.00  0.00    +0.000 A 
ATOM      9  C   UNL     1      46.261   3.621   7.011  0.00  0.00    +0.000 A 
ATOM     10  C   UNL     1      47.001   3.134   5.932  0.00  0.00    +0.000 A 
ATOM     11  C   UNL     1      47.420   1.818   5.965  0.00  0.00    +0.000 A 
ATOM     12  N   UNL     1      47.143   0.976   6.980  0.00  0.00    +0.000 NA
ATOM     13  C   UNL     1      46.414   1.479   8.009  0.00  0.00    +0.000 A 
ENDBRANCH   6   8
ENDBRANCH   1   2
BRANCH   1  14
ATOM     14  C   UNL     1      46.309   6.607  12.318  0.00  0.00    +0.000 C 
BRANCH  14  19
ATOM     15  C   UNL     1      49.201   8.999  11.630  0.00  0.00    +0.000 A 
ATOM     16  C   UNL     1      48.548  10.236  11.646  0.00  0.00    +0.000 A 
ATOM     17  C   UNL     1      47.183  10.299  11.932  0.00  0.00    +0.000 A 
ATOM     18  C   UNL     1      46.463   9.129  12.183  0.00  0.00    +0.000 A 
ATOM     19  C   UNL     1      47.095   7.879  12.133  0.00  0.00    +0.000 A 
ATOM     20  C   UNL     1      48.473   7.826  11.867  0.00  0.00    +0.000 A 
BRANCH  15  22
ATOM     21  N   UNL     1      51.401  10.019  11.397  0.00  0.00    +0.000 N 
ATOM     22  C   UNL     1      50.649   8.879  11.324  0.00  0.00    +0.000 C 
ATOM     23  O   UNL     1      51.163   7.801  11.052  0.00  0.00    +0.000 OA
ATOM     24  H   UNL     1      52.402   9.901  11.298  0.00  0.00    +0.000 HD
ATOM     25  H   UNL     1      51.071  10.854  11.858  0.00  0.00    +0.000 HD
ENDBRANCH  15  22
ENDBRANCH  14  19
ENDBRANCH   1  14
TORSDOF 5
ENDMDL
MODEL 7
REMARK VINA RESULT:    -7.013      1.883      2.526
REMARK INTER + INTRA:          -9.705
REMARK INTER:                  -9.171
REMARK INTRA:                  -0.534
REMARK UNBOUND:                -0.642
REMARK  Name = 
REMARK  5 active torsions:
REMARK  status: ('A' for Active; 'I' for Inactive)
REMARK    1  A    between atoms: C_2  and  C_4
REMARK    2  A    between atoms: C_8  and  C_9
REMARK    3  A    between atoms: C_9  and  S_10
REMARK    4  A    between atoms: S_10  and  C_11
REMARK    5  A    between atoms: C_15  and  C_16
REMARK                            x       y       z     vdW  Elec       q    Type
REMARK                         _______ _______ _______ _____ _____    ______ ____
ROOT
ATOM      1  S   UNL     1      45.914   7.735  11.961  0.00  0.00    +0.000 S 
ENDROOT
BRANCH   1   2
ATOM      2  C   UNL     1      45.077   6.388  11.142  0.00  0.00    +0.000 A 
ATOM      3  C   UNL     1      43.715   6.202  11.354  0.00  0.00    +0.000 A 
ATOM      4  N   UNL     1      42.981   5.214  10.790  0.00  0.00    +0.000 NA
ATOM      5  C   UNL     1      43.640   4.354   9.978  0.00  0.00    +0.000 A 
ATOM      6  C   UNL     1      45.004   4.416   9.685  0.00  0.00    +0.000 A 
ATOM      7  C   UNL     1      45.710   5.464  10.302  0.00  0.00    +0.000 A 
BRANCH   6   8
ATOM      8  C   UNL     1      45.669   3.454   8.782  0.00  0.00    +0.000 A 
ATOM      9  C   UNL     1      46.401   3.865   7.656  0.00  0.00    +0.000 A 
ATOM     10  C   UNL     1      47.007   2.930   6.815  0.00  0.00    +0.000 A 
ATOM     11  C   UNL     1      46.876   1.590   7.123  0.00  0.00    +0.000 A 
ATOM     12  N   UNL     1      46.186   1.137   8.188  0.00  0.00    +0.000 NA
ATOM     13  C   UNL     1      45.602   2.072   8.980  0.00  0.00    +0.000 A 
ENDBRANCH   6   8
ENDBRANCH   1   2
BRANCH   1  14
ATOM     14  C   UNL     1      47.563   7.024  12.265  0.00  0.00    +0.000 C 
BRANCH  14  19
ATOM     15  C   UNL     1      48.244   5.862  15.834  0.00  0.00    +0.000 A 
ATOM     16  C   UNL     1      47.587   4.627  15.854  0.00  0.00    +0.000 A 
ATOM     17  C   UNL     1      46.971   4.148  14.698  0.00  0.00    +0.000 A 
ATOM     18  C   UNL     1      46.990   4.906  13.526  0.00  0.00    +0.000 A 
ATOM     19  C   UNL     1      47.611   6.162  13.500  0.00  0.00    +0.000 A 
ATOM     20  C   UNL     1      48.249   6.628  14.661  0.00  0.00    +0.000 A 
BRANCH  15  22
ATOM     21  N   UNL     1      48.129   7.122  17.917  0.00  0.00    +0.000 N 
ATOM     22  C   UNL     1      48.908   6.418  17.041  0.00  0.00    +0.000 C 
ATOM     23  O   UNL     1      50.097   6.227  17.267  0.00  0.00    +0.000 OA
ATOM     24  H   UNL     1      48.570   7.394  18.787  0.00  0.00    +0.000 HD
ATOM     25  H   UNL     1      47.121   7.079  17.895  0.00  0.00    +0.000 HD
ENDBRANCH  15  22
ENDBRANCH  14  19
ENDBRANCH   1  14
TORSDOF 5
ENDMDL
MODEL 8
REMARK VINA RESULT:    -6.826      3.007      3.648
REMARK INTER + INTRA:          -9.464
REMARK INTER:                  -8.808
REMARK INTRA:                  -0.656
REMARK UNBOUND:                -0.642
REMARK  Name = 
REMARK  5 active torsions:
REMARK  status: ('A' for Active; 'I' for Inactive)
REMARK    1  A    between atoms: C_2  and  C_4
REMARK    2  A    between atoms: C_8  and  C_9
REMARK    3  A    between atoms: C_9  and  S_10
REMARK    4  A    between atoms: S_10  and  C_11
REMARK    5  A    between atoms: C_15  and  C_16
REMARK                            x       y       z     vdW  Elec       q    Type
REMARK                         _______ _______ _______ _____ _____    ______ ____
ROOT
ATOM      1  S   UNL     1      45.385   5.280  13.370  0.00  0.00    +0.000 S 
ENDROOT
BRANCH   1   2
ATOM      2  C   UNL     1      44.838   4.157  12.093  0.00  0.00    +0.000 A 
ATOM      3  C   UNL     1      43.696   3.392  12.302  0.00  0.00    +0.000 A 
ATOM      4  N   UNL     1      43.194   2.507  11.409  0.00  0.00    +0.000 NA
ATOM      5  C   UNL     1      43.872   2.366  10.246  0.00  0.00    +0.000 A 
ATOM      6  C   UNL     1      45.036   3.060   9.908  0.00  0.00    +0.000 A 
ATOM      7  C   UNL     1      45.506   3.963  10.879  0.00  0.00    +0.000 A 
BRANCH   6   8
ATOM      8  C   UNL     1      45.730   2.872   8.618  0.00  0.00    +0.000 A 
ATOM      9  C   UNL     1      46.235   1.626   8.212  0.00  0.00    +0.000 A 
ATOM     10  C   UNL     1      46.898   1.484   6.992  0.00  0.00    +0.000 A 
ATOM     11  C   UNL     1      47.037   2.600   6.188  0.00  0.00    +0.000 A 
ATOM     12  N   UNL     1      46.575   3.820   6.525  0.00  0.00    +0.000 NA
ATOM     13  C   UNL     1      45.943   3.924   7.722  0.00  0.00    +0.000 A 
ENDBRANCH   6   8
ENDBRANCH   1   2
BRANCH   1  14
ATOM     14  C   UNL     1      45.133   6.900  12.577  0.00  0.00    +0.000 C 
BRANCH  14  19
ATOM     15  C   UNL     1      47.676   9.656  11.873  0.00  0.00    +0.000 A 
ATOM     16  C   UNL     1      48.860   8.919  11.762  0.00  0.00    +0.000 A 
ATOM     17  C   UNL     1      48.826   7.528  11.862  0.00  0.00    +0.000 A 
ATOM     18  C   UNL     1      47.617   6.869  12.093  0.00  0.00    +0.000 A 
ATOM     19  C   UNL     1      46.428   7.596  12.244  0.00  0.00    +0.000 A 
ATOM     20  C   UNL     1      46.466   8.993  12.119  0.00  0.00    +0.000 A 
BRANCH  15  22
ATOM     21  N   UNL     1      47.386  11.835  12.925  0.00  0.00    +0.000 N 
ATOM     22  C   UNL     1      47.662  11.138  11.781  0.00  0.00    +0.000 C 
ATOM     23  O   UNL     1      47.921  11.720  10.735  0.00  0.00    +0.000 OA
ATOM     24  H   UNL     1      47.493  12.840  12.872  0.00  0.00    +0.000 HD
ATOM     25  H   UNL     1      47.422  11.407  13.838  0.00  0.00    +0.000 HD
ENDBRANCH  15  22
ENDBRANCH  14  19
ENDBRANCH   1  14
TORSDOF 5
ENDMDL
MODEL 9
REMARK VINA RESULT:    -6.550      2.689      7.628
REMARK INTER + INTRA:          -9.107
REMARK INTER:                  -8.363
REMARK INTRA:                  -0.744
REMARK UNBOUND:                -0.642
REMARK  Name = 
REMARK  5 active torsions:
REMARK  status: ('A' for Active; 'I' for Inactive)
REMARK    1  A    between atoms: C_2  and  C_4
REMARK    2  A    between atoms: C_8  and  C_9
REMARK    3  A    between atoms: C_9  and  S_10
REMARK    4  A    between atoms: S_10  and  C_11
REMARK    5  A    between atoms: C_15  and  C_16
REMARK                            x       y       z     vdW  Elec       q    Type
REMARK                         _______ _______ _______ _____ _____    ______ ____
ROOT
ATOM      1  S   UNL     1      47.319   7.807  12.077  0.00  0.00    +0.000 S 
ENDROOT
BRANCH   1   2
ATOM      2  C   UNL     1      48.166   7.475  13.614  0.00  0.00    +0.000 A 
ATOM      3  C   UNL     1      49.158   8.348  14.047  0.00  0.00    +0.000 A 
ATOM      4  N   UNL     1      49.867   8.193  15.190  0.00  0.00    +0.000 NA
ATOM      5  C   UNL     1      49.583   7.102  15.940  0.00  0.00    +0.000 A 
ATOM      6  C   UNL     1      48.622   6.140  15.621  0.00  0.00    +0.000 A 
ATOM      7  C   UNL     1      47.921   6.359  14.421  0.00  0.00    +0.000 A 
BRANCH   6   8
ATOM      8  C   UNL     1      48.346   4.973  16.483  0.00  0.00    +0.000 A 
ATOM      9  C   UNL     1      49.266   4.512  17.439  0.00  0.00    +0.000 A 
ATOM     10  C   UNL     1      48.981   3.398  18.229  0.00  0.00    +0.000 A 
ATOM     11  C   UNL     1      47.766   2.763  18.054  0.00  0.00    +0.000 A 
ATOM     12  N   UNL     1      46.845   3.159  17.153  0.00  0.00    +0.000 NA
ATOM     13  C   UNL     1      47.158   4.241  16.395  0.00  0.00    +0.000 A 
ENDBRANCH   6   8
ENDBRANCH   1   2
BRANCH   1  14
ATOM     14  C   UNL     1      45.601   7.369  12.493  0.00  0.00    +0.000 C 
BRANCH  14  19
ATOM     15  C   UNL     1      45.002   4.448  10.113  0.00  0.00    +0.000 A 
ATOM     16  C   UNL     1      44.586   3.448  10.999  0.00  0.00    +0.000 A 
ATOM     17  C   UNL     1      44.450   3.736  12.358  0.00  0.00    +0.000 A 
ATOM     18  C   UNL     1      44.745   5.012  12.839  0.00  0.00    +0.000 A 
ATOM     19  C   UNL     1      45.200   6.014  11.970  0.00  0.00    +0.000 A 
ATOM     20  C   UNL     1      45.313   5.724  10.601  0.00  0.00    +0.000 A 
BRANCH  15  22
ATOM     21  N   UNL     1      44.316   3.292   8.080  0.00  0.00    +0.000 N 
ATOM     22  C   UNL     1      45.170   4.189   8.660  0.00  0.00    +0.000 C 
ATOM     23  O   UNL     1      46.013   4.779   7.995  0.00  0.00    +0.000 OA
ATOM     24  H   UNL     1      44.369   3.213   7.073  0.00  0.00    +0.000 HD
ATOM     25  H   UNL     1      43.465   2.990   8.531  0.00  0.00    +0.000 HD
ENDBRANCH  15  22
ENDBRANCH  14  19
ENDBRANCH   1  14
TORSDOF 5
ENDMDL
