MODEL 1
REMARK VINA RESULT:    -8.640      0.000      0.000
REMARK INTER + INTRA:         -11.941
REMARK INTER:                 -11.166
REMARK INTRA:                  -0.776
REMARK UNBOUND:                -0.776
REMARK  Name = 
REMARK  5 active torsions:
REMARK  status: ('A' for Active; 'I' for Inactive)
REMARK    1  A    between atoms: C_2  and  C_3
REMARK    2  A    between atoms: C_7  and  N_8
REMARK    3  A    between atoms: N_8  and  C_9
REMARK    4  A    between atoms: C_9  and  C_10
REMARK    5  A    between atoms: C_14  and  C_15
REMARK                            x       y       z     vdW  Elec       q    Type
REMARK                         _______ _______ _______ _____ _____    ______ ____
ROOT
ATOM      1  C   UNL     1      43.596   4.956  10.796  0.00  0.00    +0.000 A 
ATOM      2  C   UNL     1      43.013   3.960  11.566  0.00  0.00    +0.000 A 
ATOM      3  N   UNL     1      43.191   2.641  11.350  0.00  0.00    +0.000 NA
ATOM      4  C   UNL     1      44.008   2.297  10.323  0.00  0.00    +0.000 A 
ATOM      5  C   UNL     1      44.666   3.192   9.475  0.00  0.00    +0.000 A 
ATOM      6  C   UNL     1      44.432   4.551   9.745  0.00  0.00    +0.000 A 
ENDROOT
BRANCH   5   7
ATOM      7  C   UNL     1      45.549   2.738   8.373  0.00  0.00    +0.000 A 
ATOM      8  C   UNL     1      45.869   3.575   7.285  0.00  0.00    +0.000 A 
ATOM      9  C   UNL     1      46.700   3.142   6.246  0.00  0.00    +0.000 A 
ATOM     10  C   UNL     1      47.245   1.864   6.273  0.00  0.00    +0.000 A 
ATOM     11  C   UNL     1      46.948   1.015   7.333  0.00  0.00    +0.000 A 
ATOM     12  C   UNL     1      46.106   1.446   8.364  0.00  0.00    +0.000 A 
ENDBRANCH   5   7
BRANCH   1  13
ATOM     13  C   UNL     1      43.320   6.405  11.078  0.00  0.00    +0.000 C 
BRANCH  13  14
ATOM     14  N   UNL     1      44.025   6.856  12.251  0.00  0.00    +0.000 N 
ATOM     15  H   UNL     1      43.547   7.397  12.962  0.00  0.00    +0.000 HD
BRANCH  14  20
ATOM     16  C   UNL     1      46.938   5.401  13.655  0.00  0.00    +0.000 A 
ATOM     17  C   UNL     1      48.002   6.086  13.085  0.00  0.00    +0.000 A 
ATOM     18  C   UNL     1      47.708   7.090  12.177  0.00  0.00    +0.000 A 
ATOM     19  C   UNL     1      46.375   7.366  11.878  0.00  0.00    +0.000 A 
ATOM     20  C   UNL     1      45.357   6.640  12.492  0.00  0.00    +0.000 A 
ATOM     21  N   UNL     1      45.635   5.663  13.375  0.00  0.00    +0.000 NA
BRANCH  16  23
ATOM     22  N   UNL     1      47.370   3.456  15.324  0.00  0.00    +0.000 NA
ATOM     23  C   UNL     1      47.181   4.343  14.600  0.00  0.00    +0.000 C 
ENDBRANCH  16  23
ENDBRANCH  14  20
ENDBRANCH  13  14
ENDBRANCH   1  13
TORSDOF 5
ENDMDL
MODEL 2
REMARK VINA RESULT:    -8.005      1.350      2.160
REMARK INTER + INTRA:         -11.121
REMARK INTER:                 -10.383
REMARK INTRA:                  -0.737
REMARK UNBOUND:                -0.776
REMARK  Name = 
REMARK  5 active torsions:
REMARK  status: ('A' for Active; 'I' for Inactive)
REMARK    1  A    between atoms: C_2  and  C_3
REMARK    2  A    between atoms: C_7  and  N_8
REMARK    3  A    between atoms: N_8  and  C_9
REMARK    4  A    between atoms: C_9  and  C_10
REMARK    5  A    between atoms: C_14  and  C_15
REMARK                            x       y       z     vdW  Elec       q    Type
REMARK                         _______ _______ _______ _____ _____    ______ ____
ROOT
ATOM      1  C   UNL     1      43.695   5.018  10.854  0.00  0.00    +0.000 A 
ATOM      2  C   UNL     1      43.074   4.017  11.587  0.00  0.00    +0.000 A 
ATOM      3  N   UNL     1      43.216   2.701  11.332  0.00  0.00    +0.000 NA
ATOM      4  C   UNL     1      44.034   2.364  10.304  0.00  0.00    +0.000 A 
ATOM      5  C   UNL     1      44.728   3.263   9.491  0.00  0.00    +0.000 A 
ATOM      6  C   UNL     1      44.531   4.621   9.799  0.00  0.00    +0.000 A 
ENDROOT
BRANCH   5   7
ATOM      7  C   UNL     1      45.610   2.817   8.385  0.00  0.00    +0.000 A 
ATOM      8  C   UNL     1      45.995   3.687   7.344  0.00  0.00    +0.000 A 
ATOM      9  C   UNL     1      46.825   3.261   6.301  0.00  0.00    +0.000 A 
ATOM     10  C   UNL     1      47.304   1.956   6.278  0.00  0.00    +0.000 A 
ATOM     11  C   UNL     1      46.942   1.075   7.290  0.00  0.00    +0.000 A 
ATOM     12  C   UNL     1      46.100   1.500   8.325  0.00  0.00    +0.000 A 
ENDBRANCH   5   7
BRANCH   1  13
ATOM     13  C   UNL     1      43.459   6.466  11.177  0.00  0.00    +0.000 C 
BRANCH  13  14
ATOM     14  N   UNL     1      44.142   6.853  12.385  0.00  0.00    +0.000 N 
ATOM     15  H   UNL     1      43.644   7.333  13.126  0.00  0.00    +0.000 HD
BRANCH  14  20
ATOM     16  C   UNL     1      47.635   7.464  12.353  0.00  0.00    +0.000 A 
ATOM     17  C   UNL     1      48.201   6.391  13.026  0.00  0.00    +0.000 A 
ATOM     18  C   UNL     1      47.347   5.416  13.516  0.00  0.00    +0.000 A 
ATOM     19  C   UNL     1      45.975   5.551  13.314  0.00  0.00    +0.000 A 
ATOM     20  C   UNL     1      45.476   6.653  12.625  0.00  0.00    +0.000 A 
ATOM     21  N   UNL     1      46.300   7.605  12.146  0.00  0.00    +0.000 NA
BRANCH  16  23
ATOM     22  N   UNL     1      49.159   9.366  11.452  0.00  0.00    +0.000 NA
ATOM     23  C   UNL     1      48.470   8.511  11.827  0.00  0.00    +0.000 C 
ENDBRANCH  16  23
ENDBRANCH  14  20
ENDBRANCH  13  14
ENDBRANCH   1  13
TORSDOF 5
ENDMDL
MODEL 3
REMARK VINA RESULT:    -7.779      1.446      1.973
REMARK INTER + INTRA:         -10.828
REMARK INTER:                 -10.189
REMARK INTRA:                  -0.639
REMARK UNBOUND:                -0.776
REMARK  Name = 
REMARK  5 active torsions:
REMARK  status: ('A' for Active; 'I' for Inactive)
REMARK    1  A    between atoms: C_2  and  C_3
REMARK    2  A    between atoms: C_7  and  N_8
REMARK    3  A    between atoms: N_8  and  C_9
REMARK    4  A    between atoms: C_9  and  C_10
REMARK    5  A    between atoms: C_14  and  C_15
REMARK                            x       y       z     vdW  Elec       q    Type
REMARK                         _______ _______ _______ _____ _____    ______ ____
ROOT
ATOM      1  C   UNL     1      43.701   4.928  10.948  0.00  0.00    +0.000 A 
ATOM      2  C   UNL     1      43.076   3.908  11.652  0.00  0.00    +0.000 A 
ATOM      3  N   UNL     1      43.211   2.600  11.358  0.00  0.00    +0.000 NA
ATOM      4  C   UNL     1      44.027   2.290  10.319  0.00  0.00    +0.000 A 
ATOM      5  C   UNL     1      44.724   3.210   9.532  0.00  0.00    +0.000 A 
ATOM      6  C   UNL     1      44.534   4.558   9.881  0.00  0.00    +0.000 A 
ENDROOT
BRANCH   5   7
ATOM      7  C   UNL     1      45.601   2.793   8.411  0.00  0.00    +0.000 A 
ATOM      8  C   UNL     1      46.126   1.488   8.324  0.00  0.00    +0.000 A 
ATOM      9  C   UNL     1      46.955   1.100   7.266  0.00  0.00    +0.000 A 
ATOM     10  C   UNL     1      47.271   2.003   6.257  0.00  0.00    +0.000 A 
ATOM     11  C   UNL     1      46.768   3.298   6.315  0.00  0.00    +0.000 A 
ATOM     12  C   UNL     1      45.950   3.688   7.382  0.00  0.00    +0.000 A 
ENDBRANCH   5   7
BRANCH   1  13
ATOM     13  C   UNL     1      43.473   6.367  11.315  0.00  0.00    +0.000 C 
BRANCH  13  14
ATOM     14  N   UNL     1      44.174   6.719  12.524  0.00  0.00    +0.000 N 
ATOM     15  H   UNL     1      43.881   6.341  13.417  0.00  0.00    +0.000 HD
BRANCH  14  20
ATOM     16  C   UNL     1      47.431   7.914  13.257  0.00  0.00    +0.000 A 
ATOM     17  C   UNL     1      47.456   9.221  12.790  0.00  0.00    +0.000 A 
ATOM     18  C   UNL     1      46.306   9.713  12.194  0.00  0.00    +0.000 A 
ATOM     19  C   UNL     1      45.188   8.888  12.091  0.00  0.00    +0.000 A 
ATOM     20  C   UNL     1      45.232   7.587  12.586  0.00  0.00    +0.000 A 
ATOM     21  N   UNL     1      46.347   7.101  13.166  0.00  0.00    +0.000 NA
BRANCH  16  23
ATOM     22  N   UNL     1      49.563   6.893  14.336  0.00  0.00    +0.000 NA
ATOM     23  C   UNL     1      48.597   7.345  13.879  0.00  0.00    +0.000 C 
ENDBRANCH  16  23
ENDBRANCH  14  20
ENDBRANCH  13  14
ENDBRANCH   1  13
TORSDOF 5
ENDMDL
MODEL 4
REMARK VINA RESULT:    -7.757      1.652      2.855
REMARK INTER + INTRA:         -10.800
REMARK INTER:                 -10.046
REMARK INTRA:                  -0.754
REMARK UNBOUND:                -0.776
REMARK  Name = 
REMARK  5 active torsions:
REMARK  status: ('A' for Active; 'I' for Inactive)
REMARK    1  A    between atoms: C_2  and  C_3
REMARK    2  A    between atoms: C_7  and  N_8
REMARK    3  A    between atoms: N_8  and  C_9
REMARK    4  A    between atoms: C_9  and  C_10
REMARK    5  A    between atoms: C_14  and  C_15
REMARK                            x       y       z     vdW  Elec       q    Type
REMARK                         _______ _______ _______ _____ _____    ______ ____
ROOT
ATOM      1  C   UNL     1      43.790   5.035  11.008  0.00  0.00    +0.000 A 
ATOM      2  C   UNL     1      43.132   4.025  11.697  0.00  0.00    +0.000 A 
ATOM      3  N   UNL     1      43.228   2.717  11.386  0.00  0.00    +0.000 NA
ATOM      4  C   UNL     1      44.037   2.396  10.345  0.00  0.00    +0.000 A 
ATOM      5  C   UNL     1      44.764   3.305   9.572  0.00  0.00    +0.000 A 
ATOM      6  C   UNL     1      44.615   4.654   9.938  0.00  0.00    +0.000 A 
ENDROOT
BRANCH   5   7
ATOM      7  C   UNL     1      45.632   2.876   8.448  0.00  0.00    +0.000 A 
ATOM      8  C   UNL     1      46.161   1.572   8.373  0.00  0.00    +0.000 A 
ATOM      9  C   UNL     1      46.981   1.173   7.312  0.00  0.00    +0.000 A 
ATOM     10  C   UNL     1      47.284   2.064   6.289  0.00  0.00    +0.000 A 
ATOM     11  C   UNL     1      46.777   3.358   6.334  0.00  0.00    +0.000 A 
ATOM     12  C   UNL     1      45.968   3.758   7.404  0.00  0.00    +0.000 A 
ENDBRANCH   5   7
BRANCH   1  13
ATOM     13  C   UNL     1      43.604   6.474  11.393  0.00  0.00    +0.000 C 
BRANCH  13  14
ATOM     14  N   UNL     1      44.425   6.826  12.525  0.00  0.00    +0.000 N 
ATOM     15  H   UNL     1      44.047   6.791  13.465  0.00  0.00    +0.000 HD
BRANCH  14  20
ATOM     16  C   UNL     1      47.146   9.081  12.238  0.00  0.00    +0.000 A 
ATOM     17  C   UNL     1      48.284   8.287  12.262  0.00  0.00    +0.000 A 
ATOM     18  C   UNL     1      48.111   6.918  12.385  0.00  0.00    +0.000 A 
ATOM     19  C   UNL     1      46.820   6.403  12.478  0.00  0.00    +0.000 A 
ATOM     20  C   UNL     1      45.722   7.259  12.443  0.00  0.00    +0.000 A 
ATOM     21  N   UNL     1      45.882   8.591  12.324  0.00  0.00    +0.000 NA
BRANCH  16  23
ATOM     22  N   UNL     1      47.383  11.664  12.068  0.00  0.00    +0.000 NA
ATOM     23  C   UNL     1      47.262  10.510  12.119  0.00  0.00    +0.000 C 
ENDBRANCH  16  23
ENDBRANCH  14  20
ENDBRANCH  13  14
ENDBRANCH   1  13
TORSDOF 5
ENDMDL
MODEL 5
REMARK VINA RESULT:    -7.699      2.208      6.331
REMARK INTER + INTRA:         -10.725
REMARK INTER:                  -9.981
REMARK INTRA:                  -0.745
REMARK UNBOUND:                -0.776
REMARK  Name = 
REMARK  5 active torsions:
REMARK  status: ('A' for Active; 'I' for Inactive)
REMARK    1  A    between atoms: C_2  and  C_3
REMARK    2  A    between atoms: C_7  and  N_8
REMARK    3  A    between atoms: N_8  and  C_9
REMARK    4  A    between atoms: C_9  and  C_10
REMARK    5  A    between atoms: C_14  and  C_15
REMARK                            x       y       z     vdW  Elec       q    Type
REMARK                         _______ _______ _______ _____ _____    ______ ____
ROOT
ATOM      1  C   UNL     1      44.926   4.034  11.433  0.00  0.00    +0.000 A 
ATOM      2  C   UNL     1      45.378   3.290  12.514  0.00  0.00    +0.000 A 
ATOM      3  N   UNL     1      46.259   3.749  13.425  0.00  0.00    +0.000 NA
ATOM      4  C   UNL     1      46.699   5.022  13.261  0.00  0.00    +0.000 A 
ATOM      5  C   UNL     1      46.321   5.884  12.229  0.00  0.00    +0.000 A 
ATOM      6  C   UNL     1      45.409   5.345  11.305  0.00  0.00    +0.000 A 
ENDROOT
BRANCH   5   7
ATOM      7  C   UNL     1      46.844   7.267  12.117  0.00  0.00    +0.000 A 
ATOM      8  C   UNL     1      48.199   7.529  11.831  0.00  0.00    +0.000 A 
ATOM      9  C   UNL     1      48.688   8.836  11.729  0.00  0.00    +0.000 A 
ATOM     10  C   UNL     1      47.832   9.918  11.898  0.00  0.00    +0.000 A 
ATOM     11  C   UNL     1      46.489   9.693  12.181  0.00  0.00    +0.000 A 
ATOM     12  C   UNL     1      46.006   8.384  12.296  0.00  0.00    +0.000 A 
ENDBRANCH   5   7
BRANCH   1  13
ATOM     13  C   UNL     1      43.969   3.440  10.439  0.00  0.00    +0.000 C 
BRANCH  13  14
ATOM     14  N   UNL     1      44.280   3.856   9.095  0.00  0.00    +0.000 N 
ATOM     15  H   UNL     1      43.684   4.516   8.610  0.00  0.00    +0.000 HD
BRANCH  14  20
ATOM     16  C   UNL     1      46.562   1.543   7.676  0.00  0.00    +0.000 A 
ATOM     17  C   UNL     1      47.448   2.311   6.933  0.00  0.00    +0.000 A 
ATOM     18  C   UNL     1      47.254   3.682   6.916  0.00  0.00    +0.000 A 
ATOM     19  C   UNL     1      46.192   4.226   7.635  0.00  0.00    +0.000 A 
ATOM     20  C   UNL     1      45.342   3.395   8.363  0.00  0.00    +0.000 A 
ATOM     21  N   UNL     1      45.525   2.061   8.384  0.00  0.00    +0.000 NA
BRANCH  16  23
ATOM     22  N   UNL     1      46.871  -1.037   7.739  0.00  0.00    +0.000 NA
ATOM     23  C   UNL     1      46.709   0.113   7.726  0.00  0.00    +0.000 C 
ENDBRANCH  16  23
ENDBRANCH  14  20
ENDBRANCH  13  14
ENDBRANCH   1  13
TORSDOF 5
ENDMDL
MODEL 6
REMARK VINA RESULT:    -7.209      2.820      4.670
REMARK INTER + INTRA:         -10.092
REMARK INTER:                  -9.593
REMARK INTRA:                  -0.499
REMARK UNBOUND:                -0.776
REMARK  Name = 
REMARK  5 active torsions:
REMARK  status: ('A' for Active; 'I' for Inactive)
REMARK    1  A    between atoms: C_2  and  C_3
REMARK    2  A    between atoms: C_7  and  N_8
REMARK    3  A    between atoms: N_8  and  C_9
REMARK    4  A    between atoms: C_9  and  C_10
REMARK    5  A    between atoms: C_14  and  C_15
REMARK                            x       y       z     vdW  Elec       q    Type
REMARK                         _______ _______ _______ _____ _____    ______ ____
ROOT
ATOM      1  C   UNL     1      44.232   5.217  11.213  0.00  0.00    +0.000 A 
ATOM      2  C   UNL     1      43.342   4.321  11.788  0.00  0.00    +0.000 A 
ATOM      3  N   UNL     1      43.168   3.054  11.360  0.00  0.00    +0.000 NA
ATOM      4  C   UNL     1      43.936   2.653  10.315  0.00  0.00    +0.000 A 
ATOM      5  C   UNL     1      44.876   3.444   9.650  0.00  0.00    +0.000 A 
ATOM      6  C   UNL     1      45.004   4.756  10.135  0.00  0.00    +0.000 A 
ENDROOT
BRANCH   5   7
ATOM      7  C   UNL     1      45.682   2.932   8.514  0.00  0.00    +0.000 A 
ATOM      8  C   UNL     1      46.048   1.575   8.414  0.00  0.00    +0.000 A 
ATOM      9  C   UNL     1      46.810   1.097   7.342  0.00  0.00    +0.000 A 
ATOM     10  C   UNL     1      47.216   1.963   6.333  0.00  0.00    +0.000 A 
ATOM     11  C   UNL     1      46.871   3.308   6.403  0.00  0.00    +0.000 A 
ATOM     12  C   UNL     1      46.120   3.785   7.484  0.00  0.00    +0.000 A 
ENDBRANCH   5   7
BRANCH   1  13
ATOM     13  C   UNL     1      44.343   6.624  11.725  0.00  0.00    +0.000 C 
BRANCH  13  14
ATOM     14  N   UNL     1      43.490   7.521  10.987  0.00  0.00    +0.000 N 
ATOM     15  H   UNL     1      42.772   7.158  10.373  0.00  0.00    +0.000 HD
BRANCH  14  20
ATOM     16  C   UNL     1      42.548  10.912  10.551  0.00  0.00    +0.000 A 
ATOM     17  C   UNL     1      43.629  11.654  11.004  0.00  0.00    +0.000 A 
ATOM     18  C   UNL     1      44.730  10.962  11.482  0.00  0.00    +0.000 A 
ATOM     19  C   UNL     1      44.705   9.569  11.488  0.00  0.00    +0.000 A 
ATOM     20  C   UNL     1      43.587   8.888  11.015  0.00  0.00    +0.000 A 
ATOM     21  N   UNL     1      42.513   9.554  10.549  0.00  0.00    +0.000 NA
BRANCH  16  23
ATOM     22  N   UNL     1      40.402  12.098   9.689  0.00  0.00    +0.000 NA
ATOM     23  C   UNL     1      41.373  11.574  10.049  0.00  0.00    +0.000 C 
ENDBRANCH  16  23
ENDBRANCH  14  20
ENDBRANCH  13  14
ENDBRANCH   1  13
TORSDOF 5
ENDMDL
MODEL 7
REMARK VINA RESULT:    -7.127      2.018      6.342
REMARK INTER + INTRA:          -9.986
REMARK INTER:                  -9.338
REMARK INTRA:                  -0.648
REMARK UNBOUND:                -0.776
REMARK  Name = 
REMARK  5 active torsions:
REMARK  status: ('A' for Active; 'I' for Inactive)
REMARK    1  A    between atoms: C_2  and  C_3
REMARK    2  A    between atoms: C_7  and  N_8
REMARK    3  A    between atoms: N_8  and  C_9
REMARK    4  A    between atoms: C_9  and  C_10
REMARK    5  A    between atoms: C_14  and  C_15
REMARK                            x       y       z     vdW  Elec       q    Type
REMARK                         _______ _______ _______ _____ _____    ______ ____
ROOT
ATOM      1  C   UNL     1      44.671   4.989  11.678  0.00  0.00    +0.000 A 
ATOM      2  C   UNL     1      43.782   6.010  11.376  0.00  0.00    +0.000 A 
ATOM      3  N   UNL     1      44.083   7.321  11.467  0.00  0.00    +0.000 NA
ATOM      4  C   UNL     1      45.343   7.630  11.863  0.00  0.00    +0.000 A 
ATOM      5  C   UNL     1      46.341   6.708  12.189  0.00  0.00    +0.000 A 
ATOM      6  C   UNL     1      45.963   5.358  12.084  0.00  0.00    +0.000 A 
ENDROOT
BRANCH   5   7
ATOM      7  C   UNL     1      47.700   7.124  12.612  0.00  0.00    +0.000 A 
ATOM      8  C   UNL     1      48.580   7.791  11.736  0.00  0.00    +0.000 A 
ATOM      9  C   UNL     1      49.862   8.179  12.139  0.00  0.00    +0.000 A 
ATOM     10  C   UNL     1      50.295   7.924  13.435  0.00  0.00    +0.000 A 
ATOM     11  C   UNL     1      49.450   7.268  14.323  0.00  0.00    +0.000 A 
ATOM     12  C   UNL     1      48.173   6.868  13.913  0.00  0.00    +0.000 A 
ENDBRANCH   5   7
BRANCH   1  13
ATOM     13  C   UNL     1      44.249   3.550  11.586  0.00  0.00    +0.000 C 
BRANCH  13  14
ATOM     14  N   UNL     1      43.951   3.176  10.226  0.00  0.00    +0.000 N 
ATOM     15  H   UNL     1      42.999   2.968   9.947  0.00  0.00    +0.000 HD
BRANCH  14  20
ATOM     16  C   UNL     1      46.211   1.567   8.018  0.00  0.00    +0.000 A 
ATOM     17  C   UNL     1      46.770   2.586   7.259  0.00  0.00    +0.000 A 
ATOM     18  C   UNL     1      46.352   3.882   7.515  0.00  0.00    +0.000 A 
ATOM     19  C   UNL     1      45.401   4.105   8.508  0.00  0.00    +0.000 A 
ATOM     20  C   UNL     1      44.885   3.035   9.234  0.00  0.00    +0.000 A 
ATOM     21  N   UNL     1      45.286   1.772   8.991  0.00  0.00    +0.000 NA
BRANCH  16  23
ATOM     22  N   UNL     1      46.960  -0.892   7.634  0.00  0.00    +0.000 NA
ATOM     23  C   UNL     1      46.600   0.200   7.794  0.00  0.00    +0.000 C 
ENDBRANCH  16  23
ENDBRANCH  14  20
ENDBRANCH  13  14
ENDBRANCH   1  13
TORSDOF 5
ENDMDL
MODEL 8
REMARK VINA RESULT:    -6.865      1.935      2.809
REMARK INTER + INTRA:          -9.647
REMARK INTER:                  -9.006
REMARK INTRA:                  -0.641
REMARK UNBOUND:                -0.776
REMARK  Name = 
REMARK  5 active torsions:
REMARK  status: ('A' for Active; 'I' for Inactive)
REMARK    1  A    between atoms: C_2  and  C_3
REMARK    2  A    between atoms: C_7  and  N_8
REMARK    3  A    between atoms: N_8  and  C_9
REMARK    4  A    between atoms: C_9  and  C_10
REMARK    5  A    between atoms: C_14  and  C_15
REMARK                            x       y       z     vdW  Elec       q    Type
REMARK                         _______ _______ _______ _____ _____    ______ ____
ROOT
ATOM      1  C   UNL     1      45.215   6.081  11.236  0.00  0.00    +0.000 A 
ATOM      2  C   UNL     1      43.844   5.933  11.393  0.00  0.00    +0.000 A 
ATOM      3  N   UNL     1      43.096   5.064  10.684  0.00  0.00    +0.000 NA
ATOM      4  C   UNL     1      43.752   4.289   9.784  0.00  0.00    +0.000 A 
ATOM      5  C   UNL     1      45.125   4.324   9.530  0.00  0.00    +0.000 A 
ATOM      6  C   UNL     1      45.849   5.257  10.293  0.00  0.00    +0.000 A 
ENDROOT
BRANCH   5   7
ATOM      7  C   UNL     1      45.771   3.441   8.530  0.00  0.00    +0.000 A 
ATOM      8  C   UNL     1      45.851   2.045   8.712  0.00  0.00    +0.000 A 
ATOM      9  C   UNL     1      46.464   1.215   7.767  0.00  0.00    +0.000 A 
ATOM     10  C   UNL     1      47.002   1.758   6.605  0.00  0.00    +0.000 A 
ATOM     11  C   UNL     1      46.938   3.131   6.396  0.00  0.00    +0.000 A 
ATOM     12  C   UNL     1      46.337   3.960   7.350  0.00  0.00    +0.000 A 
ENDBRANCH   5   7
BRANCH   1  13
ATOM     13  C   UNL     1      45.975   7.098  12.040  0.00  0.00    +0.000 C 
BRANCH  13  14
ATOM     14  N   UNL     1      47.235   6.570  12.499  0.00  0.00    +0.000 N 
ATOM     15  H   UNL     1      48.052   6.596  11.901  0.00  0.00    +0.000 HD
BRANCH  14  20
ATOM     16  C   UNL     1      48.524   6.076  15.766  0.00  0.00    +0.000 A 
ATOM     17  C   UNL     1      47.940   4.901  16.216  0.00  0.00    +0.000 A 
ATOM     18  C   UNL     1      47.064   4.250  15.364  0.00  0.00    +0.000 A 
ATOM     19  C   UNL     1      46.808   4.794  14.107  0.00  0.00    +0.000 A 
ATOM     20  C   UNL     1      47.433   5.977  13.718  0.00  0.00    +0.000 A 
ATOM     21  N   UNL     1      48.287   6.615  14.542  0.00  0.00    +0.000 NA
BRANCH  16  23
ATOM     22  N   UNL     1      50.171   7.425  17.256  0.00  0.00    +0.000 NA
ATOM     23  C   UNL     1      49.438   6.801  16.608  0.00  0.00    +0.000 C 
ENDBRANCH  16  23
ENDBRANCH  14  20
ENDBRANCH  13  14
ENDBRANCH   1  13
TORSDOF 5
ENDMDL
MODEL 9
REMARK VINA RESULT:    -6.701      2.559      6.594
REMARK INTER + INTRA:          -9.435
REMARK INTER:                  -8.690
REMARK INTRA:                  -0.745
REMARK UNBOUND:                -0.776
REMARK  Name = 
REMARK  5 active torsions:
REMARK  status: ('A' for Active; 'I' for Inactive)
REMARK    1  A    between atoms: C_2  and  C_3
REMARK    2  A    between atoms: C_7  and  N_8
REMARK    3  A    between atoms: N_8  and  C_9
REMARK    4  A    between atoms: C_9  and  C_10
REMARK    5  A    between atoms: C_14  and  C_15
REMARK                            x       y       z     vdW  Elec       q    Type
REMARK                         _______ _______ _______ _____ _____    ______ ____
ROOT
ATOM      1  C   UNL     1      45.524   5.830  12.042  0.00  0.00    +0.000 A 
ATOM      2  C   UNL     1      45.878   5.006  13.102  0.00  0.00    +0.000 A 
ATOM      3  N   UNL     1      47.054   5.085  13.755  0.00  0.00    +0.000 NA
ATOM      4  C   UNL     1      47.917   6.048  13.342  0.00  0.00    +0.000 A 
ATOM      5  C   UNL     1      47.689   6.949  12.299  0.00  0.00    +0.000 A 
ATOM      6  C   UNL     1      46.449   6.809  11.651  0.00  0.00    +0.000 A 
ENDROOT
BRANCH   5   7
ATOM      7  C   UNL     1      48.682   7.978  11.907  0.00  0.00    +0.000 A 
ATOM      8  C   UNL     1      48.334   9.338  11.782  0.00  0.00    +0.000 A 
ATOM      9  C   UNL     1      49.274  10.305  11.409  0.00  0.00    +0.000 A 
ATOM     10  C   UNL     1      50.593   9.940  11.164  0.00  0.00    +0.000 A 
ATOM     11  C   UNL     1      50.967   8.606  11.279  0.00  0.00    +0.000 A 
ATOM     12  C   UNL     1      50.021   7.639  11.639  0.00  0.00    +0.000 A 
ENDBRANCH   5   7
BRANCH   1  13
ATOM     13  C   UNL     1      44.207   5.657  11.341  0.00  0.00    +0.000 C 
BRANCH  13  14
ATOM     14  N   UNL     1      44.389   5.409   9.933  0.00  0.00    +0.000 N 
ATOM     15  H   UNL     1      44.228   6.146   9.257  0.00  0.00    +0.000 HD
BRANCH  14  20
ATOM     16  C   UNL     1      45.817   3.096   7.656  0.00  0.00    +0.000 A 
ATOM     17  C   UNL     1      45.530   1.843   8.179  0.00  0.00    +0.000 A 
ATOM     18  C   UNL     1      44.817   1.788   9.365  0.00  0.00    +0.000 A 
ATOM     19  C   UNL     1      44.424   2.976   9.977  0.00  0.00    +0.000 A 
ATOM     20  C   UNL     1      44.743   4.200   9.394  0.00  0.00    +0.000 A 
ATOM     21  N   UNL     1      45.436   4.262   8.240  0.00  0.00    +0.000 NA
BRANCH  16  23
ATOM     22  N   UNL     1      47.117   3.298   5.415  0.00  0.00    +0.000 NA
ATOM     23  C   UNL     1      46.559   3.217   6.430  0.00  0.00    +0.000 C 
ENDBRANCH  16  23
ENDBRANCH  14  20
ENDBRANCH  13  14
ENDBRANCH   1  13
TORSDOF 5
ENDMDL
