MODEL 1
REMARK VINA RESULT:    -8.683      0.000      0.000
REMARK INTER + INTRA:         -13.633
REMARK INTER:                 -12.490
REMARK INTRA:                  -1.144
REMARK UNBOUND:                -1.144
REMARK  Name = 
REMARK  9 active torsions:
REMARK  status: ('A' for Active; 'I' for Inactive)
REMARK    1  A    between atoms: C_1  and  C_2
REMARK    2  A    between atoms: C_2  and  O_3
REMARK    3  A    between atoms: C_2  and  C_4
REMARK    4  A    between atoms: C_2  and  C_15
REMARK    5  A    between atoms: C_4  and  O_5
REMARK    6  A    between atoms: O_5  and  C_6
REMARK    7  A    between atoms: C_9  and  C_10
REMARK    8  A    between atoms: C_19  and  O_20
REMARK    9  A    between atoms: O_20  and  C_21
REMARK                            x       y       z     vdW  Elec       q    Type
REMARK                         _______ _______ _______ _____ _____    ______ ____
ROOT
ATOM      1  C   UNL     1      43.847   3.512  12.934  0.00  0.00    +0.000 C 
ATOM      2  C   UNL     1      43.997   4.901  12.298  0.00  0.00    +0.000 C 
ENDROOT
BRANCH   2   3
ATOM      3  C   UNL     1      45.384   5.492  12.583  0.00  0.00    +0.000 A 
ATOM      4  C   UNL     1      45.970   6.435  11.721  0.00  0.00    +0.000 A 
ATOM      5  C   UNL     1      47.298   6.812  11.868  0.00  0.00    +0.000 A 
ATOM      6  C   UNL     1      48.046   6.331  12.935  0.00  0.00    +0.000 A 
ATOM      7  C   UNL     1      47.444   5.548  13.919  0.00  0.00    +0.000 A 
ATOM      8  C   UNL     1      46.133   5.090  13.712  0.00  0.00    +0.000 A 
BRANCH   7   9
ATOM      9  O   UNL     1      48.040   5.200  15.111  0.00  0.00    +0.000 OA
BRANCH   9  10
ATOM     10  C   UNL     1      47.317   4.255  15.922  0.00  0.00    +0.000 C 
ATOM     11  C   UNL     1      47.238   4.722  17.369  0.00  0.00    +0.000 C 
ATOM     12  C   UNL     1      48.384   4.028  18.080  0.00  0.00    +0.000 C 
ATOM     13  N   UNL     1      48.638   2.779  17.365  0.00  0.00    +0.000 NA
ATOM     14  C   UNL     1      48.018   2.892  16.037  0.00  0.00    +0.000 C 
ATOM     15  H   UNL     1      48.229   1.992  17.867  0.00  0.00    +0.000 HD
ENDBRANCH   9  10
ENDBRANCH   7   9
ENDBRANCH   2   3
BRANCH   2  16
ATOM     16  O   UNL     1      43.012   5.754  12.905  0.00  0.00    +0.000 OA
ATOM     17  H   UNL     1      42.298   5.180  13.232  0.00  0.00    +0.000 HD
ENDBRANCH   2  16
BRANCH   2  18
ATOM     18  C   UNL     1      43.643   4.800  10.790  0.00  0.00    +0.000 C 
BRANCH  18  19
ATOM     19  O   UNL     1      43.546   3.432  10.352  0.00  0.00    +0.000 OA
BRANCH  19  20
ATOM     20  C   UNL     1      44.479   3.143   9.379  0.00  0.00    +0.000 A 
ATOM     21  C   UNL     1      44.976   4.199   8.636  0.00  0.00    +0.000 A 
ATOM     22  C   UNL     1      46.001   3.936   7.728  0.00  0.00    +0.000 A 
ATOM     23  C   UNL     1      46.467   2.631   7.580  0.00  0.00    +0.000 A 
ATOM     24  C   UNL     1      45.871   1.634   8.337  0.00  0.00    +0.000 A 
ATOM     25  N   UNL     1      44.877   1.861   9.224  0.00  0.00    +0.000 NA
BRANCH  23  26
ATOM     26  C   UNL     1      47.600   2.271   6.709  0.00  0.00    +0.000 C 
ATOM     27  N   UNL     1      47.817   3.061   5.610  0.00  0.00    +0.000 N 
ATOM     28  O   UNL     1      48.310   1.309   6.942  0.00  0.00    +0.000 OA
ATOM     29  H   UNL     1      47.161   3.752   5.275  0.00  0.00    +0.000 HD
ATOM     30  H   UNL     1      48.566   2.776   4.985  0.00  0.00    +0.000 HD
ENDBRANCH  23  26
ENDBRANCH  19  20
ENDBRANCH  18  19
ENDBRANCH   2  18
TORSDOF 8
ENDMDL
MODEL 2
REMARK VINA RESULT:    -7.859      2.740      4.091
REMARK INTER + INTRA:         -12.448
REMARK INTER:                 -11.317
REMARK INTRA:                  -1.131
REMARK UNBOUND:                -1.144
REMARK  Name = 
REMARK  9 active torsions:
REMARK  status: ('A' for Active; 'I' for Inactive)
REMARK    1  A    between atoms: C_1  and  C_2
REMARK    2  A    between atoms: C_2  and  O_3
REMARK    3  A    between atoms: C_2  and  C_4
REMARK    4  A    between atoms: C_2  and  C_15
REMARK    5  A    between atoms: C_4  and  O_5
REMARK    6  A    between atoms: O_5  and  C_6
REMARK    7  A    between atoms: C_9  and  C_10
REMARK    8  A    between atoms: C_19  and  O_20
REMARK    9  A    between atoms: O_20  and  C_21
REMARK                            x       y       z     vdW  Elec       q    Type
REMARK                         _______ _______ _______ _____ _____    ______ ____
ROOT
ATOM      1  C   UNL     1      42.832   4.849  13.297  0.00  0.00    +0.000 C 
ATOM      2  C   UNL     1      43.601   5.283  12.041  0.00  0.00    +0.000 C 
ENDROOT
BRANCH   2   3
ATOM      3  C   UNL     1      45.084   5.519  12.355  0.00  0.00    +0.000 A 
ATOM      4  C   UNL     1      45.846   4.564  13.050  0.00  0.00    +0.000 A 
ATOM      5  C   UNL     1      47.122   4.862  13.510  0.00  0.00    +0.000 A 
ATOM      6  C   UNL     1      47.704   6.086  13.207  0.00  0.00    +0.000 A 
ATOM      7  C   UNL     1      47.056   6.982  12.357  0.00  0.00    +0.000 A 
ATOM      8  C   UNL     1      45.730   6.718  11.978  0.00  0.00    +0.000 A 
BRANCH   7   9
ATOM      9  O   UNL     1      47.635   8.117  11.833  0.00  0.00    +0.000 OA
BRANCH   9  10
ATOM     10  C   UNL     1      47.463   9.322  12.604  0.00  0.00    +0.000 C 
ATOM     11  C   UNL     1      46.777  10.404  11.781  0.00  0.00    +0.000 C 
ATOM     12  C   UNL     1      47.900  11.257  11.222  0.00  0.00    +0.000 C 
ATOM     13  N   UNL     1      49.016  11.164  12.159  0.00  0.00    +0.000 NA
ATOM     14  C   UNL     1      48.791   9.981  13.004  0.00  0.00    +0.000 C 
ATOM     15  H   UNL     1      49.061  11.998  12.744  0.00  0.00    +0.000 HD
ENDBRANCH   9  10
ENDBRANCH   7   9
ENDBRANCH   2   3
BRANCH   2  16
ATOM     16  O   UNL     1      43.031   6.529  11.604  0.00  0.00    +0.000 OA
ATOM     17  H   UNL     1      42.190   6.319  11.162  0.00  0.00    +0.000 HD
ENDBRANCH   2  16
BRANCH   2  18
ATOM     18  C   UNL     1      43.342   4.246  10.915  0.00  0.00    +0.000 C 
BRANCH  18  19
ATOM     19  O   UNL     1      43.692   4.765   9.618  0.00  0.00    +0.000 OA
BRANCH  19  20
ATOM     20  C   UNL     1      44.689   4.022   9.026  0.00  0.00    +0.000 A 
ATOM     21  C   UNL     1      44.697   2.658   9.261  0.00  0.00    +0.000 A 
ATOM     22  C   UNL     1      45.631   1.880   8.579  0.00  0.00    +0.000 A 
ATOM     23  C   UNL     1      46.533   2.495   7.713  0.00  0.00    +0.000 A 
ATOM     24  C   UNL     1      46.476   3.874   7.579  0.00  0.00    +0.000 A 
ATOM     25  N   UNL     1      45.581   4.651   8.229  0.00  0.00    +0.000 NA
BRANCH  23  26
ATOM     26  C   UNL     1      47.499   1.748   6.887  0.00  0.00    +0.000 C 
ATOM     27  N   UNL     1      48.481   2.474   6.266  0.00  0.00    +0.000 N 
ATOM     28  O   UNL     1      47.426   0.539   6.749  0.00  0.00    +0.000 OA
ATOM     29  H   UNL     1      48.480   3.482   6.201  0.00  0.00    +0.000 HD
ATOM     30  H   UNL     1      49.109   1.960   5.655  0.00  0.00    +0.000 HD
ENDBRANCH  23  26
ENDBRANCH  19  20
ENDBRANCH  18  19
ENDBRANCH   2  18
TORSDOF 8
ENDMDL
MODEL 3
REMARK VINA RESULT:    -7.260      1.813      8.029
REMARK INTER + INTRA:         -11.587
REMARK INTER:                 -11.059
REMARK INTRA:                  -0.528
REMARK UNBOUND:                -1.144
REMARK  Name = 
REMARK  9 active torsions:
REMARK  status: ('A' for Active; 'I' for Inactive)
REMARK    1  A    between atoms: C_1  and  C_2
REMARK    2  A    between atoms: C_2  and  O_3
REMARK    3  A    between atoms: C_2  and  C_4
REMARK    4  A    between atoms: C_2  and  C_15
REMARK    5  A    between atoms: C_4  and  O_5
REMARK    6  A    between atoms: O_5  and  C_6
REMARK    7  A    between atoms: C_9  and  C_10
REMARK    8  A    between atoms: C_19  and  O_20
REMARK    9  A    between atoms: O_20  and  C_21
REMARK                            x       y       z     vdW  Elec       q    Type
REMARK                         _______ _______ _______ _____ _____    ______ ____
ROOT
ATOM      1  C   UNL     1      45.308   7.776  11.552  0.00  0.00    +0.000 C 
ATOM      2  C   UNL     1      45.228   6.372  12.168  0.00  0.00    +0.000 C 
ENDROOT
BRANCH   2   3
ATOM      3  C   UNL     1      44.904   5.318  11.101  0.00  0.00    +0.000 A 
ATOM      4  C   UNL     1      43.882   4.372  11.292  0.00  0.00    +0.000 A 
ATOM      5  C   UNL     1      43.727   3.300  10.424  0.00  0.00    +0.000 A 
ATOM      6  C   UNL     1      44.526   3.197   9.292  0.00  0.00    +0.000 A 
ATOM      7  C   UNL     1      45.418   4.218   8.967  0.00  0.00    +0.000 A 
ATOM      8  C   UNL     1      45.640   5.246   9.897  0.00  0.00    +0.000 A 
BRANCH   7   9
ATOM      9  O   UNL     1      46.095   4.308   7.770  0.00  0.00    +0.000 OA
BRANCH   9  10
ATOM     10  C   UNL     1      46.025   3.148   6.920  0.00  0.00    +0.000 C 
ATOM     11  C   UNL     1      46.796   1.981   7.522  0.00  0.00    +0.000 C 
ATOM     12  C   UNL     1      48.166   2.026   6.872  0.00  0.00    +0.000 C 
ATOM     13  N   UNL     1      47.996   2.639   5.557  0.00  0.00    +0.000 NA
ATOM     14  C   UNL     1      46.708   3.350   5.560  0.00  0.00    +0.000 C 
ATOM     15  H   UNL     1      47.991   1.926   4.829  0.00  0.00    +0.000 HD
ENDBRANCH   9  10
ENDBRANCH   7   9
ENDBRANCH   2   3
BRANCH   2  16
ATOM     16  O   UNL     1      44.153   6.388  13.123  0.00  0.00    +0.000 OA
ATOM     17  H   UNL     1      44.522   6.713  13.964  0.00  0.00    +0.000 HD
ENDBRANCH   2  16
BRANCH   2  18
ATOM     18  C   UNL     1      46.535   6.099  12.960  0.00  0.00    +0.000 C 
BRANCH  18  19
ATOM     19  O   UNL     1      46.656   4.714  13.334  0.00  0.00    +0.000 OA
BRANCH  19  20
ATOM     20  C   UNL     1      47.298   4.569  14.545  0.00  0.00    +0.000 A 
ATOM     21  C   UNL     1      47.922   5.684  15.075  0.00  0.00    +0.000 A 
ATOM     22  C   UNL     1      48.478   5.581  16.350  0.00  0.00    +0.000 A 
ATOM     23  C   UNL     1      48.413   4.366  17.029  0.00  0.00    +0.000 A 
ATOM     24  C   UNL     1      47.806   3.292  16.393  0.00  0.00    +0.000 A 
ATOM     25  N   UNL     1      47.260   3.366  15.158  0.00  0.00    +0.000 NA
BRANCH  23  26
ATOM     26  C   UNL     1      48.896   4.183  18.409  0.00  0.00    +0.000 C 
ATOM     27  N   UNL     1      48.377   3.131  19.117  0.00  0.00    +0.000 N 
ATOM     28  O   UNL     1      49.711   4.938  18.909  0.00  0.00    +0.000 OA
ATOM     29  H   UNL     1      47.578   2.591  18.818  0.00  0.00    +0.000 HD
ATOM     30  H   UNL     1      48.674   3.043  20.085  0.00  0.00    +0.000 HD
ENDBRANCH  23  26
ENDBRANCH  19  20
ENDBRANCH  18  19
ENDBRANCH   2  18
TORSDOF 8
ENDMDL
MODEL 4
REMARK VINA RESULT:    -6.571      3.511      6.357
REMARK INTER + INTRA:         -10.595
REMARK INTER:                  -9.733
REMARK INTRA:                  -0.862
REMARK UNBOUND:                -1.144
REMARK  Name = 
REMARK  9 active torsions:
REMARK  status: ('A' for Active; 'I' for Inactive)
REMARK    1  A    between atoms: C_1  and  C_2
REMARK    2  A    between atoms: C_2  and  O_3
REMARK    3  A    between atoms: C_2  and  C_4
REMARK    4  A    between atoms: C_2  and  C_15
REMARK    5  A    between atoms: C_4  and  O_5
REMARK    6  A    between atoms: O_5  and  C_6
REMARK    7  A    between atoms: C_9  and  C_10
REMARK    8  A    between atoms: C_19  and  O_20
REMARK    9  A    between atoms: O_20  and  C_21
REMARK                            x       y       z     vdW  Elec       q    Type
REMARK                         _______ _______ _______ _____ _____    ______ ____
ROOT
ATOM      1  C   UNL     1      48.866   2.616  17.042  0.00  0.00    +0.000 C 
ATOM      2  C   UNL     1      47.733   3.642  17.183  0.00  0.00    +0.000 C 
ENDROOT
BRANCH   2   3
ATOM      3  C   UNL     1      47.991   4.591  18.360  0.00  0.00    +0.000 A 
ATOM      4  C   UNL     1      48.714   4.176  19.492  0.00  0.00    +0.000 A 
ATOM      5  C   UNL     1      48.771   4.963  20.635  0.00  0.00    +0.000 A 
ATOM      6  C   UNL     1      48.188   6.223  20.644  0.00  0.00    +0.000 A 
ATOM      7  C   UNL     1      47.630   6.748  19.478  0.00  0.00    +0.000 A 
ATOM      8  C   UNL     1      47.487   5.912  18.359  0.00  0.00    +0.000 A 
BRANCH   7   9
ATOM      9  O   UNL     1      47.219   8.055  19.331  0.00  0.00    +0.000 OA
BRANCH   9  10
ATOM     10  C   UNL     1      48.252   9.003  19.000  0.00  0.00    +0.000 C 
ATOM     11  C   UNL     1      48.063  10.307  19.763  0.00  0.00    +0.000 C 
ATOM     12  C   UNL     1      47.309  11.222  18.816  0.00  0.00    +0.000 C 
ATOM     13  N   UNL     1      47.655  10.811  17.458  0.00  0.00    +0.000 NA
ATOM     14  C   UNL     1      48.214   9.453  17.532  0.00  0.00    +0.000 C 
ATOM     15  H   UNL     1      48.348  11.445  17.060  0.00  0.00    +0.000 HD
ENDBRANCH   9  10
ENDBRANCH   7   9
ENDBRANCH   2   3
BRANCH   2  16
ATOM     16  O   UNL     1      46.527   2.908  17.456  0.00  0.00    +0.000 OA
ATOM     17  H   UNL     1      45.808   3.558  17.537  0.00  0.00    +0.000 HD
ENDBRANCH   2  16
BRANCH   2  18
ATOM     18  C   UNL     1      47.532   4.354  15.819  0.00  0.00    +0.000 C 
BRANCH  18  19
ATOM     19  O   UNL     1      47.382   3.413  14.740  0.00  0.00    +0.000 OA
BRANCH  19  20
ATOM     20  C   UNL     1      46.442   3.835  13.825  0.00  0.00    +0.000 A 
ATOM     21  C   UNL     1      46.133   5.184  13.801  0.00  0.00    +0.000 A 
ATOM     22  C   UNL     1      45.269   5.641  12.806  0.00  0.00    +0.000 A 
ATOM     23  C   UNL     1      44.730   4.733  11.897  0.00  0.00    +0.000 A 
ATOM     24  C   UNL     1      45.064   3.394  12.033  0.00  0.00    +0.000 A 
ATOM     25  N   UNL     1      45.899   2.925  12.987  0.00  0.00    +0.000 NA
BRANCH  23  26
ATOM     26  C   UNL     1      43.877   5.134  10.764  0.00  0.00    +0.000 C 
ATOM     27  N   UNL     1      43.139   6.280  10.913  0.00  0.00    +0.000 N 
ATOM     28  O   UNL     1      43.817   4.475   9.740  0.00  0.00    +0.000 OA
ATOM     29  H   UNL     1      43.015   6.758  11.794  0.00  0.00    +0.000 HD
ATOM     30  H   UNL     1      42.513   6.520  10.150  0.00  0.00    +0.000 HD
ENDBRANCH  23  26
ENDBRANCH  19  20
ENDBRANCH  18  19
ENDBRANCH   2  18
TORSDOF 8
ENDMDL
MODEL 5
REMARK VINA RESULT:    -6.419      2.705      7.384
REMARK INTER + INTRA:         -10.378
REMARK INTER:                  -9.810
REMARK INTRA:                  -0.567
REMARK UNBOUND:                -1.144
REMARK  Name = 
REMARK  9 active torsions:
REMARK  status: ('A' for Active; 'I' for Inactive)
REMARK    1  A    between atoms: C_1  and  C_2
REMARK    2  A    between atoms: C_2  and  O_3
REMARK    3  A    between atoms: C_2  and  C_4
REMARK    4  A    between atoms: C_2  and  C_15
REMARK    5  A    between atoms: C_4  and  O_5
REMARK    6  A    between atoms: O_5  and  C_6
REMARK    7  A    between atoms: C_9  and  C_10
REMARK    8  A    between atoms: C_19  and  O_20
REMARK    9  A    between atoms: O_20  and  C_21
REMARK                            x       y       z     vdW  Elec       q    Type
REMARK                         _______ _______ _______ _____ _____    ______ ____
ROOT
ATOM      1  C   UNL     1      43.936   7.368  11.061  0.00  0.00    +0.000 C 
ATOM      2  C   UNL     1      44.003   6.050  11.846  0.00  0.00    +0.000 C 
ENDROOT
BRANCH   2   3
ATOM      3  C   UNL     1      44.209   4.856  10.905  0.00  0.00    +0.000 A 
ATOM      4  C   UNL     1      43.597   3.615  11.152  0.00  0.00    +0.000 A 
ATOM      5  C   UNL     1      43.944   2.487  10.420  0.00  0.00    +0.000 A 
ATOM      6  C   UNL     1      44.839   2.589   9.363  0.00  0.00    +0.000 A 
ATOM      7  C   UNL     1      45.317   3.837   8.965  0.00  0.00    +0.000 A 
ATOM      8  C   UNL     1      45.042   4.955   9.768  0.00  0.00    +0.000 A 
BRANCH   7   9
ATOM      9  O   UNL     1      46.035   4.064   7.811  0.00  0.00    +0.000 OA
BRANCH   9  10
ATOM     10  C   UNL     1      46.074   2.974   6.871  0.00  0.00    +0.000 C 
ATOM     11  C   UNL     1      46.983   1.857   7.365  0.00  0.00    +0.000 C 
ATOM     12  C   UNL     1      48.324   2.107   6.701  0.00  0.00    +0.000 C 
ATOM     13  N   UNL     1      48.056   2.799   5.443  0.00  0.00    +0.000 NA
ATOM     14  C   UNL     1      46.698   3.358   5.522  0.00  0.00    +0.000 C 
ATOM     15  H   UNL     1      48.113   2.149   4.659  0.00  0.00    +0.000 HD
ENDBRANCH   9  10
ENDBRANCH   7   9
ENDBRANCH   2   3
BRANCH   2  16
ATOM     16  O   UNL     1      42.739   5.886  12.509  0.00  0.00    +0.000 OA
ATOM     17  H   UNL     1      42.632   4.936  12.692  0.00  0.00    +0.000 HD
ENDBRANCH   2  16
BRANCH   2  18
ATOM     18  C   UNL     1      45.083   6.185  12.954  0.00  0.00    +0.000 C 
BRANCH  18  19
ATOM     19  O   UNL     1      46.268   5.429  12.641  0.00  0.00    +0.000 OA
BRANCH  19  20
ATOM     20  C   UNL     1      47.399   6.216  12.690  0.00  0.00    +0.000 A 
ATOM     21  C   UNL     1      47.670   7.015  11.593  0.00  0.00    +0.000 A 
ATOM     22  C   UNL     1      48.746   7.898  11.675  0.00  0.00    +0.000 A 
ATOM     23  C   UNL     1      49.521   7.927  12.833  0.00  0.00    +0.000 A 
ATOM     24  C   UNL     1      49.196   7.054  13.861  0.00  0.00    +0.000 A 
ATOM     25  N   UNL     1      48.159   6.189  13.807  0.00  0.00    +0.000 NA
BRANCH  23  26
ATOM     26  C   UNL     1      50.623   8.883  13.044  0.00  0.00    +0.000 C 
ATOM     27  N   UNL     1      51.000   9.123  14.340  0.00  0.00    +0.000 N 
ATOM     28  O   UNL     1      51.172   9.447  12.114  0.00  0.00    +0.000 OA
ATOM     29  H   UNL     1      50.468   8.826  15.145  0.00  0.00    +0.000 HD
ATOM     30  H   UNL     1      51.723   9.823  14.481  0.00  0.00    +0.000 HD
ENDBRANCH  23  26
ENDBRANCH  19  20
ENDBRANCH  18  19
ENDBRANCH   2  18
TORSDOF 8
ENDMDL
MODEL 6
REMARK VINA RESULT:    -6.320      2.409      8.164
REMARK INTER + INTRA:         -10.235
REMARK INTER:                  -9.597
REMARK INTRA:                  -0.638
REMARK UNBOUND:                -1.144
REMARK  Name = 
REMARK  9 active torsions:
REMARK  status: ('A' for Active; 'I' for Inactive)
REMARK    1  A    between atoms: C_1  and  C_2
REMARK    2  A    between atoms: C_2  and  O_3
REMARK    3  A    between atoms: C_2  and  C_4
REMARK    4  A    between atoms: C_2  and  C_15
REMARK    5  A    between atoms: C_4  and  O_5
REMARK    6  A    between atoms: O_5  and  C_6
REMARK    7  A    between atoms: C_9  and  C_10
REMARK    8  A    between atoms: C_19  and  O_20
REMARK    9  A    between atoms: O_20  and  C_21
REMARK                            x       y       z     vdW  Elec       q    Type
REMARK                         _______ _______ _______ _____ _____    ______ ____
ROOT
ATOM      1  C   UNL     1      44.784   8.396  11.470  0.00  0.00    +0.000 C 
ATOM      2  C   UNL     1      45.361   7.039  11.897  0.00  0.00    +0.000 C 
ENDROOT
BRANCH   2   3
ATOM      3  C   UNL     1      44.985   5.938  10.896  0.00  0.00    +0.000 A 
ATOM      4  C   UNL     1      43.829   5.157  11.066  0.00  0.00    +0.000 A 
ATOM      5  C   UNL     1      43.600   4.036  10.280  0.00  0.00    +0.000 A 
ATOM      6  C   UNL     1      44.470   3.720   9.244  0.00  0.00    +0.000 A 
ATOM      7  C   UNL     1      45.520   4.580   8.922  0.00  0.00    +0.000 A 
ATOM      8  C   UNL     1      45.804   5.654   9.779  0.00  0.00    +0.000 A 
BRANCH   7   9
ATOM      9  O   UNL     1      46.302   4.465   7.793  0.00  0.00    +0.000 OA
BRANCH   9  10
ATOM     10  C   UNL     1      46.089   3.282   7.000  0.00  0.00    +0.000 C 
ATOM     11  C   UNL     1      46.811   2.083   7.599  0.00  0.00    +0.000 C 
ATOM     12  C   UNL     1      48.133   1.999   6.860  0.00  0.00    +0.000 C 
ATOM     13  N   UNL     1      47.920   2.574   5.534  0.00  0.00    +0.000 NA
ATOM     14  C   UNL     1      46.691   3.380   5.590  0.00  0.00    +0.000 C 
ATOM     15  H   UNL     1      47.813   1.836   4.839  0.00  0.00    +0.000 HD
ENDBRANCH   9  10
ENDBRANCH   7   9
ENDBRANCH   2   3
BRANCH   2  16
ATOM     16  O   UNL     1      44.775   6.709  13.167  0.00  0.00    +0.000 OA
ATOM     17  H   UNL     1      44.519   5.770  13.130  0.00  0.00    +0.000 HD
ENDBRANCH   2  16
BRANCH   2  18
ATOM     18  C   UNL     1      46.888   7.197  12.130  0.00  0.00    +0.000 C 
BRANCH  18  19
ATOM     19  O   UNL     1      47.467   6.014  12.711  0.00  0.00    +0.000 OA
BRANCH  19  20
ATOM     20  C   UNL     1      48.248   6.316  13.805  0.00  0.00    +0.000 A 
ATOM     21  C   UNL     1      49.195   7.314  13.660  0.00  0.00    +0.000 A 
ATOM     22  C   UNL     1      49.913   7.707  14.789  0.00  0.00    +0.000 A 
ATOM     23  C   UNL     1      49.678   7.071  16.005  0.00  0.00    +0.000 A 
ATOM     24  C   UNL     1      48.741   6.048  16.039  0.00  0.00    +0.000 A 
ATOM     25  N   UNL     1      48.032   5.649  14.960  0.00  0.00    +0.000 NA
BRANCH  23  26
ATOM     26  C   UNL     1      50.326   7.473  17.267  0.00  0.00    +0.000 C 
ATOM     27  N   UNL     1      49.671   7.163  18.430  0.00  0.00    +0.000 N 
ATOM     28  O   UNL     1      51.391   8.064  17.282  0.00  0.00    +0.000 OA
ATOM     29  H   UNL     1      48.715   6.840  18.469  0.00  0.00    +0.000 HD
ATOM     30  H   UNL     1      50.096   7.491  19.293  0.00  0.00    +0.000 HD
ENDBRANCH  23  26
ENDBRANCH  19  20
ENDBRANCH  18  19
ENDBRANCH   2  18
TORSDOF 8
ENDMDL
MODEL 7
REMARK VINA RESULT:    -6.314      1.908      7.970
REMARK INTER + INTRA:         -10.227
REMARK INTER:                  -9.656
REMARK INTRA:                  -0.571
REMARK UNBOUND:                -1.144
REMARK  Name = 
REMARK  9 active torsions:
REMARK  status: ('A' for Active; 'I' for Inactive)
REMARK    1  A    between atoms: C_1  and  C_2
REMARK    2  A    between atoms: C_2  and  O_3
REMARK    3  A    between atoms: C_2  and  C_4
REMARK    4  A    between atoms: C_2  and  C_15
REMARK    5  A    between atoms: C_4  and  O_5
REMARK    6  A    between atoms: O_5  and  C_6
REMARK    7  A    between atoms: C_9  and  C_10
REMARK    8  A    between atoms: C_19  and  O_20
REMARK    9  A    between atoms: O_20  and  C_21
REMARK                            x       y       z     vdW  Elec       q    Type
REMARK                         _______ _______ _______ _____ _____    ______ ____
ROOT
ATOM      1  C   UNL     1      47.147   7.319  11.448  0.00  0.00    +0.000 C 
ATOM      2  C   UNL     1      46.395   6.635  12.599  0.00  0.00    +0.000 C 
ENDROOT
BRANCH   2   3
ATOM      3  C   UNL     1      45.289   5.715  12.067  0.00  0.00    +0.000 A 
ATOM      4  C   UNL     1      43.931   6.058  12.185  0.00  0.00    +0.000 A 
ATOM      5  C   UNL     1      42.931   5.140  11.891  0.00  0.00    +0.000 A 
ATOM      6  C   UNL     1      43.260   3.890  11.382  0.00  0.00    +0.000 A 
ATOM      7  C   UNL     1      44.584   3.584  11.070  0.00  0.00    +0.000 A 
ATOM      8  C   UNL     1      45.596   4.476  11.461  0.00  0.00    +0.000 A 
BRANCH   7   9
ATOM      9  O   UNL     1      44.982   2.463  10.374  0.00  0.00    +0.000 OA
BRANCH   9  10
ATOM     10  C   UNL     1      44.682   2.461   8.965  0.00  0.00    +0.000 C 
ATOM     11  C   UNL     1      45.729   1.679   8.184  0.00  0.00    +0.000 C 
ATOM     12  C   UNL     1      46.717   2.716   7.685  0.00  0.00    +0.000 C 
ATOM     13  N   UNL     1      45.984   3.972   7.543  0.00  0.00    +0.000 NA
ATOM     14  C   UNL     1      44.746   3.857   8.328  0.00  0.00    +0.000 C 
ATOM     15  H   UNL     1      45.753   4.140   6.564  0.00  0.00    +0.000 HD
ENDBRANCH   9  10
ENDBRANCH   7   9
ENDBRANCH   2   3
BRANCH   2  16
ATOM     16  O   UNL     1      45.779   7.673  13.380  0.00  0.00    +0.000 OA
ATOM     17  H   UNL     1      44.815   7.570  13.283  0.00  0.00    +0.000 HD
ENDBRANCH   2  16
BRANCH   2  18
ATOM     18  C   UNL     1      47.428   5.928  13.518  0.00  0.00    +0.000 C 
BRANCH  18  19
ATOM     19  O   UNL     1      46.786   5.133  14.532  0.00  0.00    +0.000 OA
BRANCH  19  20
ATOM     20  C   UNL     1      47.648   4.836  15.566  0.00  0.00    +0.000 A 
ATOM     21  C   UNL     1      47.564   3.574  16.127  0.00  0.00    +0.000 A 
ATOM     22  C   UNL     1      48.505   3.223  17.095  0.00  0.00    +0.000 A 
ATOM     23  C   UNL     1      49.469   4.151  17.481  0.00  0.00    +0.000 A 
ATOM     24  C   UNL     1      49.442   5.407  16.893  0.00  0.00    +0.000 A 
ATOM     25  N   UNL     1      48.542   5.773  15.953  0.00  0.00    +0.000 NA
BRANCH  23  26
ATOM     26  C   UNL     1      50.552   3.843  18.432  0.00  0.00    +0.000 C 
ATOM     27  N   UNL     1      51.266   2.694  18.212  0.00  0.00    +0.000 N 
ATOM     28  O   UNL     1      50.800   4.568  19.380  0.00  0.00    +0.000 OA
ATOM     29  H   UNL     1      50.990   1.976  17.558  0.00  0.00    +0.000 HD
ATOM     30  H   UNL     1      51.975   2.460  18.902  0.00  0.00    +0.000 HD
ENDBRANCH  23  26
ENDBRANCH  19  20
ENDBRANCH  18  19
ENDBRANCH   2  18
TORSDOF 8
ENDMDL
MODEL 8
REMARK VINA RESULT:    -6.293      3.467      7.692
REMARK INTER + INTRA:         -10.196
REMARK INTER:                  -9.094
REMARK INTRA:                  -1.102
REMARK UNBOUND:                -1.144
REMARK  Name = 
REMARK  9 active torsions:
REMARK  status: ('A' for Active; 'I' for Inactive)
REMARK    1  A    between atoms: C_1  and  C_2
REMARK    2  A    between atoms: C_2  and  O_3
REMARK    3  A    between atoms: C_2  and  C_4
REMARK    4  A    between atoms: C_2  and  C_15
REMARK    5  A    between atoms: C_4  and  O_5
REMARK    6  A    between atoms: O_5  and  C_6
REMARK    7  A    between atoms: C_9  and  C_10
REMARK    8  A    between atoms: C_19  and  O_20
REMARK    9  A    between atoms: O_20  and  C_21
REMARK                            x       y       z     vdW  Elec       q    Type
REMARK                         _______ _______ _______ _____ _____    ______ ____
ROOT
ATOM      1  C   UNL     1      50.240   8.414  11.330  0.00  0.00    +0.000 C 
ATOM      2  C   UNL     1      49.358   8.624  12.569  0.00  0.00    +0.000 C 
ENDROOT
BRANCH   2   3
ATOM      3  C   UNL     1      47.869   8.561  12.204  0.00  0.00    +0.000 A 
ATOM      4  C   UNL     1      47.097   9.728  12.071  0.00  0.00    +0.000 A 
ATOM      5  C   UNL     1      45.716   9.663  11.945  0.00  0.00    +0.000 A 
ATOM      6  C   UNL     1      45.081   8.431  11.852  0.00  0.00    +0.000 A 
ATOM      7  C   UNL     1      45.831   7.257  11.785  0.00  0.00    +0.000 A 
ATOM      8  C   UNL     1      47.214   7.323  12.013  0.00  0.00    +0.000 A 
BRANCH   7   9
ATOM      9  O   UNL     1      45.311   6.017  11.485  0.00  0.00    +0.000 OA
BRANCH   9  10
ATOM     10  C   UNL     1      44.207   5.585  12.302  0.00  0.00    +0.000 C 
ATOM     11  C   UNL     1      44.541   4.293  13.036  0.00  0.00    +0.000 C 
ATOM     12  C   UNL     1      43.972   3.182  12.174  0.00  0.00    +0.000 C 
ATOM     13  N   UNL     1      42.836   3.743  11.447  0.00  0.00    +0.000 NA
ATOM     14  C   UNL     1      42.960   5.208  11.488  0.00  0.00    +0.000 C 
ATOM     15  H   UNL     1      41.960   3.462  11.884  0.00  0.00    +0.000 HD
ENDBRANCH   9  10
ENDBRANCH   7   9
ENDBRANCH   2   3
BRANCH   2  16
ATOM     16  O   UNL     1      49.641   9.940  13.073  0.00  0.00    +0.000 OA
ATOM     17  H   UNL     1      48.864  10.494  12.880  0.00  0.00    +0.000 HD
ENDBRANCH   2  16
BRANCH   2  18
ATOM     18  C   UNL     1      49.791   7.615  13.666  0.00  0.00    +0.000 C 
BRANCH  18  19
ATOM     19  O   UNL     1      49.166   7.899  14.932  0.00  0.00    +0.000 OA
BRANCH  19  20
ATOM     20  C   UNL     1      48.876   6.744  15.625  0.00  0.00    +0.000 A 
ATOM     21  C   UNL     1      49.370   6.629  16.913  0.00  0.00    +0.000 A 
ATOM     22  C   UNL     1      48.989   5.517  17.664  0.00  0.00    +0.000 A 
ATOM     23  C   UNL     1      48.158   4.556  17.093  0.00  0.00    +0.000 A 
ATOM     24  C   UNL     1      47.754   4.739  15.779  0.00  0.00    +0.000 A 
ATOM     25  N   UNL     1      48.107   5.806  15.029  0.00  0.00    +0.000 NA
BRANCH  23  26
ATOM     26  C   UNL     1      47.637   3.394  17.834  0.00  0.00    +0.000 C 
ATOM     27  N   UNL     1      48.315   3.022  18.966  0.00  0.00    +0.000 N 
ATOM     28  O   UNL     1      46.654   2.780  17.458  0.00  0.00    +0.000 OA
ATOM     29  H   UNL     1      49.225   3.378  19.219  0.00  0.00    +0.000 HD
ATOM     30  H   UNL     1      47.983   2.187  19.441  0.00  0.00    +0.000 HD
ENDBRANCH  23  26
ENDBRANCH  19  20
ENDBRANCH  18  19
ENDBRANCH   2  18
TORSDOF 8
ENDMDL
MODEL 9
REMARK VINA RESULT:    -6.200      2.999      5.113
REMARK INTER + INTRA:         -10.062
REMARK INTER:                  -8.648
REMARK INTRA:                  -1.413
REMARK UNBOUND:                -1.144
REMARK  Name = 
REMARK  9 active torsions:
REMARK  status: ('A' for Active; 'I' for Inactive)
REMARK    1  A    between atoms: C_1  and  C_2
REMARK    2  A    between atoms: C_2  and  O_3
REMARK    3  A    between atoms: C_2  and  C_4
REMARK    4  A    between atoms: C_2  and  C_15
REMARK    5  A    between atoms: C_4  and  O_5
REMARK    6  A    between atoms: O_5  and  C_6
REMARK    7  A    between atoms: C_9  and  C_10
REMARK    8  A    between atoms: C_19  and  O_20
REMARK    9  A    between atoms: O_20  and  C_21
REMARK                            x       y       z     vdW  Elec       q    Type
REMARK                         _______ _______ _______ _____ _____    ______ ____
ROOT
ATOM      1  C   UNL     1      49.399   9.913  12.403  0.00  0.00    +0.000 C 
ATOM      2  C   UNL     1      49.508   8.412  12.706  0.00  0.00    +0.000 C 
ENDROOT
BRANCH   2   3
ATOM      3  C   UNL     1      49.213   8.124  14.184  0.00  0.00    +0.000 A 
ATOM      4  C   UNL     1      48.525   9.049  14.987  0.00  0.00    +0.000 A 
ATOM      5  C   UNL     1      48.439   8.880  16.363  0.00  0.00    +0.000 A 
ATOM      6  C   UNL     1      48.957   7.737  16.959  0.00  0.00    +0.000 A 
ATOM      7  C   UNL     1      49.475   6.707  16.173  0.00  0.00    +0.000 A 
ATOM      8  C   UNL     1      49.648   6.927  14.797  0.00  0.00    +0.000 A 
BRANCH   7   9
ATOM      9  O   UNL     1      49.816   5.460  16.648  0.00  0.00    +0.000 OA
BRANCH   9  10
ATOM     10  C   UNL     1      48.775   4.748  17.344  0.00  0.00    +0.000 C 
ATOM     11  C   UNL     1      49.221   3.337  17.702  0.00  0.00    +0.000 C 
ATOM     12  C   UNL     1      48.694   2.453  16.588  0.00  0.00    +0.000 C 
ATOM     13  N   UNL     1      47.496   3.101  16.058  0.00  0.00    +0.000 NA
ATOM     14  C   UNL     1      47.525   4.508  16.484  0.00  0.00    +0.000 C 
ATOM     15  H   UNL     1      46.657   2.650  16.423  0.00  0.00    +0.000 HD
ENDBRANCH   9  10
ENDBRANCH   7   9
ENDBRANCH   2   3
BRANCH   2  16
ATOM     16  O   UNL     1      50.864   8.022  12.435  0.00  0.00    +0.000 OA
ATOM     17  H   UNL     1      51.212   7.612  13.246  0.00  0.00    +0.000 HD
ENDBRANCH   2  16
BRANCH   2  18
ATOM     18  C   UNL     1      48.604   7.636  11.711  0.00  0.00    +0.000 C 
BRANCH  18  19
ATOM     19  O   UNL     1      47.208   7.783  12.028  0.00  0.00    +0.000 OA
BRANCH  19  20
ATOM     20  C   UNL     1      46.547   6.575  11.983  0.00  0.00    +0.000 A 
ATOM     21  C   UNL     1      46.473   5.842  13.155  0.00  0.00    +0.000 A 
ATOM     22  C   UNL     1      45.712   4.674  13.152  0.00  0.00    +0.000 A 
ATOM     23  C   UNL     1      45.080   4.272  11.977  0.00  0.00    +0.000 A 
ATOM     24  C   UNL     1      45.252   5.050  10.842  0.00  0.00    +0.000 A 
ATOM     25  N   UNL     1      45.984   6.186  10.818  0.00  0.00    +0.000 NA
BRANCH  23  26
ATOM     26  C   UNL     1      44.189   3.101  11.898  0.00  0.00    +0.000 C 
ATOM     27  N   UNL     1      44.057   2.499  10.674  0.00  0.00    +0.000 N 
ATOM     28  O   UNL     1      43.583   2.687  12.871  0.00  0.00    +0.000 OA
ATOM     29  H   UNL     1      44.388   2.903   9.810  0.00  0.00    +0.000 HD
ATOM     30  H   UNL     1      43.399   1.727  10.615  0.00  0.00    +0.000 HD
ENDBRANCH  23  26
ENDBRANCH  19  20
ENDBRANCH  18  19
ENDBRANCH   2  18
TORSDOF 8
ENDMDL
