MODEL 1
REMARK VINA RESULT:    -8.143      0.000      0.000
REMARK INTER + INTRA:         -14.210
REMARK INTER:                 -12.666
REMARK INTRA:                  -1.544
REMARK UNBOUND:                -1.544
REMARK  Name = 
REMARK  10 active torsions:
REMARK  status: ('A' for Active; 'I' for Inactive)
REMARK    1  A    between atoms: C_2  and  C_23
REMARK    2  A    between atoms: N_3  and  C_4
REMARK    3  A    between atoms: C_4  and  C_5
REMARK    4  A    between atoms: C_8  and  C_9
REMARK    5  A    between atoms: C_9  and  N_10
REMARK    6  A    between atoms: N_10  and  C_11
REMARK    7  A    between atoms: N_10  and  C_14
REMARK    8  A    between atoms: C_11  and  C_12
REMARK    9  A    between atoms: C_12  and  O_13
REMARK   10  A    between atoms: C_14  and  C_15
REMARK                            x       y       z     vdW  Elec       q    Type
REMARK                         _______ _______ _______ _____ _____    ______ ____
ROOT
ATOM      1  C   UNL     1      46.872   8.086  12.750  0.00  0.00    +0.000 A 
ATOM      2  N   UNL     1      47.445   7.260  11.855  0.00  0.00    +0.000 NA
ATOM      3  C   UNL     1      46.622   6.422  11.194  0.00  0.00    +0.000 A 
ATOM      4  C   UNL     1      45.259   6.370  11.394  0.00  0.00    +0.000 A 
ATOM      5  C   UNL     1      44.764   7.330  12.253  0.00  0.00    +0.000 A 
ATOM      6  N   UNL     1      45.539   8.201  12.932  0.00  0.00    +0.000 NA
ENDROOT
BRANCH   1   7
ATOM      7  C   UNL     1      47.774   8.949  13.608  0.00  0.00    +0.000 C 
BRANCH   7  10
ATOM      8  O   UNL     1      49.797   7.083  14.330  0.00  0.00    +0.000 OA
ATOM      9  C   UNL     1      48.942   7.418  15.146  0.00  0.00    +0.000 C 
ATOM     10  N   UNL     1      47.985   8.382  14.918  0.00  0.00    +0.000 N 
ATOM     11  H   UNL     1      47.189   8.425  15.538  0.00  0.00    +0.000 HD
BRANCH   9  12
ATOM     12  C   UNL     1      48.675   6.688  16.374  0.00  0.00    +0.000 A 
ATOM     13  C   UNL     1      49.030   7.165  17.621  0.00  0.00    +0.000 A 
ATOM     14  S   UNL     1      49.081   5.909  18.788  0.00  0.00    +0.000 S 
ATOM     15  C   UNL     1      48.498   4.764  17.668  0.00  0.00    +0.000 A 
ATOM     16  N   UNL     1      48.421   3.436  17.949  0.00  0.00    +0.000 NA
ATOM     17  C   UNL     1      47.899   2.723  17.004  0.00  0.00    +0.000 A 
ATOM     18  N   UNL     1      47.404   3.221  15.822  0.00  0.00    +0.000 N 
ATOM     19  C   UNL     1      47.444   4.556  15.501  0.00  0.00    +0.000 A 
ATOM     20  O   UNL     1      46.912   4.998  14.491  0.00  0.00    +0.000 OA
ATOM     21  C   UNL     1      48.140   5.364  16.480  0.00  0.00    +0.000 A 
ATOM     22  H   UNL     1      46.924   2.624  15.165  0.00  0.00    +0.000 HD
ENDBRANCH   9  12
ENDBRANCH   7  10
ENDBRANCH   1   7
BRANCH   4  23
ATOM     23  C   UNL     1      44.386   5.322  10.766  0.00  0.00    +0.000 C 
BRANCH  23  24
ATOM     24  N   UNL     1      45.101   4.050  10.473  0.00  0.00    +0.000 NA
BRANCH  24  25
ATOM     25  C   UNL     1      44.958   3.090  11.599  0.00  0.00    +0.000 C 
BRANCH  25  26
ATOM     26  C   UNL     1      43.548   2.996  12.215  0.00  0.00    +0.000 C 
BRANCH  26  27
ATOM     27  O   UNL     1      42.876   1.829  11.743  0.00  0.00    +0.000 OA
ATOM     28  H   UNL     1      41.992   1.818  12.148  0.00  0.00    +0.000 HD
ENDBRANCH  26  27
ENDBRANCH  25  26
ENDBRANCH  24  25
BRANCH  24  29
ATOM     29  C   UNL     1      44.538   3.449   9.235  0.00  0.00    +0.000 C 
BRANCH  29  30
ATOM     30  C   UNL     1      45.548   2.799   8.310  0.00  0.00    +0.000 A 
ATOM     31  C   UNL     1      46.183   3.542   7.316  0.00  0.00    +0.000 A 
ATOM     32  C   UNL     1      47.147   2.923   6.528  0.00  0.00    +0.000 A 
ATOM     33  C   UNL     1      47.454   1.587   6.750  0.00  0.00    +0.000 A 
ATOM     34  C   UNL     1      46.770   0.918   7.752  0.00  0.00    +0.000 A 
ATOM     35  N   UNL     1      45.824   1.488   8.528  0.00  0.00    +0.000 NA
ENDBRANCH  29  30
ENDBRANCH  24  29
ENDBRANCH  23  24
ENDBRANCH   4  23
TORSDOF 10
ENDMDL
MODEL 2
REMARK VINA RESULT:    -7.569      2.172      3.673
REMARK INTER + INTRA:         -13.316
REMARK INTER:                 -12.342
REMARK INTRA:                  -0.974
REMARK UNBOUND:                -1.544
REMARK  Name = 
REMARK  10 active torsions:
REMARK  status: ('A' for Active; 'I' for Inactive)
REMARK    1  A    between atoms: C_2  and  C_23
REMARK    2  A    between atoms: N_3  and  C_4
REMARK    3  A    between atoms: C_4  and  C_5
REMARK    4  A    between atoms: C_8  and  C_9
REMARK    5  A    between atoms: C_9  and  N_10
REMARK    6  A    between atoms: N_10  and  C_11
REMARK    7  A    between atoms: N_10  and  C_14
REMARK    8  A    between atoms: C_11  and  C_12
REMARK    9  A    between atoms: C_12  and  O_13
REMARK   10  A    between atoms: C_14  and  C_15
REMARK                            x       y       z     vdW  Elec       q    Type
REMARK                         _______ _______ _______ _____ _____    ______ ____
ROOT
ATOM      1  C   UNL     1      47.051   4.462  14.788  0.00  0.00    +0.000 A 
ATOM      2  N   UNL     1      46.675   3.401  14.049  0.00  0.00    +0.000 NA
ATOM      3  C   UNL     1      46.149   3.667  12.837  0.00  0.00    +0.000 A 
ATOM      4  C   UNL     1      45.978   4.941  12.338  0.00  0.00    +0.000 A 
ATOM      5  C   UNL     1      46.494   5.945  13.130  0.00  0.00    +0.000 A 
ATOM      6  N   UNL     1      47.041   5.738  14.345  0.00  0.00    +0.000 NA
ENDROOT
BRANCH   1   7
ATOM      7  C   UNL     1      47.523   4.216  16.206  0.00  0.00    +0.000 C 
BRANCH   7  10
ATOM      8  O   UNL     1      50.036   5.516  16.514  0.00  0.00    +0.000 OA
ATOM      9  C   UNL     1      49.038   5.950  17.085  0.00  0.00    +0.000 C 
ATOM     10  N   UNL     1      47.767   5.446  16.920  0.00  0.00    +0.000 N 
ATOM     11  H   UNL     1      47.058   5.700  17.594  0.00  0.00    +0.000 HD
BRANCH   9  12
ATOM     12  C   UNL     1      49.091   6.902  18.182  0.00  0.00    +0.000 A 
ATOM     13  C   UNL     1      49.403   6.535  19.476  0.00  0.00    +0.000 A 
ATOM     14  S   UNL     1      48.881   7.712  20.611  0.00  0.00    +0.000 S 
ATOM     15  C   UNL     1      48.368   8.765  19.372  0.00  0.00    +0.000 A 
ATOM     16  N   UNL     1      47.691   9.917  19.622  0.00  0.00    +0.000 NA
ATOM     17  C   UNL     1      47.435  10.621  18.567  0.00  0.00    +0.000 A 
ATOM     18  N   UNL     1      47.834  10.303  17.290  0.00  0.00    +0.000 N 
ATOM     19  C   UNL     1      48.534   9.159  16.992  0.00  0.00    +0.000 A 
ATOM     20  O   UNL     1      48.967   8.936  15.868  0.00  0.00    +0.000 OA
ATOM     21  C   UNL     1      48.723   8.285  18.130  0.00  0.00    +0.000 A 
ATOM     22  H   UNL     1      47.683  10.940  16.523  0.00  0.00    +0.000 HD
ENDBRANCH   9  12
ENDBRANCH   7  10
ENDBRANCH   1   7
BRANCH   4  23
ATOM     23  C   UNL     1      45.245   5.218  11.057  0.00  0.00    +0.000 C 
BRANCH  23  24
ATOM     24  N   UNL     1      44.356   4.105  10.627  0.00  0.00    +0.000 NA
BRANCH  24  25
ATOM     25  C   UNL     1      43.007   4.238  11.234  0.00  0.00    +0.000 C 
BRANCH  25  26
ATOM     26  C   UNL     1      42.702   5.606  11.879  0.00  0.00    +0.000 C 
BRANCH  26  27
ATOM     27  O   UNL     1      42.664   5.489  13.299  0.00  0.00    +0.000 OA
ATOM     28  H   UNL     1      43.398   6.019  13.655  0.00  0.00    +0.000 HD
ENDBRANCH  26  27
ENDBRANCH  25  26
ENDBRANCH  24  25
BRANCH  24  29
ATOM     29  C   UNL     1      44.238   4.121   9.145  0.00  0.00    +0.000 C 
BRANCH  29  30
ATOM     30  C   UNL     1      45.284   3.316   8.399  0.00  0.00    +0.000 A 
ATOM     31  C   UNL     1      45.522   1.983   8.727  0.00  0.00    +0.000 A 
ATOM     32  C   UNL     1      46.447   1.263   7.980  0.00  0.00    +0.000 A 
ATOM     33  C   UNL     1      47.106   1.886   6.927  0.00  0.00    +0.000 A 
ATOM     34  C   UNL     1      46.819   3.216   6.673  0.00  0.00    +0.000 A 
ATOM     35  N   UNL     1      45.932   3.945   7.385  0.00  0.00    +0.000 NA
ENDBRANCH  29  30
ENDBRANCH  24  29
ENDBRANCH  23  24
ENDBRANCH   4  23
TORSDOF 10
ENDMDL
MODEL 3
REMARK VINA RESULT:    -7.560      3.004      4.045
REMARK INTER + INTRA:         -13.302
REMARK INTER:                 -12.292
REMARK INTRA:                  -1.011
REMARK UNBOUND:                -1.544
REMARK  Name = 
REMARK  10 active torsions:
REMARK  status: ('A' for Active; 'I' for Inactive)
REMARK    1  A    between atoms: C_2  and  C_23
REMARK    2  A    between atoms: N_3  and  C_4
REMARK    3  A    between atoms: C_4  and  C_5
REMARK    4  A    between atoms: C_8  and  C_9
REMARK    5  A    between atoms: C_9  and  N_10
REMARK    6  A    between atoms: N_10  and  C_11
REMARK    7  A    between atoms: N_10  and  C_14
REMARK    8  A    between atoms: C_11  and  C_12
REMARK    9  A    between atoms: C_12  and  O_13
REMARK   10  A    between atoms: C_14  and  C_15
REMARK                            x       y       z     vdW  Elec       q    Type
REMARK                         _______ _______ _______ _____ _____    ______ ____
ROOT
ATOM      1  C   UNL     1      47.227   4.732  14.932  0.00  0.00    +0.000 A 
ATOM      2  N   UNL     1      46.640   3.659  14.370  0.00  0.00    +0.000 NA
ATOM      3  C   UNL     1      46.079   3.843  13.159  0.00  0.00    +0.000 A 
ATOM      4  C   UNL     1      46.074   5.049  12.491  0.00  0.00    +0.000 A 
ATOM      5  C   UNL     1      46.794   6.052  13.106  0.00  0.00    +0.000 A 
ATOM      6  N   UNL     1      47.385   5.921  14.312  0.00  0.00    +0.000 NA
ENDROOT
BRANCH   1   7
ATOM      7  C   UNL     1      47.752   4.603  16.347  0.00  0.00    +0.000 C 
BRANCH   7  10
ATOM      8  O   UNL     1      48.661   3.194  18.645  0.00  0.00    +0.000 OA
ATOM      9  C   UNL     1      49.317   3.176  17.607  0.00  0.00    +0.000 C 
ATOM     10  N   UNL     1      48.911   3.747  16.421  0.00  0.00    +0.000 N 
ATOM     11  H   UNL     1      49.600   3.893  15.697  0.00  0.00    +0.000 HD
BRANCH   9  12
ATOM     12  C   UNL     1      50.706   2.755  17.542  0.00  0.00    +0.000 A 
ATOM     13  C   UNL     1      51.082   1.443  17.329  0.00  0.00    +0.000 A 
ATOM     14  S   UNL     1      52.701   1.160  17.822  0.00  0.00    +0.000 S 
ATOM     15  C   UNL     1      52.941   2.809  18.185  0.00  0.00    +0.000 A 
ATOM     16  N   UNL     1      54.070   3.271  18.785  0.00  0.00    +0.000 NA
ATOM     17  C   UNL     1      54.105   4.556  18.928  0.00  0.00    +0.000 A 
ATOM     18  N   UNL     1      53.137   5.427  18.486  0.00  0.00    +0.000 N 
ATOM     19  C   UNL     1      51.989   5.008  17.860  0.00  0.00    +0.000 A 
ATOM     20  O   UNL     1      51.183   5.797  17.385  0.00  0.00    +0.000 OA
ATOM     21  C   UNL     1      51.857   3.568  17.800  0.00  0.00    +0.000 A 
ATOM     22  H   UNL     1      53.268   6.425  18.546  0.00  0.00    +0.000 HD
ENDBRANCH   9  12
ENDBRANCH   7  10
ENDBRANCH   1   7
BRANCH   4  23
ATOM     23  C   UNL     1      45.306   5.270  11.219  0.00  0.00    +0.000 C 
BRANCH  23  24
ATOM     24  N   UNL     1      44.509   4.088  10.794  0.00  0.00    +0.000 NA
BRANCH  24  25
ATOM     25  C   UNL     1      43.176   4.082  11.451  0.00  0.00    +0.000 C 
BRANCH  25  26
ATOM     26  C   UNL     1      42.637   5.466  11.869  0.00  0.00    +0.000 C 
BRANCH  26  27
ATOM     27  O   UNL     1      42.646   5.595  13.289  0.00  0.00    +0.000 OA
ATOM     28  H   UNL     1      43.389   6.177  13.524  0.00  0.00    +0.000 HD
ENDBRANCH  26  27
ENDBRANCH  25  26
ENDBRANCH  24  25
BRANCH  24  29
ATOM     29  C   UNL     1      44.334   4.126   9.317  0.00  0.00    +0.000 C 
BRANCH  29  30
ATOM     30  C   UNL     1      45.314   3.285   8.524  0.00  0.00    +0.000 A 
ATOM     31  C   UNL     1      46.173   3.877   7.599  0.00  0.00    +0.000 A 
ATOM     32  C   UNL     1      47.098   3.080   6.936  0.00  0.00    +0.000 A 
ATOM     33  C   UNL     1      47.146   1.719   7.211  0.00  0.00    +0.000 A 
ATOM     34  C   UNL     1      46.251   1.208   8.135  0.00  0.00    +0.000 A 
ATOM     35  N   UNL     1      45.336   1.954   8.790  0.00  0.00    +0.000 NA
ENDBRANCH  29  30
ENDBRANCH  24  29
ENDBRANCH  23  24
ENDBRANCH   4  23
TORSDOF 10
ENDMDL
MODEL 4
REMARK VINA RESULT:    -7.533      2.071      2.440
REMARK INTER + INTRA:         -13.261
REMARK INTER:                 -12.257
REMARK INTRA:                  -1.004
REMARK UNBOUND:                -1.544
REMARK  Name = 
REMARK  10 active torsions:
REMARK  status: ('A' for Active; 'I' for Inactive)
REMARK    1  A    between atoms: C_2  and  C_23
REMARK    2  A    between atoms: N_3  and  C_4
REMARK    3  A    between atoms: C_4  and  C_5
REMARK    4  A    between atoms: C_8  and  C_9
REMARK    5  A    between atoms: C_9  and  N_10
REMARK    6  A    between atoms: N_10  and  C_11
REMARK    7  A    between atoms: N_10  and  C_14
REMARK    8  A    between atoms: C_11  and  C_12
REMARK    9  A    between atoms: C_12  and  O_13
REMARK   10  A    between atoms: C_14  and  C_15
REMARK                            x       y       z     vdW  Elec       q    Type
REMARK                         _______ _______ _______ _____ _____    ______ ____
ROOT
ATOM      1  C   UNL     1      47.799   7.049  13.876  0.00  0.00    +0.000 A 
ATOM      2  N   UNL     1      46.975   8.019  13.439  0.00  0.00    +0.000 NA
ATOM      3  C   UNL     1      46.043   7.657  12.535  0.00  0.00    +0.000 A 
ATOM      4  C   UNL     1      45.905   6.374  12.048  0.00  0.00    +0.000 A 
ATOM      5  C   UNL     1      46.729   5.440  12.640  0.00  0.00    +0.000 A 
ATOM      6  N   UNL     1      47.670   5.743  13.557  0.00  0.00    +0.000 NA
ENDROOT
BRANCH   1   7
ATOM      7  C   UNL     1      48.943   7.439  14.790  0.00  0.00    +0.000 C 
BRANCH   7  10
ATOM      8  O   UNL     1      48.475   7.388  17.596  0.00  0.00    +0.000 OA
ATOM      9  C   UNL     1      49.108   6.484  17.056  0.00  0.00    +0.000 C 
ATOM     10  N   UNL     1      49.301   6.375  15.696  0.00  0.00    +0.000 N 
ATOM     11  H   UNL     1      50.020   5.749  15.362  0.00  0.00    +0.000 HD
BRANCH   9  12
ATOM     12  C   UNL     1      49.932   5.534  17.784  0.00  0.00    +0.000 A 
ATOM     13  C   UNL     1      50.901   5.922  18.689  0.00  0.00    +0.000 A 
ATOM     14  S   UNL     1      52.037   4.669  18.977  0.00  0.00    +0.000 S 
ATOM     15  C   UNL     1      51.161   3.572  18.009  0.00  0.00    +0.000 A 
ATOM     16  N   UNL     1      51.628   2.334  17.699  0.00  0.00    +0.000 NA
ATOM     17  C   UNL     1      50.805   1.616  17.005  0.00  0.00    +0.000 A 
ATOM     18  N   UNL     1      49.539   2.004  16.633  0.00  0.00    +0.000 N 
ATOM     19  C   UNL     1      49.019   3.238  16.938  0.00  0.00    +0.000 A 
ATOM     20  O   UNL     1      47.858   3.534  16.686  0.00  0.00    +0.000 OA
ATOM     21  C   UNL     1      49.962   4.114  17.601  0.00  0.00    +0.000 A 
ATOM     22  H   UNL     1      48.912   1.362  16.172  0.00  0.00    +0.000 HD
ENDBRANCH   9  12
ENDBRANCH   7  10
ENDBRANCH   1   7
BRANCH   4  23
ATOM     23  C   UNL     1      44.968   6.029  10.926  0.00  0.00    +0.000 C 
BRANCH  23  24
ATOM     24  N   UNL     1      44.714   4.569  10.792  0.00  0.00    +0.000 NA
BRANCH  24  25
ATOM     25  C   UNL     1      43.619   4.135  11.698  0.00  0.00    +0.000 C 
BRANCH  25  26
ATOM     26  C   UNL     1      42.560   5.209  12.019  0.00  0.00    +0.000 C 
BRANCH  26  27
ATOM     27  O   UNL     1      42.737   5.701  13.346  0.00  0.00    +0.000 OA
ATOM     28  H   UNL     1      42.263   5.100  13.945  0.00  0.00    +0.000 HD
ENDBRANCH  26  27
ENDBRANCH  25  26
ENDBRANCH  24  25
BRANCH  24  29
ATOM     29  C   UNL     1      44.342   4.267   9.384  0.00  0.00    +0.000 C 
BRANCH  29  30
ATOM     30  C   UNL     1      45.360   3.461   8.600  0.00  0.00    +0.000 A 
ATOM     31  C   UNL     1      45.493   2.089   8.809  0.00  0.00    +0.000 A 
ATOM     32  C   UNL     1      46.395   1.376   8.028  0.00  0.00    +0.000 A 
ATOM     33  C   UNL     1      47.137   2.044   7.062  0.00  0.00    +0.000 A 
ATOM     34  C   UNL     1      46.952   3.409   6.925  0.00  0.00    +0.000 A 
ATOM     35  N   UNL     1      46.090   4.131   7.673  0.00  0.00    +0.000 NA
ENDBRANCH  29  30
ENDBRANCH  24  29
ENDBRANCH  23  24
ENDBRANCH   4  23
TORSDOF 10
ENDMDL
MODEL 5
REMARK VINA RESULT:    -7.386      1.809      2.303
REMARK INTER + INTRA:         -13.031
REMARK INTER:                 -11.785
REMARK INTRA:                  -1.246
REMARK UNBOUND:                -1.544
REMARK  Name = 
REMARK  10 active torsions:
REMARK  status: ('A' for Active; 'I' for Inactive)
REMARK    1  A    between atoms: C_2  and  C_23
REMARK    2  A    between atoms: N_3  and  C_4
REMARK    3  A    between atoms: C_4  and  C_5
REMARK    4  A    between atoms: C_8  and  C_9
REMARK    5  A    between atoms: C_9  and  N_10
REMARK    6  A    between atoms: N_10  and  C_11
REMARK    7  A    between atoms: N_10  and  C_14
REMARK    8  A    between atoms: C_11  and  C_12
REMARK    9  A    between atoms: C_12  and  O_13
REMARK   10  A    between atoms: C_14  and  C_15
REMARK                            x       y       z     vdW  Elec       q    Type
REMARK                         _______ _______ _______ _____ _____    ______ ____
ROOT
ATOM      1  C   UNL     1      48.083   6.575  13.514  0.00  0.00    +0.000 A 
ATOM      2  N   UNL     1      47.225   5.575  13.786  0.00  0.00    +0.000 NA
ATOM      3  C   UNL     1      46.268   5.334  12.868  0.00  0.00    +0.000 A 
ATOM      4  C   UNL     1      46.131   6.050  11.697  0.00  0.00    +0.000 A 
ATOM      5  C   UNL     1      47.126   6.979  11.469  0.00  0.00    +0.000 A 
ATOM      6  N   UNL     1      48.113   7.253  12.346  0.00  0.00    +0.000 NA
ENDROOT
BRANCH   1   7
ATOM      7  C   UNL     1      49.089   6.966  14.577  0.00  0.00    +0.000 C 
BRANCH   7  10
ATOM      8  O   UNL     1      50.351   8.066  16.878  0.00  0.00    +0.000 OA
ATOM      9  C   UNL     1      49.178   7.701  16.928  0.00  0.00    +0.000 C 
ATOM     10  N   UNL     1      48.459   7.247  15.845  0.00  0.00    +0.000 N 
ATOM     11  H   UNL     1      47.595   6.752  16.015  0.00  0.00    +0.000 HD
BRANCH   9  12
ATOM     12  C   UNL     1      48.458   7.480  18.170  0.00  0.00    +0.000 A 
ATOM     13  C   UNL     1      47.794   8.488  18.841  0.00  0.00    +0.000 A 
ATOM     14  S   UNL     1      47.507   8.076  20.482  0.00  0.00    +0.000 S 
ATOM     15  C   UNL     1      48.140   6.509  20.260  0.00  0.00    +0.000 A 
ATOM     16  N   UNL     1      48.330   5.642  21.290  0.00  0.00    +0.000 NA
ATOM     17  C   UNL     1      48.762   4.477  20.929  0.00  0.00    +0.000 A 
ATOM     18  N   UNL     1      48.977   4.082  19.630  0.00  0.00    +0.000 N 
ATOM     19  C   UNL     1      48.783   4.917  18.556  0.00  0.00    +0.000 A 
ATOM     20  O   UNL     1      48.884   4.524  17.401  0.00  0.00    +0.000 OA
ATOM     21  C   UNL     1      48.425   6.268  18.933  0.00  0.00    +0.000 A 
ATOM     22  H   UNL     1      49.225   3.130  19.409  0.00  0.00    +0.000 HD
ENDBRANCH   9  12
ENDBRANCH   7  10
ENDBRANCH   1   7
BRANCH   4  23
ATOM     23  C   UNL     1      44.966   5.870  10.768  0.00  0.00    +0.000 C 
BRANCH  23  24
ATOM     24  N   UNL     1      44.676   4.447  10.446  0.00  0.00    +0.000 NA
BRANCH  24  25
ATOM     25  C   UNL     1      43.432   3.993  11.120  0.00  0.00    +0.000 C 
BRANCH  25  26
ATOM     26  C   UNL     1      43.595   2.786  12.067  0.00  0.00    +0.000 C 
BRANCH  26  27
ATOM     27  O   UNL     1      42.838   1.675  11.592  0.00  0.00    +0.000 OA
ATOM     28  H   UNL     1      43.470   0.995  11.302  0.00  0.00    +0.000 HD
ENDBRANCH  26  27
ENDBRANCH  25  26
ENDBRANCH  24  25
BRANCH  24  29
ATOM     29  C   UNL     1      44.524   4.302   8.974  0.00  0.00    +0.000 C 
BRANCH  29  30
ATOM     30  C   UNL     1      45.488   3.339   8.311  0.00  0.00    +0.000 A 
ATOM     31  C   UNL     1      46.468   3.804   7.435  0.00  0.00    +0.000 A 
ATOM     32  C   UNL     1      47.371   2.896   6.894  0.00  0.00    +0.000 A 
ATOM     33  C   UNL     1      47.277   1.554   7.241  0.00  0.00    +0.000 A 
ATOM     34  C   UNL     1      46.270   1.172   8.110  0.00  0.00    +0.000 A 
ATOM     35  N   UNL     1      45.373   2.028   8.645  0.00  0.00    +0.000 NA
ENDBRANCH  29  30
ENDBRANCH  24  29
ENDBRANCH  23  24
ENDBRANCH   4  23
TORSDOF 10
ENDMDL
MODEL 6
REMARK VINA RESULT:    -7.095      1.543      2.260
REMARK INTER + INTRA:         -12.579
REMARK INTER:                 -11.519
REMARK INTRA:                  -1.060
REMARK UNBOUND:                -1.544
REMARK  Name = 
REMARK  10 active torsions:
REMARK  status: ('A' for Active; 'I' for Inactive)
REMARK    1  A    between atoms: C_2  and  C_23
REMARK    2  A    between atoms: N_3  and  C_4
REMARK    3  A    between atoms: C_4  and  C_5
REMARK    4  A    between atoms: C_8  and  C_9
REMARK    5  A    between atoms: C_9  and  N_10
REMARK    6  A    between atoms: N_10  and  C_11
REMARK    7  A    between atoms: N_10  and  C_14
REMARK    8  A    between atoms: C_11  and  C_12
REMARK    9  A    between atoms: C_12  and  O_13
REMARK   10  A    between atoms: C_14  and  C_15
REMARK                            x       y       z     vdW  Elec       q    Type
REMARK                         _______ _______ _______ _____ _____    ______ ____
ROOT
ATOM      1  C   UNL     1      46.885   7.845  12.948  0.00  0.00    +0.000 A 
ATOM      2  N   UNL     1      47.449   6.905  12.167  0.00  0.00    +0.000 NA
ATOM      3  C   UNL     1      46.614   6.186  11.390  0.00  0.00    +0.000 A 
ATOM      4  C   UNL     1      45.247   6.363  11.365  0.00  0.00    +0.000 A 
ATOM      5  C   UNL     1      44.788   7.422  12.121  0.00  0.00    +0.000 A 
ATOM      6  N   UNL     1      45.578   8.181  12.908  0.00  0.00    +0.000 NA
ENDROOT
BRANCH   1   7
ATOM      7  C   UNL     1      47.769   8.583  13.932  0.00  0.00    +0.000 C 
BRANCH   7  10
ATOM      8  O   UNL     1      49.951   6.920  14.686  0.00  0.00    +0.000 OA
ATOM      9  C   UNL     1      48.967   7.020  15.414  0.00  0.00    +0.000 C 
ATOM     10  N   UNL     1      47.909   7.870  15.179  0.00  0.00    +0.000 N 
ATOM     11  H   UNL     1      47.049   7.719  15.686  0.00  0.00    +0.000 HD
BRANCH   9  12
ATOM     12  C   UNL     1      48.671   6.096  16.495  0.00  0.00    +0.000 A 
ATOM     13  C   UNL     1      48.063   4.872  16.291  0.00  0.00    +0.000 A 
ATOM     14  S   UNL     1      47.374   4.257  17.736  0.00  0.00    +0.000 S 
ATOM     15  C   UNL     1      48.004   5.548  18.655  0.00  0.00    +0.000 A 
ATOM     16  N   UNL     1      47.692   5.736  19.965  0.00  0.00    +0.000 NA
ATOM     17  C   UNL     1      48.309   6.730  20.519  0.00  0.00    +0.000 A 
ATOM     18  N   UNL     1      49.243   7.524  19.898  0.00  0.00    +0.000 N 
ATOM     19  C   UNL     1      49.603   7.361  18.582  0.00  0.00    +0.000 A 
ATOM     20  O   UNL     1      50.506   8.010  18.070  0.00  0.00    +0.000 OA
ATOM     21  C   UNL     1      48.837   6.342  17.897  0.00  0.00    +0.000 A 
ATOM     22  H   UNL     1      49.756   8.224  20.412  0.00  0.00    +0.000 HD
ENDBRANCH   9  12
ENDBRANCH   7  10
ENDBRANCH   1   7
BRANCH   4  23
ATOM     23  C   UNL     1      44.324   5.447  10.615  0.00  0.00    +0.000 C 
BRANCH  23  24
ATOM     24  N   UNL     1      44.946   4.146  10.248  0.00  0.00    +0.000 NA
BRANCH  24  25
ATOM     25  C   UNL     1      44.473   3.060  11.146  0.00  0.00    +0.000 C 
BRANCH  25  26
ATOM     26  C   UNL     1      43.274   3.420  12.046  0.00  0.00    +0.000 C 
BRANCH  26  27
ATOM     27  O   UNL     1      43.689   3.536  13.406  0.00  0.00    +0.000 OA
ATOM     28  H   UNL     1      42.892   3.683  13.943  0.00  0.00    +0.000 HD
ENDBRANCH  26  27
ENDBRANCH  25  26
ENDBRANCH  24  25
BRANCH  24  29
ATOM     29  C   UNL     1      44.592   3.816   8.842  0.00  0.00    +0.000 C 
BRANCH  29  30
ATOM     30  C   UNL     1      45.632   3.019   8.079  0.00  0.00    +0.000 A 
ATOM     31  C   UNL     1      46.429   3.631   7.114  0.00  0.00    +0.000 A 
ATOM     32  C   UNL     1      47.411   2.880   6.479  0.00  0.00    +0.000 A 
ATOM     33  C   UNL     1      47.575   1.543   6.822  0.00  0.00    +0.000 A 
ATOM     34  C   UNL     1      46.735   1.009   7.785  0.00  0.00    +0.000 A 
ATOM     35  N   UNL     1      45.767   1.710   8.413  0.00  0.00    +0.000 NA
ENDBRANCH  29  30
ENDBRANCH  24  29
ENDBRANCH  23  24
ENDBRANCH   4  23
TORSDOF 10
ENDMDL
MODEL 7
REMARK VINA RESULT:    -6.758      2.666      3.972
REMARK INTER + INTRA:         -12.056
REMARK INTER:                 -11.182
REMARK INTRA:                  -0.874
REMARK UNBOUND:                -1.544
REMARK  Name = 
REMARK  10 active torsions:
REMARK  status: ('A' for Active; 'I' for Inactive)
REMARK    1  A    between atoms: C_2  and  C_23
REMARK    2  A    between atoms: N_3  and  C_4
REMARK    3  A    between atoms: C_4  and  C_5
REMARK    4  A    between atoms: C_8  and  C_9
REMARK    5  A    between atoms: C_9  and  N_10
REMARK    6  A    between atoms: N_10  and  C_11
REMARK    7  A    between atoms: N_10  and  C_14
REMARK    8  A    between atoms: C_11  and  C_12
REMARK    9  A    between atoms: C_12  and  O_13
REMARK   10  A    between atoms: C_14  and  C_15
REMARK                            x       y       z     vdW  Elec       q    Type
REMARK                         _______ _______ _______ _____ _____    ______ ____
ROOT
ATOM      1  C   UNL     1      47.274   4.534  14.933  0.00  0.00    +0.000 A 
ATOM      2  N   UNL     1      46.728   3.489  14.283  0.00  0.00    +0.000 NA
ATOM      3  C   UNL     1      46.120   3.758  13.111  0.00  0.00    +0.000 A 
ATOM      4  C   UNL     1      46.030   5.023  12.567  0.00  0.00    +0.000 A 
ATOM      5  C   UNL     1      46.713   6.000  13.260  0.00  0.00    +0.000 A 
ATOM      6  N   UNL     1      47.348   5.785  14.431  0.00  0.00    +0.000 NA
ENDROOT
BRANCH   1   7
ATOM      7  C   UNL     1      47.849   4.296  16.314  0.00  0.00    +0.000 C 
BRANCH   7  10
ATOM      8  O   UNL     1      47.409   5.614  18.797  0.00  0.00    +0.000 OA
ATOM      9  C   UNL     1      48.219   6.065  17.990  0.00  0.00    +0.000 C 
ATOM     10  N   UNL     1      48.566   5.446  16.809  0.00  0.00    +0.000 N 
ATOM     11  H   UNL     1      49.047   5.989  16.107  0.00  0.00    +0.000 HD
BRANCH   9  12
ATOM     12  C   UNL     1      48.749   7.416  18.054  0.00  0.00    +0.000 A 
ATOM     13  C   UNL     1      48.001   8.531  17.727  0.00  0.00    +0.000 A 
ATOM     14  S   UNL     1      48.999   9.884  17.385  0.00  0.00    +0.000 S 
ATOM     15  C   UNL     1      50.410   9.025  17.808  0.00  0.00    +0.000 A 
ATOM     16  N   UNL     1      51.659   9.532  17.627  0.00  0.00    +0.000 NA
ATOM     17  C   UNL     1      52.608   8.767  18.060  0.00  0.00    +0.000 A 
ATOM     18  N   UNL     1      52.424   7.565  18.700  0.00  0.00    +0.000 N 
ATOM     19  C   UNL     1      51.181   7.022  18.920  0.00  0.00    +0.000 A 
ATOM     20  O   UNL     1      51.026   5.999  19.576  0.00  0.00    +0.000 OA
ATOM     21  C   UNL     1      50.104   7.789  18.332  0.00  0.00    +0.000 A 
ATOM     22  H   UNL     1      53.202   7.060  19.096  0.00  0.00    +0.000 HD
ENDBRANCH   9  12
ENDBRANCH   7  10
ENDBRANCH   1   7
BRANCH   4  23
ATOM     23  C   UNL     1      45.212   5.323  11.344  0.00  0.00    +0.000 C 
BRANCH  23  24
ATOM     24  N   UNL     1      44.423   4.160  10.855  0.00  0.00    +0.000 NA
BRANCH  24  25
ATOM     25  C   UNL     1      43.073   4.136  11.474  0.00  0.00    +0.000 C 
BRANCH  25  26
ATOM     26  C   UNL     1      42.732   5.346  12.367  0.00  0.00    +0.000 C 
BRANCH  26  27
ATOM     27  O   UNL     1      41.885   6.257  11.670  0.00  0.00    +0.000 OA
ATOM     28  H   UNL     1      41.022   6.255  12.119  0.00  0.00    +0.000 HD
ENDBRANCH  26  27
ENDBRANCH  25  26
ENDBRANCH  24  25
BRANCH  24  29
ATOM     29  C   UNL     1      44.291   4.248   9.376  0.00  0.00    +0.000 C 
BRANCH  29  30
ATOM     30  C   UNL     1      45.315   3.462   8.583  0.00  0.00    +0.000 A 
ATOM     31  C   UNL     1      45.480   2.094   8.793  0.00  0.00    +0.000 A 
ATOM     32  C   UNL     1      46.388   1.398   8.004  0.00  0.00    +0.000 A 
ATOM     33  C   UNL     1      47.103   2.078   7.026  0.00  0.00    +0.000 A 
ATOM     34  C   UNL     1      46.887   3.439   6.887  0.00  0.00    +0.000 A 
ATOM     35  N   UNL     1      46.019   4.145   7.644  0.00  0.00    +0.000 NA
ENDBRANCH  29  30
ENDBRANCH  24  29
ENDBRANCH  23  24
ENDBRANCH   4  23
TORSDOF 10
ENDMDL
MODEL 8
REMARK VINA RESULT:    -6.401      2.995      4.424
REMARK INTER + INTRA:         -11.500
REMARK INTER:                 -10.371
REMARK INTRA:                  -1.130
REMARK UNBOUND:                -1.544
REMARK  Name = 
REMARK  10 active torsions:
REMARK  status: ('A' for Active; 'I' for Inactive)
REMARK    1  A    between atoms: C_2  and  C_23
REMARK    2  A    between atoms: N_3  and  C_4
REMARK    3  A    between atoms: C_4  and  C_5
REMARK    4  A    between atoms: C_8  and  C_9
REMARK    5  A    between atoms: C_9  and  N_10
REMARK    6  A    between atoms: N_10  and  C_11
REMARK    7  A    between atoms: N_10  and  C_14
REMARK    8  A    between atoms: C_11  and  C_12
REMARK    9  A    between atoms: C_12  and  O_13
REMARK   10  A    between atoms: C_14  and  C_15
REMARK                            x       y       z     vdW  Elec       q    Type
REMARK                         _______ _______ _______ _____ _____    ______ ____
ROOT
ATOM      1  C   UNL     1      47.818   4.421  15.857  0.00  0.00    +0.000 A 
ATOM      2  N   UNL     1      47.199   3.634  14.958  0.00  0.00    +0.000 NA
ATOM      3  C   UNL     1      46.934   4.183  13.756  0.00  0.00    +0.000 A 
ATOM      4  C   UNL     1      47.254   5.482  13.419  0.00  0.00    +0.000 A 
ATOM      5  C   UNL     1      47.980   6.163  14.374  0.00  0.00    +0.000 A 
ATOM      6  N   UNL     1      48.283   5.660  15.588  0.00  0.00    +0.000 NA
ENDROOT
BRANCH   1   7
ATOM      7  C   UNL     1      48.015   3.887  17.261  0.00  0.00    +0.000 C 
BRANCH   7  10
ATOM      8  O   UNL     1      46.271   5.408  18.916  0.00  0.00    +0.000 OA
ATOM      9  C   UNL     1      47.472   5.662  18.882  0.00  0.00    +0.000 C 
ATOM     10  N   UNL     1      48.404   4.923  18.187  0.00  0.00    +0.000 N 
ATOM     11  H   UNL     1      49.313   5.331  18.020  0.00  0.00    +0.000 HD
BRANCH   9  12
ATOM     12  C   UNL     1      48.045   6.902  19.378  0.00  0.00    +0.000 A 
ATOM     13  C   UNL     1      47.884   8.112  18.731  0.00  0.00    +0.000 A 
ATOM     14  S   UNL     1      49.068   9.254  19.221  0.00  0.00    +0.000 S 
ATOM     15  C   UNL     1      49.701   8.185  20.388  0.00  0.00    +0.000 A 
ATOM     16  N   UNL     1      50.829   8.458  21.097  0.00  0.00    +0.000 NA
ATOM     17  C   UNL     1      51.128   7.562  21.981  0.00  0.00    +0.000 A 
ATOM     18  N   UNL     1      50.380   6.441  22.255  0.00  0.00    +0.000 N 
ATOM     19  C   UNL     1      49.225   6.134  21.577  0.00  0.00    +0.000 A 
ATOM     20  O   UNL     1      48.517   5.187  21.896  0.00  0.00    +0.000 OA
ATOM     21  C   UNL     1      48.932   7.047  20.493  0.00  0.00    +0.000 A 
ATOM     22  H   UNL     1      50.619   5.830  23.020  0.00  0.00    +0.000 HD
ENDBRANCH   9  12
ENDBRANCH   7  10
ENDBRANCH   1   7
BRANCH   4  23
ATOM     23  C   UNL     1      46.808   6.121  12.136  0.00  0.00    +0.000 C 
BRANCH  23  24
ATOM     24  N   UNL     1      45.503   5.606  11.638  0.00  0.00    +0.000 NA
BRANCH  24  25
ATOM     25  C   UNL     1      44.371   6.343  12.257  0.00  0.00    +0.000 C 
BRANCH  25  26
ATOM     26  C   UNL     1      42.993   5.660  12.140  0.00  0.00    +0.000 C 
BRANCH  26  27
ATOM     27  O   UNL     1      42.463   5.383  13.434  0.00  0.00    +0.000 OA
ATOM     28  H   UNL     1      42.857   4.547  13.738  0.00  0.00    +0.000 HD
ENDBRANCH  26  27
ENDBRANCH  25  26
ENDBRANCH  24  25
BRANCH  24  29
ATOM     29  C   UNL     1      45.450   5.765  10.160  0.00  0.00    +0.000 C 
BRANCH  29  30
ATOM     30  C   UNL     1      45.483   4.474   9.365  0.00  0.00    +0.000 A 
ATOM     31  C   UNL     1      46.070   4.432   8.102  0.00  0.00    +0.000 A 
ATOM     32  C   UNL     1      46.134   3.216   7.431  0.00  0.00    +0.000 A 
ATOM     33  C   UNL     1      45.615   2.077   8.035  0.00  0.00    +0.000 A 
ATOM     34  C   UNL     1      45.041   2.206   9.287  0.00  0.00    +0.000 A 
ATOM     35  N   UNL     1      44.956   3.374   9.961  0.00  0.00    +0.000 NA
ENDBRANCH  29  30
ENDBRANCH  24  29
ENDBRANCH  23  24
ENDBRANCH   4  23
TORSDOF 10
ENDMDL
MODEL 9
REMARK VINA RESULT:    -6.309      3.090      8.764
REMARK INTER + INTRA:         -11.356
REMARK INTER:                 -10.259
REMARK INTRA:                  -1.097
REMARK UNBOUND:                -1.544
REMARK  Name = 
REMARK  10 active torsions:
REMARK  status: ('A' for Active; 'I' for Inactive)
REMARK    1  A    between atoms: C_2  and  C_23
REMARK    2  A    between atoms: N_3  and  C_4
REMARK    3  A    between atoms: C_4  and  C_5
REMARK    4  A    between atoms: C_8  and  C_9
REMARK    5  A    between atoms: C_9  and  N_10
REMARK    6  A    between atoms: N_10  and  C_11
REMARK    7  A    between atoms: N_10  and  C_14
REMARK    8  A    between atoms: C_11  and  C_12
REMARK    9  A    between atoms: C_12  and  O_13
REMARK   10  A    between atoms: C_14  and  C_15
REMARK                            x       y       z     vdW  Elec       q    Type
REMARK                         _______ _______ _______ _____ _____    ______ ____
ROOT
ATOM      1  C   UNL     1      47.904   7.499  14.014  0.00  0.00    +0.000 A 
ATOM      2  N   UNL     1      47.780   6.163  14.128  0.00  0.00    +0.000 NA
ATOM      3  C   UNL     1      48.263   5.607  15.257  0.00  0.00    +0.000 A 
ATOM      4  C   UNL     1      48.866   6.325  16.268  0.00  0.00    +0.000 A 
ATOM      5  C   UNL     1      48.844   7.694  16.097  0.00  0.00    +0.000 A 
ATOM      6  N   UNL     1      48.364   8.305  14.995  0.00  0.00    +0.000 NA
ENDROOT
BRANCH   1   7
ATOM      7  C   UNL     1      47.495   8.147  12.707  0.00  0.00    +0.000 C 
BRANCH   7  10
ATOM      8  O   UNL     1      44.830   7.618  11.864  0.00  0.00    +0.000 OA
ATOM      9  C   UNL     1      45.760   6.934  11.445  0.00  0.00    +0.000 C 
ATOM     10  N   UNL     1      47.088   7.174  11.722  0.00  0.00    +0.000 N 
ATOM     11  H   UNL     1      47.757   6.440  11.540  0.00  0.00    +0.000 HD
BRANCH   9  12
ATOM     12  C   UNL     1      45.581   5.648  10.793  0.00  0.00    +0.000 A 
ATOM     13  C   UNL     1      45.885   5.434   9.463  0.00  0.00    +0.000 A 
ATOM     14  S   UNL     1      45.098   4.038   8.850  0.00  0.00    +0.000 S 
ATOM     15  C   UNL     1      44.471   3.645  10.386  0.00  0.00    +0.000 A 
ATOM     16  N   UNL     1      43.584   2.632  10.579  0.00  0.00    +0.000 NA
ATOM     17  C   UNL     1      43.262   2.440  11.817  0.00  0.00    +0.000 A 
ATOM     18  N   UNL     1      43.779   3.134  12.885  0.00  0.00    +0.000 N 
ATOM     19  C   UNL     1      44.689   4.153  12.740  0.00  0.00    +0.000 A 
ATOM     20  O   UNL     1      45.214   4.696  13.703  0.00  0.00    +0.000 OA
ATOM     21  C   UNL     1      44.972   4.481  11.359  0.00  0.00    +0.000 A 
ATOM     22  H   UNL     1      43.556   2.873  13.833  0.00  0.00    +0.000 HD
ENDBRANCH   9  12
ENDBRANCH   7  10
ENDBRANCH   1   7
BRANCH   4  23
ATOM     23  C   UNL     1      49.538   5.669  17.440  0.00  0.00    +0.000 C 
BRANCH  23  24
ATOM     24  N   UNL     1      48.625   5.425  18.589  0.00  0.00    +0.000 NA
BRANCH  24  25
ATOM     25  C   UNL     1      48.554   3.976  18.912  0.00  0.00    +0.000 C 
BRANCH  25  26
ATOM     26  C   UNL     1      47.995   3.074  17.793  0.00  0.00    +0.000 C 
BRANCH  26  27
ATOM     27  O   UNL     1      46.579   3.210  17.705  0.00  0.00    +0.000 OA
ATOM     28  H   UNL     1      46.206   2.941  18.562  0.00  0.00    +0.000 HD
ENDBRANCH  26  27
ENDBRANCH  25  26
ENDBRANCH  24  25
BRANCH  24  29
ATOM     29  C   UNL     1      49.122   6.174  19.774  0.00  0.00    +0.000 C 
BRANCH  29  30
ATOM     30  C   UNL     1      48.252   7.331  20.225  0.00  0.00    +0.000 A 
ATOM     31  C   UNL     1      47.945   7.505  21.573  0.00  0.00    +0.000 A 
ATOM     32  C   UNL     1      47.194   8.612  21.953  0.00  0.00    +0.000 A 
ATOM     33  C   UNL     1      46.772   9.514  20.984  0.00  0.00    +0.000 A 
ATOM     34  C   UNL     1      47.111   9.262  19.666  0.00  0.00    +0.000 A 
ATOM     35  N   UNL     1      47.832   8.193  19.264  0.00  0.00    +0.000 NA
ENDBRANCH  29  30
ENDBRANCH  24  29
ENDBRANCH  23  24
ENDBRANCH   4  23
TORSDOF 10
ENDMDL
