MODEL 1
REMARK VINA RESULT:    -8.246      0.000      0.000
REMARK INTER + INTRA:         -15.045
REMARK INTER:                 -13.307
REMARK INTRA:                  -1.737
REMARK UNBOUND:                -1.737
REMARK  Name = 
REMARK  11 active torsions:
REMARK  status: ('A' for Active; 'I' for Inactive)
REMARK    1  A    between atoms: N_1  and  C_2
REMARK    2  A    between atoms: C_2  and  C_3
REMARK    3  A    between atoms: C_3  and  C_4
REMARK    4  A    between atoms: C_4  and  C_5
REMARK    5  A    between atoms: C_5  and  N_6
REMARK    6  A    between atoms: C_5  and  C_14
REMARK    7  A    between atoms: N_6  and  C_7
REMARK    8  A    between atoms: C_7  and  C_8
REMARK    9  A    between atoms: C_17  and  C_18
REMARK   10  A    between atoms: C_18  and  N_19
REMARK   11  A    between atoms: C_20  and  C_22
REMARK                            x       y       z     vdW  Elec       q    Type
REMARK                         _______ _______ _______ _____ _____    ______ ____
ROOT
ATOM      1  C   UNL     1      45.332   6.614  11.247  0.00  0.00    +0.000 A 
ATOM      2  C   UNL     1      44.902   7.791  11.886  0.00  0.00    +0.000 A 
ATOM      3  C   UNL     1      45.695   8.427  12.859  0.00  0.00    +0.000 A 
ATOM      4  C   UNL     1      46.953   7.917  13.204  0.00  0.00    +0.000 A 
ATOM      5  C   UNL     1      47.381   6.739  12.583  0.00  0.00    +0.000 A 
ATOM      6  C   UNL     1      46.594   6.113  11.606  0.00  0.00    +0.000 A 
ENDROOT
BRANCH   1   7
ATOM      7  C   UNL     1      44.438   5.924  10.207  0.00  0.00    +0.000 C 
BRANCH   7   8
ATOM      8  N   UNL     1      45.277   5.174   9.248  0.00  0.00    +0.000 NA
ATOM      9  H   UNL     1      45.444   5.756   8.428  0.00  0.00    +0.000 HD
BRANCH   8  10
ATOM     10  C   UNL     1      44.692   3.904   8.801  0.00  0.00    +0.000 C 
BRANCH  10  11
ATOM     11  C   UNL     1      45.686   3.050   8.050  0.00  0.00    +0.000 A 
ATOM     12  C   UNL     1      45.896   1.719   8.444  0.00  0.00    +0.000 A 
ATOM     13  C   UNL     1      46.759   0.891   7.727  0.00  0.00    +0.000 A 
ATOM     14  C   UNL     1      47.413   1.381   6.600  0.00  0.00    +0.000 A 
ATOM     15  C   UNL     1      47.204   2.697   6.189  0.00  0.00    +0.000 A 
ATOM     16  C   UNL     1      46.341   3.529   6.908  0.00  0.00    +0.000 A 
ENDBRANCH  10  11
ENDBRANCH   8  10
ENDBRANCH   7   8
BRANCH   7  17
ATOM     17  C   UNL     1      43.375   4.987  10.833  0.00  0.00    +0.000 C 
BRANCH  17  18
ATOM     18  C   UNL     1      43.609   4.627  12.300  0.00  0.00    +0.000 C 
BRANCH  18  19
ATOM     19  C   UNL     1      43.780   3.112  12.418  0.00  0.00    +0.000 C 
BRANCH  19  20
ATOM     20  N   UNL     1      45.189   2.751  12.388  0.00  0.00    +0.000 NA
ATOM     21  H   UNL     1      45.704   3.384  13.002  0.00  0.00    +0.000 HD
ATOM     22  H   UNL     1      45.557   2.907  11.450  0.00  0.00    +0.000 HD
ENDBRANCH  19  20
ENDBRANCH  18  19
ENDBRANCH  17  18
ENDBRANCH   7  17
ENDBRANCH   1   7
BRANCH   4  23
ATOM     23  C   UNL     1      47.828   8.581  14.240  0.00  0.00    +0.000 C 
BRANCH  23  24
ATOM     24  N   UNL     1      48.120   7.679  15.322  0.00  0.00    +0.000 N 
ATOM     25  C   UNL     1      49.349   7.083  15.477  0.00  0.00    +0.000 C 
ATOM     26  O   UNL     1      50.295   7.316  14.729  0.00  0.00    +0.000 OA
ATOM     27  H   UNL     1      47.317   7.254  15.771  0.00  0.00    +0.000 HD
BRANCH  25  28
ATOM     28  C   UNL     1      49.483   6.210  16.651  0.00  0.00    +0.000 A 
ATOM     29  C   UNL     1      50.398   6.516  17.650  0.00  0.00    +0.000 A 
ATOM     30  S   UNL     1      50.331   5.448  18.981  0.00  0.00    +0.000 S 
ATOM     31  C   UNL     1      49.128   4.502  18.239  0.00  0.00    +0.000 A 
ATOM     32  N   UNL     1      48.614   3.398  18.849  0.00  0.00    +0.000 NA
ATOM     33  C   UNL     1      47.724   2.769  18.164  0.00  0.00    +0.000 A 
ATOM     34  N   UNL     1      47.300   3.136  16.912  0.00  0.00    +0.000 N 
ATOM     35  C   UNL     1      47.766   4.250  16.267  0.00  0.00    +0.000 A 
ATOM     36  O   UNL     1      47.334   4.576  15.169  0.00  0.00    +0.000 OA
ATOM     37  C   UNL     1      48.772   4.999  16.998  0.00  0.00    +0.000 A 
ATOM     38  H   UNL     1      46.589   2.602  16.425  0.00  0.00    +0.000 HD
ENDBRANCH  25  28
ENDBRANCH  23  24
ENDBRANCH   4  23
TORSDOF 11
ENDMDL
MODEL 2
REMARK VINA RESULT:    -8.076      1.684      2.375
REMARK INTER + INTRA:         -14.771
REMARK INTER:                 -13.352
REMARK INTRA:                  -1.419
REMARK UNBOUND:                -1.737
REMARK  Name = 
REMARK  11 active torsions:
REMARK  status: ('A' for Active; 'I' for Inactive)
REMARK    1  A    between atoms: N_1  and  C_2
REMARK    2  A    between atoms: C_2  and  C_3
REMARK    3  A    between atoms: C_3  and  C_4
REMARK    4  A    between atoms: C_4  and  C_5
REMARK    5  A    between atoms: C_5  and  N_6
REMARK    6  A    between atoms: C_5  and  C_14
REMARK    7  A    between atoms: N_6  and  C_7
REMARK    8  A    between atoms: C_7  and  C_8
REMARK    9  A    between atoms: C_17  and  C_18
REMARK   10  A    between atoms: C_18  and  N_19
REMARK   11  A    between atoms: C_20  and  C_22
REMARK                            x       y       z     vdW  Elec       q    Type
REMARK                         _______ _______ _______ _____ _____    ______ ____
ROOT
ATOM      1  C   UNL     1      45.656   4.906  11.825  0.00  0.00    +0.000 A 
ATOM      2  C   UNL     1      46.197   4.543  13.072  0.00  0.00    +0.000 A 
ATOM      3  C   UNL     1      47.193   5.320  13.691  0.00  0.00    +0.000 A 
ATOM      4  C   UNL     1      47.661   6.496  13.091  0.00  0.00    +0.000 A 
ATOM      5  C   UNL     1      47.137   6.856  11.845  0.00  0.00    +0.000 A 
ATOM      6  C   UNL     1      46.137   6.086  11.235  0.00  0.00    +0.000 A 
ENDROOT
BRANCH   1   7
ATOM      7  C   UNL     1      44.587   4.029  11.157  0.00  0.00    +0.000 C 
BRANCH   7   8
ATOM      8  N   UNL     1      45.185   2.739  10.749  0.00  0.00    +0.000 NA
ATOM      9  H   UNL     1      46.189   2.864  10.626  0.00  0.00    +0.000 HD
BRANCH   8  10
ATOM     10  C   UNL     1      44.633   2.184   9.508  0.00  0.00    +0.000 C 
BRANCH  10  11
ATOM     11  C   UNL     1      45.618   2.248   8.365  0.00  0.00    +0.000 A 
ATOM     12  C   UNL     1      45.800   3.455   7.671  0.00  0.00    +0.000 A 
ATOM     13  C   UNL     1      46.751   3.557   6.656  0.00  0.00    +0.000 A 
ATOM     14  C   UNL     1      47.539   2.456   6.331  0.00  0.00    +0.000 A 
ATOM     15  C   UNL     1      47.378   1.255   7.021  0.00  0.00    +0.000 A 
ATOM     16  C   UNL     1      46.425   1.151   8.037  0.00  0.00    +0.000 A 
ENDBRANCH  10  11
ENDBRANCH   8  10
ENDBRANCH   7   8
BRANCH   7  17
ATOM     17  C   UNL     1      43.346   3.782  12.050  0.00  0.00    +0.000 C 
BRANCH  17  18
ATOM     18  C   UNL     1      42.774   5.027  12.727  0.00  0.00    +0.000 C 
BRANCH  18  19
ATOM     19  C   UNL     1      41.987   5.836  11.696  0.00  0.00    +0.000 C 
BRANCH  19  20
ATOM     20  N   UNL     1      42.716   7.039  11.324  0.00  0.00    +0.000 NA
ATOM     21  H   UNL     1      42.591   7.205  10.324  0.00  0.00    +0.000 HD
ATOM     22  H   UNL     1      43.713   6.885  11.462  0.00  0.00    +0.000 HD
ENDBRANCH  19  20
ENDBRANCH  18  19
ENDBRANCH  17  18
ENDBRANCH   7  17
ENDBRANCH   1   7
BRANCH   4  23
ATOM     23  C   UNL     1      48.725   7.352  13.735  0.00  0.00    +0.000 C 
BRANCH  23  24
ATOM     24  N   UNL     1      48.607   7.327  15.168  0.00  0.00    +0.000 N 
ATOM     25  C   UNL     1      49.637   6.933  15.988  0.00  0.00    +0.000 C 
ATOM     26  O   UNL     1      50.743   6.620  15.555  0.00  0.00    +0.000 OA
ATOM     27  H   UNL     1      47.662   7.300  15.534  0.00  0.00    +0.000 HD
BRANCH  25  28
ATOM     28  C   UNL     1      49.356   6.993  17.429  0.00  0.00    +0.000 A 
ATOM     29  C   UNL     1      49.185   8.218  18.060  0.00  0.00    +0.000 A 
ATOM     30  S   UNL     1      48.757   8.080  19.707  0.00  0.00    +0.000 S 
ATOM     31  C   UNL     1      48.853   6.383  19.652  0.00  0.00    +0.000 A 
ATOM     32  N   UNL     1      48.608   5.620  20.753  0.00  0.00    +0.000 NA
ATOM     33  C   UNL     1      48.734   4.353  20.571  0.00  0.00    +0.000 A 
ATOM     34  N   UNL     1      49.094   3.768  19.383  0.00  0.00    +0.000 N 
ATOM     35  C   UNL     1      49.327   4.488  18.241  0.00  0.00    +0.000 A 
ATOM     36  O   UNL     1      49.602   3.933  17.185  0.00  0.00    +0.000 OA
ATOM     37  C   UNL     1      49.195   5.925  18.392  0.00  0.00    +0.000 A 
ATOM     38  H   UNL     1      49.170   2.760  19.299  0.00  0.00    +0.000 HD
ENDBRANCH  25  28
ENDBRANCH  23  24
ENDBRANCH   4  23
TORSDOF 11
ENDMDL
MODEL 3
REMARK VINA RESULT:    -8.009      2.277      3.059
REMARK INTER + INTRA:         -14.662
REMARK INTER:                 -13.248
REMARK INTRA:                  -1.414
REMARK UNBOUND:                -1.737
REMARK  Name = 
REMARK  11 active torsions:
REMARK  status: ('A' for Active; 'I' for Inactive)
REMARK    1  A    between atoms: N_1  and  C_2
REMARK    2  A    between atoms: C_2  and  C_3
REMARK    3  A    between atoms: C_3  and  C_4
REMARK    4  A    between atoms: C_4  and  C_5
REMARK    5  A    between atoms: C_5  and  N_6
REMARK    6  A    between atoms: C_5  and  C_14
REMARK    7  A    between atoms: N_6  and  C_7
REMARK    8  A    between atoms: C_7  and  C_8
REMARK    9  A    between atoms: C_17  and  C_18
REMARK   10  A    between atoms: C_18  and  N_19
REMARK   11  A    between atoms: C_20  and  C_22
REMARK                            x       y       z     vdW  Elec       q    Type
REMARK                         _______ _______ _______ _____ _____    ______ ____
ROOT
ATOM      1  C   UNL     1      45.670   4.826  11.987  0.00  0.00    +0.000 A 
ATOM      2  C   UNL     1      46.038   4.294  13.237  0.00  0.00    +0.000 A 
ATOM      3  C   UNL     1      46.986   4.936  14.054  0.00  0.00    +0.000 A 
ATOM      4  C   UNL     1      47.577   6.142  13.655  0.00  0.00    +0.000 A 
ATOM      5  C   UNL     1      47.227   6.668  12.408  0.00  0.00    +0.000 A 
ATOM      6  C   UNL     1      46.274   6.033  11.600  0.00  0.00    +0.000 A 
ENDROOT
BRANCH   1   7
ATOM      7  C   UNL     1      44.651   4.094  11.102  0.00  0.00    +0.000 C 
BRANCH   7   8
ATOM      8  N   UNL     1      45.191   2.775  10.707  0.00  0.00    +0.000 NA
ATOM      9  H   UNL     1      46.202   2.849  10.599  0.00  0.00    +0.000 HD
BRANCH   8  10
ATOM     10  C   UNL     1      44.631   2.243   9.459  0.00  0.00    +0.000 C 
BRANCH  10  11
ATOM     11  C   UNL     1      45.619   2.305   8.318  0.00  0.00    +0.000 A 
ATOM     12  C   UNL     1      45.775   3.501   7.599  0.00  0.00    +0.000 A 
ATOM     13  C   UNL     1      46.727   3.604   6.585  0.00  0.00    +0.000 A 
ATOM     14  C   UNL     1      47.541   2.514   6.285  0.00  0.00    +0.000 A 
ATOM     15  C   UNL     1      47.406   1.324   7.000  0.00  0.00    +0.000 A 
ATOM     16  C   UNL     1      46.452   1.220   8.014  0.00  0.00    +0.000 A 
ENDBRANCH  10  11
ENDBRANCH   8  10
ENDBRANCH   7   8
BRANCH   7  17
ATOM     17  C   UNL     1      43.264   3.924  11.769  0.00  0.00    +0.000 C 
BRANCH  17  18
ATOM     18  C   UNL     1      42.794   5.114  12.604  0.00  0.00    +0.000 C 
BRANCH  18  19
ATOM     19  C   UNL     1      42.001   6.067  11.708  0.00  0.00    +0.000 C 
BRANCH  19  20
ATOM     20  N   UNL     1      42.867   7.107  11.173  0.00  0.00    +0.000 NA
ATOM     21  H   UNL     1      43.672   7.217  11.791  0.00  0.00    +0.000 HD
ATOM     22  H   UNL     1      42.374   7.998  11.191  0.00  0.00    +0.000 HD
ENDBRANCH  19  20
ENDBRANCH  18  19
ENDBRANCH  17  18
ENDBRANCH   7  17
ENDBRANCH   1   7
BRANCH   4  23
ATOM     23  C   UNL     1      48.593   6.855  14.514  0.00  0.00    +0.000 C 
BRANCH  23  24
ATOM     24  N   UNL     1      48.364   6.591  15.909  0.00  0.00    +0.000 N 
ATOM     25  C   UNL     1      49.324   6.046  16.726  0.00  0.00    +0.000 C 
ATOM     26  O   UNL     1      50.459   5.789  16.332  0.00  0.00    +0.000 OA
ATOM     27  H   UNL     1      47.392   6.521  16.191  0.00  0.00    +0.000 HD
BRANCH  25  28
ATOM     28  C   UNL     1      48.931   5.867  18.130  0.00  0.00    +0.000 A 
ATOM     29  C   UNL     1      49.127   4.646  18.763  0.00  0.00    +0.000 A 
ATOM     30  S   UNL     1      48.710   4.666  20.419  0.00  0.00    +0.000 S 
ATOM     31  C   UNL     1      48.189   6.282  20.332  0.00  0.00    +0.000 A 
ATOM     32  N   UNL     1      47.694   6.931  21.422  0.00  0.00    +0.000 NA
ATOM     33  C   UNL     1      47.321   8.143  21.205  0.00  0.00    +0.000 A 
ATOM     34  N   UNL     1      47.391   8.776  19.989  0.00  0.00    +0.000 N 
ATOM     35  C   UNL     1      47.904   8.177  18.869  0.00  0.00    +0.000 A 
ATOM     36  O   UNL     1      47.994   8.783  17.810  0.00  0.00    +0.000 OA
ATOM     37  C   UNL     1      48.342   6.806  19.060  0.00  0.00    +0.000 A 
ATOM     38  H   UNL     1      47.088   9.737  19.883  0.00  0.00    +0.000 HD
ENDBRANCH  25  28
ENDBRANCH  23  24
ENDBRANCH   4  23
TORSDOF 11
ENDMDL
MODEL 4
REMARK VINA RESULT:    -7.406      3.870      5.954
REMARK INTER + INTRA:         -13.690
REMARK INTER:                 -12.026
REMARK INTRA:                  -1.664
REMARK UNBOUND:                -1.737
REMARK  Name = 
REMARK  11 active torsions:
REMARK  status: ('A' for Active; 'I' for Inactive)
REMARK    1  A    between atoms: N_1  and  C_2
REMARK    2  A    between atoms: C_2  and  C_3
REMARK    3  A    between atoms: C_3  and  C_4
REMARK    4  A    between atoms: C_4  and  C_5
REMARK    5  A    between atoms: C_5  and  N_6
REMARK    6  A    between atoms: C_5  and  C_14
REMARK    7  A    between atoms: N_6  and  C_7
REMARK    8  A    between atoms: C_7  and  C_8
REMARK    9  A    between atoms: C_17  and  C_18
REMARK   10  A    between atoms: C_18  and  N_19
REMARK   11  A    between atoms: C_20  and  C_22
REMARK                            x       y       z     vdW  Elec       q    Type
REMARK                         _______ _______ _______ _____ _____    ______ ____
ROOT
ATOM      1  C   UNL     1      45.763   4.912  11.892  0.00  0.00    +0.000 A 
ATOM      2  C   UNL     1      46.378   4.539  13.101  0.00  0.00    +0.000 A 
ATOM      3  C   UNL     1      47.426   5.297  13.653  0.00  0.00    +0.000 A 
ATOM      4  C   UNL     1      47.876   6.465  13.023  0.00  0.00    +0.000 A 
ATOM      5  C   UNL     1      47.278   6.834  11.813  0.00  0.00    +0.000 A 
ATOM      6  C   UNL     1      46.227   6.083  11.271  0.00  0.00    +0.000 A 
ENDROOT
BRANCH   1   7
ATOM      7  C   UNL     1      44.638   4.054  11.296  0.00  0.00    +0.000 C 
BRANCH   7   8
ATOM      8  N   UNL     1      45.189   2.765  10.827  0.00  0.00    +0.000 NA
ATOM      9  H   UNL     1      46.195   2.863  10.695  0.00  0.00    +0.000 HD
BRANCH   8  10
ATOM     10  C   UNL     1      44.604   2.281   9.571  0.00  0.00    +0.000 C 
BRANCH  10  11
ATOM     11  C   UNL     1      45.587   2.332   8.425  0.00  0.00    +0.000 A 
ATOM     12  C   UNL     1      45.784   3.537   7.733  0.00  0.00    +0.000 A 
ATOM     13  C   UNL     1      46.733   3.627   6.715  0.00  0.00    +0.000 A 
ATOM     14  C   UNL     1      47.504   2.515   6.385  0.00  0.00    +0.000 A 
ATOM     15  C   UNL     1      47.329   1.315   7.075  0.00  0.00    +0.000 A 
ATOM     16  C   UNL     1      46.377   1.223   8.093  0.00  0.00    +0.000 A 
ENDBRANCH  10  11
ENDBRANCH   8  10
ENDBRANCH   7   8
BRANCH   7  17
ATOM     17  C   UNL     1      43.465   3.806  12.278  0.00  0.00    +0.000 C 
BRANCH  17  18
ATOM     18  C   UNL     1      42.811   5.068  12.841  0.00  0.00    +0.000 C 
BRANCH  18  19
ATOM     19  C   UNL     1      42.055   5.778  11.718  0.00  0.00    +0.000 C 
BRANCH  19  20
ATOM     20  N   UNL     1      42.746   6.997  11.325  0.00  0.00    +0.000 NA
ATOM     21  H   UNL     1      43.153   6.861  10.399  0.00  0.00    +0.000 HD
ATOM     22  H   UNL     1      43.530   7.158  11.957  0.00  0.00    +0.000 HD
ENDBRANCH  19  20
ENDBRANCH  18  19
ENDBRANCH  17  18
ENDBRANCH   7  17
ENDBRANCH   1   7
BRANCH   4  23
ATOM     23  C   UNL     1      48.995   7.301  13.595  0.00  0.00    +0.000 C 
BRANCH  23  24
ATOM     24  N   UNL     1      49.517   8.206  12.607  0.00  0.00    +0.000 N 
ATOM     25  C   UNL     1      50.386   9.224  12.921  0.00  0.00    +0.000 C 
ATOM     26  O   UNL     1      50.811   9.401  14.060  0.00  0.00    +0.000 OA
ATOM     27  H   UNL     1      48.988   8.272  11.744  0.00  0.00    +0.000 HD
BRANCH  25  28
ATOM     28  C   UNL     1      50.842  10.037  11.786  0.00  0.00    +0.000 A 
ATOM     29  C   UNL     1      52.196  10.125  11.486  0.00  0.00    +0.000 A 
ATOM     30  S   UNL     1      52.519  11.025  10.071  0.00  0.00    +0.000 S 
ATOM     31  C   UNL     1      50.872  11.386   9.850  0.00  0.00    +0.000 A 
ATOM     32  N   UNL     1      50.444  12.146   8.805  0.00  0.00    +0.000 NA
ATOM     33  C   UNL     1      49.174  12.353   8.773  0.00  0.00    +0.000 A 
ATOM     34  N   UNL     1      48.282  11.874   9.699  0.00  0.00    +0.000 N 
ATOM     35  C   UNL     1      48.658  11.084  10.753  0.00  0.00    +0.000 A 
ATOM     36  O   UNL     1      47.832  10.636  11.536  0.00  0.00    +0.000 OA
ATOM     37  C   UNL     1      50.083  10.818  10.835  0.00  0.00    +0.000 A 
ATOM     38  H   UNL     1      47.290  12.065   9.615  0.00  0.00    +0.000 HD
ENDBRANCH  25  28
ENDBRANCH  23  24
ENDBRANCH   4  23
TORSDOF 11
ENDMDL
MODEL 5
REMARK VINA RESULT:    -7.361      2.128      3.170
REMARK INTER + INTRA:         -13.616
REMARK INTER:                 -12.144
REMARK INTRA:                  -1.472
REMARK UNBOUND:                -1.737
REMARK  Name = 
REMARK  11 active torsions:
REMARK  status: ('A' for Active; 'I' for Inactive)
REMARK    1  A    between atoms: N_1  and  C_2
REMARK    2  A    between atoms: C_2  and  C_3
REMARK    3  A    between atoms: C_3  and  C_4
REMARK    4  A    between atoms: C_4  and  C_5
REMARK    5  A    between atoms: C_5  and  N_6
REMARK    6  A    between atoms: C_5  and  C_14
REMARK    7  A    between atoms: N_6  and  C_7
REMARK    8  A    between atoms: C_7  and  C_8
REMARK    9  A    between atoms: C_17  and  C_18
REMARK   10  A    between atoms: C_18  and  N_19
REMARK   11  A    between atoms: C_20  and  C_22
REMARK                            x       y       z     vdW  Elec       q    Type
REMARK                         _______ _______ _______ _____ _____    ______ ____
ROOT
ATOM      1  C   UNL     1      45.764   4.904  11.939  0.00  0.00    +0.000 A 
ATOM      2  C   UNL     1      46.239   6.062  11.296  0.00  0.00    +0.000 A 
ATOM      3  C   UNL     1      47.268   6.840  11.857  0.00  0.00    +0.000 A 
ATOM      4  C   UNL     1      47.868   6.471  13.067  0.00  0.00    +0.000 A 
ATOM      5  C   UNL     1      47.392   5.328  13.719  0.00  0.00    +0.000 A 
ATOM      6  C   UNL     1      46.374   4.548  13.153  0.00  0.00    +0.000 A 
ENDROOT
BRANCH   1   7
ATOM      7  C   UNL     1      44.623   4.085  11.320  0.00  0.00    +0.000 C 
BRANCH   7   8
ATOM      8  N   UNL     1      45.144   2.786  10.843  0.00  0.00    +0.000 NA
ATOM      9  H   UNL     1      46.156   2.851  10.744  0.00  0.00    +0.000 HD
BRANCH   8  10
ATOM     10  C   UNL     1      44.582   2.345   9.561  0.00  0.00    +0.000 C 
BRANCH  10  11
ATOM     11  C   UNL     1      45.599   2.391   8.445  0.00  0.00    +0.000 A 
ATOM     12  C   UNL     1      46.309   1.230   8.103  0.00  0.00    +0.000 A 
ATOM     13  C   UNL     1      47.204   1.230   7.034  0.00  0.00    +0.000 A 
ATOM     14  C   UNL     1      47.392   2.390   6.287  0.00  0.00    +0.000 A 
ATOM     15  C   UNL     1      46.683   3.548   6.607  0.00  0.00    +0.000 A 
ATOM     16  C   UNL     1      45.788   3.549   7.679  0.00  0.00    +0.000 A 
ENDBRANCH  10  11
ENDBRANCH   8  10
ENDBRANCH   7   8
BRANCH   7  17
ATOM     17  C   UNL     1      43.432   3.860  12.284  0.00  0.00    +0.000 C 
BRANCH  17  18
ATOM     18  C   UNL     1      42.794   5.134  12.838  0.00  0.00    +0.000 C 
BRANCH  18  19
ATOM     19  C   UNL     1      42.046   5.845  11.709  0.00  0.00    +0.000 C 
BRANCH  19  20
ATOM     20  N   UNL     1      42.760   7.044  11.296  0.00  0.00    +0.000 NA
ATOM     21  H   UNL     1      43.482   6.783  10.624  0.00  0.00    +0.000 HD
ATOM     22  H   UNL     1      43.250   7.437  12.099  0.00  0.00    +0.000 HD
ENDBRANCH  19  20
ENDBRANCH  18  19
ENDBRANCH  17  18
ENDBRANCH   7  17
ENDBRANCH   1   7
BRANCH   4  23
ATOM     23  C   UNL     1      48.978   7.283  13.689  0.00  0.00    +0.000 C 
BRANCH  23  24
ATOM     24  N   UNL     1      49.194   6.896  15.058  0.00  0.00    +0.000 N 
ATOM     25  C   UNL     1      48.840   7.697  16.118  0.00  0.00    +0.000 C 
ATOM     26  O   UNL     1      48.274   8.776  15.970  0.00  0.00    +0.000 OA
ATOM     27  H   UNL     1      49.891   6.175  15.208  0.00  0.00    +0.000 HD
BRANCH  25  28
ATOM     28  C   UNL     1      49.108   7.136  17.449  0.00  0.00    +0.000 A 
ATOM     29  C   UNL     1      48.379   6.048  17.911  0.00  0.00    +0.000 A 
ATOM     30  S   UNL     1      48.908   5.472  19.429  0.00  0.00    +0.000 S 
ATOM     31  C   UNL     1      50.080   6.697  19.553  0.00  0.00    +0.000 A 
ATOM     32  N   UNL     1      50.897   6.792  20.638  0.00  0.00    +0.000 NA
ATOM     33  C   UNL     1      51.724   7.778  20.606  0.00  0.00    +0.000 A 
ATOM     34  N   UNL     1      51.810   8.691  19.586  0.00  0.00    +0.000 N 
ATOM     35  C   UNL     1      51.030   8.625  18.462  0.00  0.00    +0.000 A 
ATOM     36  O   UNL     1      51.161   9.429  17.549  0.00  0.00    +0.000 OA
ATOM     37  C   UNL     1      50.079   7.527  18.447  0.00  0.00    +0.000 A 
ATOM     38  H   UNL     1      52.489   9.443  19.615  0.00  0.00    +0.000 HD
ENDBRANCH  25  28
ENDBRANCH  23  24
ENDBRANCH   4  23
TORSDOF 11
ENDMDL
MODEL 6
REMARK VINA RESULT:    -7.167      2.083      2.819
REMARK INTER + INTRA:         -13.304
REMARK INTER:                 -11.791
REMARK INTRA:                  -1.513
REMARK UNBOUND:                -1.737
REMARK  Name = 
REMARK  11 active torsions:
REMARK  status: ('A' for Active; 'I' for Inactive)
REMARK    1  A    between atoms: N_1  and  C_2
REMARK    2  A    between atoms: C_2  and  C_3
REMARK    3  A    between atoms: C_3  and  C_4
REMARK    4  A    between atoms: C_4  and  C_5
REMARK    5  A    between atoms: C_5  and  N_6
REMARK    6  A    between atoms: C_5  and  C_14
REMARK    7  A    between atoms: N_6  and  C_7
REMARK    8  A    between atoms: C_7  and  C_8
REMARK    9  A    between atoms: C_17  and  C_18
REMARK   10  A    between atoms: C_18  and  N_19
REMARK   11  A    between atoms: C_20  and  C_22
REMARK                            x       y       z     vdW  Elec       q    Type
REMARK                         _______ _______ _______ _____ _____    ______ ____
ROOT
ATOM      1  C   UNL     1      44.806   6.168  11.134  0.00  0.00    +0.000 A 
ATOM      2  C   UNL     1      44.521   7.513  11.432  0.00  0.00    +0.000 A 
ATOM      3  C   UNL     1      45.495   8.360  11.991  0.00  0.00    +0.000 A 
ATOM      4  C   UNL     1      46.791   7.892  12.247  0.00  0.00    +0.000 A 
ATOM      5  C   UNL     1      47.077   6.552  11.966  0.00  0.00    +0.000 A 
ATOM      6  C   UNL     1      46.108   5.713  11.399  0.00  0.00    +0.000 A 
ENDROOT
BRANCH   1   7
ATOM      7  C   UNL     1      43.719   5.256  10.548  0.00  0.00    +0.000 C 
BRANCH   7   8
ATOM      8  N   UNL     1      44.348   4.092   9.886  0.00  0.00    +0.000 NA
ATOM      9  H   UNL     1      45.200   3.846  10.388  0.00  0.00    +0.000 HD
BRANCH   8  10
ATOM     10  C   UNL     1      44.690   4.312   8.476  0.00  0.00    +0.000 C 
BRANCH  10  11
ATOM     11  C   UNL     1      45.661   3.280   7.955  0.00  0.00    +0.000 A 
ATOM     12  C   UNL     1      45.667   1.990   8.510  0.00  0.00    +0.000 A 
ATOM     13  C   UNL     1      46.507   0.999   8.002  0.00  0.00    +0.000 A 
ATOM     14  C   UNL     1      47.344   1.284   6.926  0.00  0.00    +0.000 A 
ATOM     15  C   UNL     1      47.338   2.557   6.356  0.00  0.00    +0.000 A 
ATOM     16  C   UNL     1      46.498   3.551   6.865  0.00  0.00    +0.000 A 
ENDBRANCH  10  11
ENDBRANCH   8  10
ENDBRANCH   7   8
BRANCH   7  17
ATOM     17  C   UNL     1      42.684   4.777  11.597  0.00  0.00    +0.000 C 
BRANCH  17  18
ATOM     18  C   UNL     1      43.193   4.730  13.037  0.00  0.00    +0.000 C 
BRANCH  18  19
ATOM     19  C   UNL     1      44.006   3.450  13.235  0.00  0.00    +0.000 C 
BRANCH  19  20
ATOM     20  N   UNL     1      43.435   2.356  12.463  0.00  0.00    +0.000 NA
ATOM     21  H   UNL     1      43.949   1.500  12.674  0.00  0.00    +0.000 HD
ATOM     22  H   UNL     1      43.580   2.534  11.470  0.00  0.00    +0.000 HD
ENDBRANCH  19  20
ENDBRANCH  18  19
ENDBRANCH  17  18
ENDBRANCH   7  17
ENDBRANCH   1   7
BRANCH   4  23
ATOM     23  C   UNL     1      47.858   8.780  12.841  0.00  0.00    +0.000 C 
BRANCH  23  24
ATOM     24  N   UNL     1      48.687   8.045  13.757  0.00  0.00    +0.000 N 
ATOM     25  C   UNL     1      48.645   8.244  15.116  0.00  0.00    +0.000 C 
ATOM     26  O   UNL     1      47.864   9.031  15.645  0.00  0.00    +0.000 OA
ATOM     27  H   UNL     1      49.514   7.615  13.357  0.00  0.00    +0.000 HD
BRANCH  25  28
ATOM     28  C   UNL     1      49.541   7.390  15.908  0.00  0.00    +0.000 A 
ATOM     29  C   UNL     1      49.033   6.601  16.932  0.00  0.00    +0.000 A 
ATOM     30  S   UNL     1      50.206   5.598  17.661  0.00  0.00    +0.000 S 
ATOM     31  C   UNL     1      51.445   6.232  16.684  0.00  0.00    +0.000 A 
ATOM     32  N   UNL     1      52.732   5.805  16.800  0.00  0.00    +0.000 NA
ATOM     33  C   UNL     1      53.566   6.384  16.009  0.00  0.00    +0.000 A 
ATOM     34  N   UNL     1      53.235   7.365  15.108  0.00  0.00    +0.000 N 
ATOM     35  C   UNL     1      51.951   7.812  14.935  0.00  0.00    +0.000 A 
ATOM     36  O   UNL     1      51.681   8.656  14.091  0.00  0.00    +0.000 OA
ATOM     37  C   UNL     1      50.969   7.187  15.803  0.00  0.00    +0.000 A 
ATOM     38  H   UNL     1      53.937   7.779  14.506  0.00  0.00    +0.000 HD
ENDBRANCH  25  28
ENDBRANCH  23  24
ENDBRANCH   4  23
TORSDOF 11
ENDMDL
MODEL 7
REMARK VINA RESULT:    -7.014      3.720      4.505
REMARK INTER + INTRA:         -13.056
REMARK INTER:                 -11.435
REMARK INTRA:                  -1.621
REMARK UNBOUND:                -1.737
REMARK  Name = 
REMARK  11 active torsions:
REMARK  status: ('A' for Active; 'I' for Inactive)
REMARK    1  A    between atoms: N_1  and  C_2
REMARK    2  A    between atoms: C_2  and  C_3
REMARK    3  A    between atoms: C_3  and  C_4
REMARK    4  A    between atoms: C_4  and  C_5
REMARK    5  A    between atoms: C_5  and  N_6
REMARK    6  A    between atoms: C_5  and  C_14
REMARK    7  A    between atoms: N_6  and  C_7
REMARK    8  A    between atoms: C_7  and  C_8
REMARK    9  A    between atoms: C_17  and  C_18
REMARK   10  A    between atoms: C_18  and  N_19
REMARK   11  A    between atoms: C_20  and  C_22
REMARK                            x       y       z     vdW  Elec       q    Type
REMARK                         _______ _______ _______ _____ _____    ______ ____
ROOT
ATOM      1  C   UNL     1      45.743   6.552  11.342  0.00  0.00    +0.000 A 
ATOM      2  C   UNL     1      47.150   6.521  11.346  0.00  0.00    +0.000 A 
ATOM      3  C   UNL     1      47.901   7.530  11.977  0.00  0.00    +0.000 A 
ATOM      4  C   UNL     1      47.267   8.587  12.642  0.00  0.00    +0.000 A 
ATOM      5  C   UNL     1      45.869   8.631  12.630  0.00  0.00    +0.000 A 
ATOM      6  C   UNL     1      45.122   7.620  12.010  0.00  0.00    +0.000 A 
ENDROOT
BRANCH   1   7
ATOM      7  C   UNL     1      44.945   5.454  10.625  0.00  0.00    +0.000 C 
BRANCH   7   8
ATOM      8  N   UNL     1      45.440   5.301   9.240  0.00  0.00    +0.000 NA
ATOM      9  H   UNL     1      45.308   6.181   8.742  0.00  0.00    +0.000 HD
BRANCH   8  10
ATOM     10  C   UNL     1      44.779   4.236   8.477  0.00  0.00    +0.000 C 
BRANCH  10  11
ATOM     11  C   UNL     1      45.765   3.247   7.903  0.00  0.00    +0.000 A 
ATOM     12  C   UNL     1      45.808   1.937   8.404  0.00  0.00    +0.000 A 
ATOM     13  C   UNL     1      46.663   0.987   7.846  0.00  0.00    +0.000 A 
ATOM     14  C   UNL     1      47.479   1.335   6.772  0.00  0.00    +0.000 A 
ATOM     15  C   UNL     1      47.437   2.629   6.254  0.00  0.00    +0.000 A 
ATOM     16  C   UNL     1      46.582   3.582   6.814  0.00  0.00    +0.000 A 
ENDBRANCH  10  11
ENDBRANCH   8  10
ENDBRANCH   7   8
BRANCH   7  17
ATOM     17  C   UNL     1      44.979   4.089  11.356  0.00  0.00    +0.000 C 
BRANCH  17  18
ATOM     18  C   UNL     1      43.655   3.654  11.983  0.00  0.00    +0.000 C 
BRANCH  18  19
ATOM     19  C   UNL     1      43.503   4.331  13.345  0.00  0.00    +0.000 C 
BRANCH  19  20
ATOM     20  N   UNL     1      42.576   5.450  13.261  0.00  0.00    +0.000 NA
ATOM     21  H   UNL     1      42.695   6.039  14.085  0.00  0.00    +0.000 HD
ATOM     22  H   UNL     1      41.620   5.098  13.301  0.00  0.00    +0.000 HD
ENDBRANCH  19  20
ENDBRANCH  18  19
ENDBRANCH  17  18
ENDBRANCH   7  17
ENDBRANCH   1   7
BRANCH   4  23
ATOM     23  C   UNL     1      48.048   9.679  13.332  0.00  0.00    +0.000 C 
BRANCH  23  24
ATOM     24  N   UNL     1      49.426   9.301  13.495  0.00  0.00    +0.000 N 
ATOM     25  C   UNL     1      50.422  10.219  13.730  0.00  0.00    +0.000 C 
ATOM     26  O   UNL     1      50.196  11.419  13.862  0.00  0.00    +0.000 OA
ATOM     27  H   UNL     1      49.683   8.395  13.120  0.00  0.00    +0.000 HD
BRANCH  25  28
ATOM     28  C   UNL     1      51.770   9.659  13.898  0.00  0.00    +0.000 A 
ATOM     29  C   UNL     1      52.489   9.902  15.061  0.00  0.00    +0.000 A 
ATOM     30  S   UNL     1      53.984   9.079  15.117  0.00  0.00    +0.000 S 
ATOM     31  C   UNL     1      53.755   8.428  13.563  0.00  0.00    +0.000 A 
ATOM     32  N   UNL     1      54.684   7.618  12.986  0.00  0.00    +0.000 NA
ATOM     33  C   UNL     1      54.386   7.213  11.801  0.00  0.00    +0.000 A 
ATOM     34  N   UNL     1      53.238   7.549  11.128  0.00  0.00    +0.000 N 
ATOM     35  C   UNL     1      52.261   8.339  11.673  0.00  0.00    +0.000 A 
ATOM     36  O   UNL     1      51.229   8.583  11.064  0.00  0.00    +0.000 OA
ATOM     37  C   UNL     1      52.548   8.821  13.012  0.00  0.00    +0.000 A 
ATOM     38  H   UNL     1      53.057   7.191  10.197  0.00  0.00    +0.000 HD
ENDBRANCH  25  28
ENDBRANCH  23  24
ENDBRANCH   4  23
TORSDOF 11
ENDMDL
MODEL 8
REMARK VINA RESULT:    -6.745      3.498      9.081
REMARK INTER + INTRA:         -12.622
REMARK INTER:                 -10.486
REMARK INTRA:                  -2.136
REMARK UNBOUND:                -1.737
REMARK  Name = 
REMARK  11 active torsions:
REMARK  status: ('A' for Active; 'I' for Inactive)
REMARK    1  A    between atoms: N_1  and  C_2
REMARK    2  A    between atoms: C_2  and  C_3
REMARK    3  A    between atoms: C_3  and  C_4
REMARK    4  A    between atoms: C_4  and  C_5
REMARK    5  A    between atoms: C_5  and  N_6
REMARK    6  A    between atoms: C_5  and  C_14
REMARK    7  A    between atoms: N_6  and  C_7
REMARK    8  A    between atoms: C_7  and  C_8
REMARK    9  A    between atoms: C_17  and  C_18
REMARK   10  A    between atoms: C_18  and  N_19
REMARK   11  A    between atoms: C_20  and  C_22
REMARK                            x       y       z     vdW  Elec       q    Type
REMARK                         _______ _______ _______ _____ _____    ______ ____
ROOT
ATOM      1  C   UNL     1      50.051   5.372  17.419  0.00  0.00    +0.000 A 
ATOM      2  C   UNL     1      48.832   5.010  16.816  0.00  0.00    +0.000 A 
ATOM      3  C   UNL     1      48.283   5.768  15.766  0.00  0.00    +0.000 A 
ATOM      4  C   UNL     1      48.948   6.898  15.273  0.00  0.00    +0.000 A 
ATOM      5  C   UNL     1      50.153   7.271  15.877  0.00  0.00    +0.000 A 
ATOM      6  C   UNL     1      50.704   6.508  16.915  0.00  0.00    +0.000 A 
ENDROOT
BRANCH   1   7
ATOM      7  C   UNL     1      50.619   4.543  18.580  0.00  0.00    +0.000 C 
BRANCH   7   8
ATOM      8  N   UNL     1      49.511   3.932  19.345  0.00  0.00    +0.000 NA
ATOM      9  H   UNL     1      48.679   3.901  18.756  0.00  0.00    +0.000 HD
BRANCH   8  10
ATOM     10  C   UNL     1      49.171   4.640  20.585  0.00  0.00    +0.000 C 
BRANCH  10  11
ATOM     11  C   UNL     1      48.794   6.081  20.337  0.00  0.00    +0.000 A 
ATOM     12  C   UNL     1      49.701   7.102  20.661  0.00  0.00    +0.000 A 
ATOM     13  C   UNL     1      49.404   8.435  20.380  0.00  0.00    +0.000 A 
ATOM     14  C   UNL     1      48.199   8.762  19.762  0.00  0.00    +0.000 A 
ATOM     15  C   UNL     1      47.294   7.756  19.423  0.00  0.00    +0.000 A 
ATOM     16  C   UNL     1      47.590   6.420  19.705  0.00  0.00    +0.000 A 
ENDBRANCH  10  11
ENDBRANCH   8  10
ENDBRANCH   7   8
BRANCH   7  17
ATOM     17  C   UNL     1      51.619   3.451  18.127  0.00  0.00    +0.000 C 
BRANCH  17  18
ATOM     18  C   UNL     1      50.993   2.245  17.428  0.00  0.00    +0.000 C 
BRANCH  18  19
ATOM     19  C   UNL     1      52.023   1.117  17.366  0.00  0.00    +0.000 C 
BRANCH  19  20
ATOM     20  N   UNL     1      51.641   0.024  18.248  0.00  0.00    +0.000 NA
ATOM     21  H   UNL     1      51.156   0.409  19.059  0.00  0.00    +0.000 HD
ATOM     22  H   UNL     1      52.481  -0.426  18.609  0.00  0.00    +0.000 HD
ENDBRANCH  19  20
ENDBRANCH  18  19
ENDBRANCH  17  18
ENDBRANCH   7  17
ENDBRANCH   1   7
BRANCH   4  23
ATOM     23  C   UNL     1      48.384   7.726  14.144  0.00  0.00    +0.000 C 
BRANCH  23  24
ATOM     24  N   UNL     1      47.134   7.185  13.682  0.00  0.00    +0.000 N 
ATOM     25  C   UNL     1      46.860   6.987  12.350  0.00  0.00    +0.000 C 
ATOM     26  O   UNL     1      47.681   7.217  11.466  0.00  0.00    +0.000 OA
ATOM     27  H   UNL     1      46.357   7.253  14.330  0.00  0.00    +0.000 HD
BRANCH  25  28
ATOM     28  C   UNL     1      45.545   6.401  12.056  0.00  0.00    +0.000 A 
ATOM     29  C   UNL     1      44.528   7.189  11.532  0.00  0.00    +0.000 A 
ATOM     30  S   UNL     1      43.115   6.308  11.155  0.00  0.00    +0.000 S 
ATOM     31  C   UNL     1      43.786   4.861  11.742  0.00  0.00    +0.000 A 
ATOM     32  N   UNL     1      43.086   3.693  11.725  0.00  0.00    +0.000 NA
ATOM     33  C   UNL     1      43.712   2.681  12.217  0.00  0.00    +0.000 A 
ATOM     34  N   UNL     1      44.981   2.727  12.738  0.00  0.00    +0.000 N 
ATOM     35  C   UNL     1      45.735   3.870  12.756  0.00  0.00    +0.000 A 
ATOM     36  O   UNL     1      46.881   3.867  13.187  0.00  0.00    +0.000 OA
ATOM     37  C   UNL     1      45.076   5.042  12.209  0.00  0.00    +0.000 A 
ATOM     38  H   UNL     1      45.423   1.892  13.105  0.00  0.00    +0.000 HD
ENDBRANCH  25  28
ENDBRANCH  23  24
ENDBRANCH   4  23
TORSDOF 11
ENDMDL
MODEL 9
REMARK VINA RESULT:    -6.701      3.821     10.238
REMARK INTER + INTRA:         -12.552
REMARK INTER:                 -10.512
REMARK INTRA:                  -2.039
REMARK UNBOUND:                -1.737
REMARK  Name = 
REMARK  11 active torsions:
REMARK  status: ('A' for Active; 'I' for Inactive)
REMARK    1  A    between atoms: N_1  and  C_2
REMARK    2  A    between atoms: C_2  and  C_3
REMARK    3  A    between atoms: C_3  and  C_4
REMARK    4  A    between atoms: C_4  and  C_5
REMARK    5  A    between atoms: C_5  and  N_6
REMARK    6  A    between atoms: C_5  and  C_14
REMARK    7  A    between atoms: N_6  and  C_7
REMARK    8  A    between atoms: C_7  and  C_8
REMARK    9  A    between atoms: C_17  and  C_18
REMARK   10  A    between atoms: C_18  and  N_19
REMARK   11  A    between atoms: C_20  and  C_22
REMARK                            x       y       z     vdW  Elec       q    Type
REMARK                         _______ _______ _______ _____ _____    ______ ____
ROOT
ATOM      1  C   UNL     1      51.489   3.056  17.769  0.00  0.00    +0.000 A 
ATOM      2  C   UNL     1      50.827   4.288  17.915  0.00  0.00    +0.000 A 
ATOM      3  C   UNL     1      49.461   4.425  17.605  0.00  0.00    +0.000 A 
ATOM      4  C   UNL     1      48.712   3.328  17.162  0.00  0.00    +0.000 A 
ATOM      5  C   UNL     1      49.368   2.103  17.002  0.00  0.00    +0.000 A 
ATOM      6  C   UNL     1      50.726   1.965  17.321  0.00  0.00    +0.000 A 
ENDROOT
BRANCH   1   7
ATOM      7  C   UNL     1      52.986   2.936  18.089  0.00  0.00    +0.000 C 
BRANCH   7   8
ATOM      8  N   UNL     1      53.173   2.786  19.548  0.00  0.00    +0.000 NA
ATOM      9  H   UNL     1      52.262   2.658  19.988  0.00  0.00    +0.000 HD
BRANCH   8  10
ATOM     10  C   UNL     1      53.841   3.924  20.191  0.00  0.00    +0.000 C 
BRANCH  10  11
ATOM     11  C   UNL     1      52.859   4.966  20.670  0.00  0.00    +0.000 A 
ATOM     12  C   UNL     1      52.961   6.285  20.198  0.00  0.00    +0.000 A 
ATOM     13  C   UNL     1      52.028   7.251  20.573  0.00  0.00    +0.000 A 
ATOM     14  C   UNL     1      50.974   6.906  21.416  0.00  0.00    +0.000 A 
ATOM     15  C   UNL     1      50.852   5.597  21.881  0.00  0.00    +0.000 A 
ATOM     16  C   UNL     1      51.788   4.629  21.508  0.00  0.00    +0.000 A 
ENDBRANCH  10  11
ENDBRANCH   8  10
ENDBRANCH   7   8
BRANCH   7  17
ATOM     17  C   UNL     1      53.686   1.775  17.340  0.00  0.00    +0.000 C 
BRANCH  17  18
ATOM     18  C   UNL     1      54.757   1.036  18.141  0.00  0.00    +0.000 C 
BRANCH  18  19
ATOM     19  C   UNL     1      54.352  -0.433  18.273  0.00  0.00    +0.000 C 
BRANCH  19  20
ATOM     20  N   UNL     1      52.933  -0.548  18.577  0.00  0.00    +0.000 NA
ATOM     21  H   UNL     1      52.400  -0.089  17.838  0.00  0.00    +0.000 HD
ATOM     22  H   UNL     1      52.730  -0.035  19.434  0.00  0.00    +0.000 HD
ENDBRANCH  19  20
ENDBRANCH  18  19
ENDBRANCH  17  18
ENDBRANCH   7  17
ENDBRANCH   1   7
BRANCH   4  23
ATOM     23  C   UNL     1      47.245   3.444  16.828  0.00  0.00    +0.000 C 
BRANCH  23  24
ATOM     24  N   UNL     1      47.020   4.477  15.852  0.00  0.00    +0.000 N 
ATOM     25  C   UNL     1      47.101   4.246  14.499  0.00  0.00    +0.000 C 
ATOM     26  O   UNL     1      47.325   3.132  14.032  0.00  0.00    +0.000 OA
ATOM     27  H   UNL     1      47.116   5.429  16.186  0.00  0.00    +0.000 HD
BRANCH  25  28
ATOM     28  C   UNL     1      46.816   5.405  13.643  0.00  0.00    +0.000 A 
ATOM     29  C   UNL     1      47.808   6.342  13.380  0.00  0.00    +0.000 A 
ATOM     30  S   UNL     1      47.321   7.553  12.279  0.00  0.00    +0.000 S 
ATOM     31  C   UNL     1      45.750   6.909  12.170  0.00  0.00    +0.000 A 
ATOM     32  N   UNL     1      44.798   7.484  11.385  0.00  0.00    +0.000 NA
ATOM     33  C   UNL     1      43.651   6.901  11.413  0.00  0.00    +0.000 A 
ATOM     34  N   UNL     1      43.359   5.790  12.165  0.00  0.00    +0.000 N 
ATOM     35  C   UNL     1      44.287   5.160  12.951  0.00  0.00    +0.000 A 
ATOM     36  O   UNL     1      44.007   4.145  13.575  0.00  0.00    +0.000 OA
ATOM     37  C   UNL     1      45.601   5.778  12.953  0.00  0.00    +0.000 A 
ATOM     38  H   UNL     1      42.436   5.372  12.140  0.00  0.00    +0.000 HD
ENDBRANCH  25  28
ENDBRANCH  23  24
ENDBRANCH   4  23
TORSDOF 11
ENDMDL
