MODEL 1
REMARK VINA RESULT:    -8.260      0.000      0.000
REMARK INTER + INTRA:         -11.947
REMARK INTER:                 -11.158
REMARK INTRA:                  -0.789
REMARK UNBOUND:                -0.789
REMARK  Name = 
REMARK  6 active torsions:
REMARK  status: ('A' for Active; 'I' for Inactive)
REMARK    1  A    between atoms: C_2  and  C_4
REMARK    2  A    between atoms: C_7  and  C_8
REMARK    3  A    between atoms: C_8  and  O_9
REMARK    4  A    between atoms: O_9  and  C_10
REMARK    5  A    between atoms: C_14  and  O_15
REMARK    6  A    between atoms: O_15  and  C_16
REMARK                            x       y       z     vdW  Elec       q    Type
REMARK                         _______ _______ _______ _____ _____    ______ ____
ROOT
ATOM      1  C   UNL     1      43.667   4.605  10.256  0.00  0.00    +0.000 C 
ENDROOT
BRANCH   1   5
ATOM      2  C   UNL     1      46.480   2.484   7.732  0.00  0.00    +0.000 A 
ATOM      3  C   UNL     1      46.387   3.876   7.649  0.00  0.00    +0.000 A 
ATOM      4  C   UNL     1      45.475   4.567   8.454  0.00  0.00    +0.000 A 
ATOM      5  C   UNL     1      44.631   3.878   9.339  0.00  0.00    +0.000 A 
ATOM      6  C   UNL     1      44.732   2.480   9.412  0.00  0.00    +0.000 A 
ATOM      7  C   UNL     1      45.641   1.787   8.608  0.00  0.00    +0.000 A 
BRANCH   2   9
ATOM      8  N   UNL     1      48.531   2.367   6.419  0.00  0.00    +0.000 N 
ATOM      9  C   UNL     1      47.436   1.704   6.902  0.00  0.00    +0.000 C 
ATOM     10  O   UNL     1      47.281   0.508   6.691  0.00  0.00    +0.000 OA
ATOM     11  H   UNL     1      49.226   1.798   5.952  0.00  0.00    +0.000 HD
ATOM     12  H   UNL     1      48.820   3.265   6.777  0.00  0.00    +0.000 HD
ENDBRANCH   2   9
ENDBRANCH   1   5
BRANCH   1  13
ATOM     13  O   UNL     1      43.985   4.349  11.624  0.00  0.00    +0.000 OA
BRANCH  13  14
ATOM     14  C   UNL     1      45.098   4.958  12.135  0.00  0.00    +0.000 A 
ATOM     15  C   UNL     1      45.551   6.243  11.847  0.00  0.00    +0.000 A 
ATOM     16  C   UNL     1      46.715   6.727  12.457  0.00  0.00    +0.000 A 
ATOM     17  C   UNL     1      47.436   5.933  13.356  0.00  0.00    +0.000 A 
ATOM     18  C   UNL     1      46.983   4.650  13.643  0.00  0.00    +0.000 A 
ATOM     19  C   UNL     1      45.821   4.173  13.034  0.00  0.00    +0.000 A 
BRANCH  18  20
ATOM     20  O   UNL     1      47.554   3.772  14.531  0.00  0.00    +0.000 OA
BRANCH  20  21
ATOM     21  C   UNL     1      47.375   3.955  15.950  0.00  0.00    +0.000 C 
ATOM     22  C   UNL     1      48.278   4.963  16.679  0.00  0.00    +0.000 C 
ATOM     23  O   UNL     1      48.637   3.974  17.680  0.00  0.00    +0.000 OA
ATOM     24  C   UNL     1      48.122   2.926  16.819  0.00  0.00    +0.000 C 
ENDBRANCH  20  21
ENDBRANCH  18  20
ENDBRANCH  13  14
ENDBRANCH   1  13
TORSDOF 6
ENDMDL
MODEL 2
REMARK VINA RESULT:    -7.551      2.140      3.008
REMARK INTER + INTRA:         -10.989
REMARK INTER:                 -10.221
REMARK INTRA:                  -0.768
REMARK UNBOUND:                -0.789
REMARK  Name = 
REMARK  6 active torsions:
REMARK  status: ('A' for Active; 'I' for Inactive)
REMARK    1  A    between atoms: C_2  and  C_4
REMARK    2  A    between atoms: C_7  and  C_8
REMARK    3  A    between atoms: C_8  and  O_9
REMARK    4  A    between atoms: O_9  and  C_10
REMARK    5  A    between atoms: C_14  and  O_15
REMARK    6  A    between atoms: O_15  and  C_16
REMARK                            x       y       z     vdW  Elec       q    Type
REMARK                         _______ _______ _______ _____ _____    ______ ____
ROOT
ATOM      1  C   UNL     1      43.612   4.374  10.403  0.00  0.00    +0.000 C 
ENDROOT
BRANCH   1   5
ATOM      2  C   UNL     1      46.470   2.542   7.708  0.00  0.00    +0.000 A 
ATOM      3  C   UNL     1      46.271   3.925   7.672  0.00  0.00    +0.000 A 
ATOM      4  C   UNL     1      45.344   4.523   8.534  0.00  0.00    +0.000 A 
ATOM      5  C   UNL     1      44.589   3.748   9.428  0.00  0.00    +0.000 A 
ATOM      6  C   UNL     1      44.796   2.360   9.453  0.00  0.00    +0.000 A 
ATOM      7  C   UNL     1      45.721   1.760   8.593  0.00  0.00    +0.000 A 
BRANCH   2   9
ATOM      8  N   UNL     1      48.507   2.600   6.371  0.00  0.00    +0.000 N 
ATOM      9  C   UNL     1      47.447   1.861   6.818  0.00  0.00    +0.000 C 
ATOM     10  O   UNL     1      47.338   0.676   6.529  0.00  0.00    +0.000 OA
ATOM     11  H   UNL     1      49.219   2.093   5.859  0.00  0.00    +0.000 HD
ATOM     12  H   UNL     1      48.764   3.483   6.785  0.00  0.00    +0.000 HD
ENDBRANCH   2   9
ENDBRANCH   1   5
BRANCH   1  13
ATOM     13  O   UNL     1      44.120   5.612  10.899  0.00  0.00    +0.000 OA
BRANCH  13  14
ATOM     14  C   UNL     1      45.113   5.553  11.838  0.00  0.00    +0.000 A 
ATOM     15  C   UNL     1      45.175   4.693  12.932  0.00  0.00    +0.000 A 
ATOM     16  C   UNL     1      46.265   4.753  13.809  0.00  0.00    +0.000 A 
ATOM     17  C   UNL     1      47.300   5.673  13.602  0.00  0.00    +0.000 A 
ATOM     18  C   UNL     1      47.238   6.531  12.510  0.00  0.00    +0.000 A 
ATOM     19  C   UNL     1      46.150   6.465  11.638  0.00  0.00    +0.000 A 
BRANCH  18  20
ATOM     20  O   UNL     1      48.190   7.452  12.152  0.00  0.00    +0.000 OA
BRANCH  20  21
ATOM     21  C   UNL     1      49.543   7.324  12.635  0.00  0.00    +0.000 C 
ATOM     22  C   UNL     1      49.965   8.148  13.863  0.00  0.00    +0.000 C 
ATOM     23  O   UNL     1      51.132   8.659  13.165  0.00  0.00    +0.000 OA
ATOM     24  C   UNL     1      50.563   8.218  11.906  0.00  0.00    +0.000 C 
ENDBRANCH  20  21
ENDBRANCH  18  20
ENDBRANCH  13  14
ENDBRANCH   1  13
TORSDOF 6
ENDMDL
MODEL 3
REMARK VINA RESULT:    -7.213      1.225      2.123
REMARK INTER + INTRA:         -10.533
REMARK INTER:                 -10.018
REMARK INTRA:                  -0.515
REMARK UNBOUND:                -0.789
REMARK  Name = 
REMARK  6 active torsions:
REMARK  status: ('A' for Active; 'I' for Inactive)
REMARK    1  A    between atoms: C_2  and  C_4
REMARK    2  A    between atoms: C_7  and  C_8
REMARK    3  A    between atoms: C_8  and  O_9
REMARK    4  A    between atoms: O_9  and  C_10
REMARK    5  A    between atoms: C_14  and  O_15
REMARK    6  A    between atoms: O_15  and  C_16
REMARK                            x       y       z     vdW  Elec       q    Type
REMARK                         _______ _______ _______ _____ _____    ______ ____
ROOT
ATOM      1  C   UNL     1      44.044   4.783  10.535  0.00  0.00    +0.000 C 
ENDROOT
BRANCH   1   5
ATOM      2  C   UNL     1      46.462   2.497   7.757  0.00  0.00    +0.000 A 
ATOM      3  C   UNL     1      45.704   1.833   8.726  0.00  0.00    +0.000 A 
ATOM      4  C   UNL     1      44.928   2.565   9.632  0.00  0.00    +0.000 A 
ATOM      5  C   UNL     1      44.911   3.968   9.596  0.00  0.00    +0.000 A 
ATOM      6  C   UNL     1      45.679   4.623   8.620  0.00  0.00    +0.000 A 
ATOM      7  C   UNL     1      46.456   3.895   7.714  0.00  0.00    +0.000 A 
BRANCH   2   9
ATOM      8  N   UNL     1      48.349   2.442   6.216  0.00  0.00    +0.000 N 
ATOM      9  C   UNL     1      47.298   1.765   6.770  0.00  0.00    +0.000 C 
ATOM     10  O   UNL     1      47.088   0.590   6.491  0.00  0.00    +0.000 OA
ATOM     11  H   UNL     1      48.973   1.897   5.633  0.00  0.00    +0.000 HD
ATOM     12  H   UNL     1      48.701   3.305   6.603  0.00  0.00    +0.000 HD
ENDBRANCH   2   9
ENDBRANCH   1   5
BRANCH   1  13
ATOM     13  O   UNL     1      44.171   6.176  10.252  0.00  0.00    +0.000 OA
BRANCH  13  14
ATOM     14  C   UNL     1      44.780   6.957  11.196  0.00  0.00    +0.000 A 
ATOM     15  C   UNL     1      44.578   8.318  11.407  0.00  0.00    +0.000 A 
ATOM     16  C   UNL     1      45.281   8.980  12.423  0.00  0.00    +0.000 A 
ATOM     17  C   UNL     1      46.191   8.289  13.232  0.00  0.00    +0.000 A 
ATOM     18  C   UNL     1      46.391   6.929  13.020  0.00  0.00    +0.000 A 
ATOM     19  C   UNL     1      45.686   6.274  12.009  0.00  0.00    +0.000 A 
BRANCH  18  20
ATOM     20  O   UNL     1      47.212   6.111  13.755  0.00  0.00    +0.000 OA
BRANCH  20  21
ATOM     21  C   UNL     1      46.689   4.914  14.363  0.00  0.00    +0.000 C 
ATOM     22  C   UNL     1      47.436   4.314  15.566  0.00  0.00    +0.000 C 
ATOM     23  O   UNL     1      47.466   3.003  14.942  0.00  0.00    +0.000 OA
ATOM     24  C   UNL     1      47.124   3.610  13.669  0.00  0.00    +0.000 C 
ENDBRANCH  20  21
ENDBRANCH  18  20
ENDBRANCH  13  14
ENDBRANCH   1  13
TORSDOF 6
ENDMDL
MODEL 4
REMARK VINA RESULT:    -6.863      2.653      4.702
REMARK INTER + INTRA:         -10.060
REMARK INTER:                  -9.243
REMARK INTRA:                  -0.816
REMARK UNBOUND:                -0.789
REMARK  Name = 
REMARK  6 active torsions:
REMARK  status: ('A' for Active; 'I' for Inactive)
REMARK    1  A    between atoms: C_2  and  C_4
REMARK    2  A    between atoms: C_7  and  C_8
REMARK    3  A    between atoms: C_8  and  O_9
REMARK    4  A    between atoms: O_9  and  C_10
REMARK    5  A    between atoms: C_14  and  O_15
REMARK    6  A    between atoms: O_15  and  C_16
REMARK                            x       y       z     vdW  Elec       q    Type
REMARK                         _______ _______ _______ _____ _____    ______ ____
ROOT
ATOM      1  C   UNL     1      43.902   4.550  10.731  0.00  0.00    +0.000 C 
ENDROOT
BRANCH   1   5
ATOM      2  C   UNL     1      46.308   2.622   7.683  0.00  0.00    +0.000 A 
ATOM      3  C   UNL     1      45.613   1.844   8.613  0.00  0.00    +0.000 A 
ATOM      4  C   UNL     1      44.841   2.459   9.605  0.00  0.00    +0.000 A 
ATOM      5  C   UNL     1      44.767   3.858   9.695  0.00  0.00    +0.000 A 
ATOM      6  C   UNL     1      45.472   4.629   8.757  0.00  0.00    +0.000 A 
ATOM      7  C   UNL     1      46.245   4.017   7.766  0.00  0.00    +0.000 A 
BRANCH   2   9
ATOM      8  N   UNL     1      47.474   2.817   5.552  0.00  0.00    +0.000 N 
ATOM      9  C   UNL     1      47.137   2.017   6.608  0.00  0.00    +0.000 C 
ATOM     10  O   UNL     1      47.543   0.863   6.679  0.00  0.00    +0.000 OA
ATOM     11  H   UNL     1      48.129   2.425   4.886  0.00  0.00    +0.000 HD
ATOM     12  H   UNL     1      47.378   3.821   5.582  0.00  0.00    +0.000 HD
ENDBRANCH   2   9
ENDBRANCH   1   5
BRANCH   1  13
ATOM     13  O   UNL     1      44.548   4.552  12.003  0.00  0.00    +0.000 OA
BRANCH  13  14
ATOM     14  C   UNL     1      45.417   5.575  12.266  0.00  0.00    +0.000 A 
ATOM     15  C   UNL     1      46.789   5.469  12.476  0.00  0.00    +0.000 A 
ATOM     16  C   UNL     1      47.548   6.618  12.734  0.00  0.00    +0.000 A 
ATOM     17  C   UNL     1      46.943   7.879  12.787  0.00  0.00    +0.000 A 
ATOM     18  C   UNL     1      45.572   7.984  12.577  0.00  0.00    +0.000 A 
ATOM     19  C   UNL     1      44.821   6.836  12.318  0.00  0.00    +0.000 A 
BRANCH  18  20
ATOM     20  O   UNL     1      44.847   9.148  12.554  0.00  0.00    +0.000 OA
BRANCH  20  21
ATOM     21  C   UNL     1      44.522   9.779  11.299  0.00  0.00    +0.000 C 
ATOM     22  C   UNL     1      45.281  11.055  10.901  0.00  0.00    +0.000 C 
ATOM     23  O   UNL     1      44.037  11.757  10.639  0.00  0.00    +0.000 OA
ATOM     24  C   UNL     1      43.313  10.730  11.362  0.00  0.00    +0.000 C 
ENDBRANCH  20  21
ENDBRANCH  18  20
ENDBRANCH  13  14
ENDBRANCH   1  13
TORSDOF 6
ENDMDL
MODEL 5
REMARK VINA RESULT:    -6.467      2.801      7.658
REMARK INTER + INTRA:          -9.525
REMARK INTER:                  -9.000
REMARK INTRA:                  -0.525
REMARK UNBOUND:                -0.789
REMARK  Name = 
REMARK  6 active torsions:
REMARK  status: ('A' for Active; 'I' for Inactive)
REMARK    1  A    between atoms: C_2  and  C_4
REMARK    2  A    between atoms: C_7  and  C_8
REMARK    3  A    between atoms: C_8  and  O_9
REMARK    4  A    between atoms: O_9  and  C_10
REMARK    5  A    between atoms: C_14  and  O_15
REMARK    6  A    between atoms: O_15  and  C_16
REMARK                            x       y       z     vdW  Elec       q    Type
REMARK                         _______ _______ _______ _____ _____    ______ ____
ROOT
ATOM      1  C   UNL     1      47.338   6.659  11.934  0.00  0.00    +0.000 C 
ENDROOT
BRANCH   1   5
ATOM      2  C   UNL     1      47.685   4.916  15.887  0.00  0.00    +0.000 A 
ATOM      3  C   UNL     1      48.341   6.116  15.599  0.00  0.00    +0.000 A 
ATOM      4  C   UNL     1      48.240   6.681  14.322  0.00  0.00    +0.000 A 
ATOM      5  C   UNL     1      47.502   6.047  13.311  0.00  0.00    +0.000 A 
ATOM      6  C   UNL     1      46.850   4.840  13.612  0.00  0.00    +0.000 A 
ATOM      7  C   UNL     1      46.949   4.273  14.886  0.00  0.00    +0.000 A 
BRANCH   2   9
ATOM      8  N   UNL     1      46.988   3.167  17.435  0.00  0.00    +0.000 N 
ATOM      9  C   UNL     1      47.757   4.279  17.228  0.00  0.00    +0.000 C 
ATOM     10  O   UNL     1      48.504   4.700  18.103  0.00  0.00    +0.000 OA
ATOM     11  H   UNL     1      47.132   2.682  18.312  0.00  0.00    +0.000 HD
ATOM     12  H   UNL     1      46.567   2.652  16.676  0.00  0.00    +0.000 HD
ENDBRANCH   2   9
ENDBRANCH   1   5
BRANCH   1  13
ATOM     13  O   UNL     1      45.958   6.866  11.637  0.00  0.00    +0.000 OA
BRANCH  13  14
ATOM     14  C   UNL     1      45.315   5.892  10.923  0.00  0.00    +0.000 A 
ATOM     15  C   UNL     1      44.118   5.266  11.260  0.00  0.00    +0.000 A 
ATOM     16  C   UNL     1      43.583   4.282  10.419  0.00  0.00    +0.000 A 
ATOM     17  C   UNL     1      44.239   3.913   9.239  0.00  0.00    +0.000 A 
ATOM     18  C   UNL     1      45.435   4.539   8.903  0.00  0.00    +0.000 A 
ATOM     19  C   UNL     1      45.963   5.522   9.744  0.00  0.00    +0.000 A 
BRANCH  18  20
ATOM     20  O   UNL     1      46.169   4.319   7.765  0.00  0.00    +0.000 OA
BRANCH  20  21
ATOM     21  C   UNL     1      46.048   3.072   7.053  0.00  0.00    +0.000 C 
ATOM     22  C   UNL     1      46.785   1.839   7.600  0.00  0.00    +0.000 C 
ATOM     23  O   UNL     1      47.389   1.578   6.305  0.00  0.00    +0.000 OA
ATOM     24  C   UNL     1      47.031   2.916   5.877  0.00  0.00    +0.000 C 
ENDBRANCH  20  21
ENDBRANCH  18  20
ENDBRANCH  13  14
ENDBRANCH   1  13
TORSDOF 6
ENDMDL
MODEL 6
REMARK VINA RESULT:    -6.232      3.196      7.517
REMARK INTER + INTRA:          -9.208
REMARK INTER:                  -8.734
REMARK INTRA:                  -0.474
REMARK UNBOUND:                -0.789
REMARK  Name = 
REMARK  6 active torsions:
REMARK  status: ('A' for Active; 'I' for Inactive)
REMARK    1  A    between atoms: C_2  and  C_4
REMARK    2  A    between atoms: C_7  and  C_8
REMARK    3  A    between atoms: C_8  and  O_9
REMARK    4  A    between atoms: O_9  and  C_10
REMARK    5  A    between atoms: C_14  and  O_15
REMARK    6  A    between atoms: O_15  and  C_16
REMARK                            x       y       z     vdW  Elec       q    Type
REMARK                         _______ _______ _______ _____ _____    ______ ____
ROOT
ATOM      1  C   UNL     1      46.007   5.978  12.763  0.00  0.00    +0.000 C 
ENDROOT
BRANCH   1   5
ATOM      2  C   UNL     1      49.883   7.905  12.994  0.00  0.00    +0.000 A 
ATOM      3  C   UNL     1      49.183   7.898  11.785  0.00  0.00    +0.000 A 
ATOM      4  C   UNL     1      47.934   7.271  11.700  0.00  0.00    +0.000 A 
ATOM      5  C   UNL     1      47.377   6.625  12.814  0.00  0.00    +0.000 A 
ATOM      6  C   UNL     1      48.091   6.636  14.023  0.00  0.00    +0.000 A 
ATOM      7  C   UNL     1      49.338   7.261  14.110  0.00  0.00    +0.000 A 
BRANCH   2   9
ATOM      8  N   UNL     1      52.266   7.983  12.491  0.00  0.00    +0.000 N 
ATOM      9  C   UNL     1      51.208   8.562  13.136  0.00  0.00    +0.000 C 
ATOM     10  O   UNL     1      51.348   9.603  13.766  0.00  0.00    +0.000 OA
ATOM     11  H   UNL     1      53.136   8.502  12.506  0.00  0.00    +0.000 HD
ATOM     12  H   UNL     1      52.145   7.288  11.770  0.00  0.00    +0.000 HD
ENDBRANCH   2   9
ENDBRANCH   1   5
BRANCH   1  13
ATOM     13  O   UNL     1      45.435   6.116  11.463  0.00  0.00    +0.000 OA
BRANCH  13  14
ATOM     14  C   UNL     1      45.044   4.971  10.824  0.00  0.00    +0.000 A 
ATOM     15  C   UNL     1      44.300   3.927  11.365  0.00  0.00    +0.000 A 
ATOM     16  C   UNL     1      43.977   2.815  10.576  0.00  0.00    +0.000 A 
ATOM     17  C   UNL     1      44.396   2.737   9.243  0.00  0.00    +0.000 A 
ATOM     18  C   UNL     1      45.139   3.781   8.703  0.00  0.00    +0.000 A 
ATOM     19  C   UNL     1      45.456   4.887   9.493  0.00  0.00    +0.000 A 
BRANCH  18  20
ATOM     20  O   UNL     1      45.583   3.869   7.407  0.00  0.00    +0.000 OA
BRANCH  20  21
ATOM     21  C   UNL     1      46.875   3.343   7.044  0.00  0.00    +0.000 C 
ATOM     22  C   UNL     1      47.082   2.826   5.611  0.00  0.00    +0.000 C 
ATOM     23  O   UNL     1      47.617   1.569   6.102  0.00  0.00    +0.000 OA
ATOM     24  C   UNL     1      47.085   1.864   7.418  0.00  0.00    +0.000 C 
ENDBRANCH  20  21
ENDBRANCH  18  20
ENDBRANCH  13  14
ENDBRANCH   1  13
TORSDOF 6
ENDMDL
MODEL 7
REMARK VINA RESULT:    -6.210      3.333      8.293
REMARK INTER + INTRA:          -9.178
REMARK INTER:                  -8.671
REMARK INTRA:                  -0.506
REMARK UNBOUND:                -0.789
REMARK  Name = 
REMARK  6 active torsions:
REMARK  status: ('A' for Active; 'I' for Inactive)
REMARK    1  A    between atoms: C_2  and  C_4
REMARK    2  A    between atoms: C_7  and  C_8
REMARK    3  A    between atoms: C_8  and  O_9
REMARK    4  A    between atoms: O_9  and  C_10
REMARK    5  A    between atoms: C_14  and  O_15
REMARK    6  A    between atoms: O_15  and  C_16
REMARK                            x       y       z     vdW  Elec       q    Type
REMARK                         _______ _______ _______ _____ _____    ______ ____
ROOT
ATOM      1  C   UNL     1      46.946   4.653  13.950  0.00  0.00    +0.000 C 
ENDROOT
BRANCH   1   5
ATOM      2  C   UNL     1      48.631   4.432  17.938  0.00  0.00    +0.000 A 
ATOM      3  C   UNL     1      47.923   3.343  17.423  0.00  0.00    +0.000 A 
ATOM      4  C   UNL     1      47.369   3.410  16.139  0.00  0.00    +0.000 A 
ATOM      5  C   UNL     1      47.497   4.570  15.360  0.00  0.00    +0.000 A 
ATOM      6  C   UNL     1      48.208   5.659  15.890  0.00  0.00    +0.000 A 
ATOM      7  C   UNL     1      48.761   5.595  17.172  0.00  0.00    +0.000 A 
BRANCH   2   9
ATOM      8  N   UNL     1      48.522   3.819  20.294  0.00  0.00    +0.000 N 
ATOM      9  C   UNL     1      49.243   4.408  19.292  0.00  0.00    +0.000 C 
ATOM     10  O   UNL     1      50.364   4.855  19.502  0.00  0.00    +0.000 OA
ATOM     11  H   UNL     1      48.997   3.712  21.182  0.00  0.00    +0.000 HD
ATOM     12  H   UNL     1      47.727   3.225  20.111  0.00  0.00    +0.000 HD
ENDBRANCH   2   9
ENDBRANCH   1   5
BRANCH   1  13
ATOM     13  O   UNL     1      45.755   5.438  13.922  0.00  0.00    +0.000 OA
BRANCH  13  14
ATOM     14  C   UNL     1      44.894   5.237  12.878  0.00  0.00    +0.000 A 
ATOM     15  C   UNL     1      43.506   5.156  12.947  0.00  0.00    +0.000 A 
ATOM     16  C   UNL     1      42.758   4.946  11.782  0.00  0.00    +0.000 A 
ATOM     17  C   UNL     1      43.390   4.813  10.539  0.00  0.00    +0.000 A 
ATOM     18  C   UNL     1      44.777   4.895  10.471  0.00  0.00    +0.000 A 
ATOM     19  C   UNL     1      45.517   5.106  11.636  0.00  0.00    +0.000 A 
BRANCH  18  20
ATOM     20  O   UNL     1      45.533   4.828   9.328  0.00  0.00    +0.000 OA
BRANCH  20  21
ATOM     21  C   UNL     1      45.271   3.810   8.342  0.00  0.00    +0.000 C 
ATOM     22  C   UNL     1      45.500   2.339   8.726  0.00  0.00    +0.000 C 
ATOM     23  O   UNL     1      46.316   2.118   7.545  0.00  0.00    +0.000 OA
ATOM     24  C   UNL     1      46.438   3.553   7.371  0.00  0.00    +0.000 C 
ENDBRANCH  20  21
ENDBRANCH  18  20
ENDBRANCH  13  14
ENDBRANCH   1  13
TORSDOF 6
ENDMDL
MODEL 8
REMARK VINA RESULT:    -6.056      2.837      4.405
REMARK INTER + INTRA:          -8.969
REMARK INTER:                  -8.174
REMARK INTRA:                  -0.795
REMARK UNBOUND:                -0.789
REMARK  Name = 
REMARK  6 active torsions:
REMARK  status: ('A' for Active; 'I' for Inactive)
REMARK    1  A    between atoms: C_2  and  C_4
REMARK    2  A    between atoms: C_7  and  C_8
REMARK    3  A    between atoms: C_8  and  O_9
REMARK    4  A    between atoms: O_9  and  C_10
REMARK    5  A    between atoms: C_14  and  O_15
REMARK    6  A    between atoms: O_15  and  C_16
REMARK                            x       y       z     vdW  Elec       q    Type
REMARK                         _______ _______ _______ _____ _____    ______ ____
ROOT
ATOM      1  C   UNL     1      46.282   8.073  12.881  0.00  0.00    +0.000 C 
ENDROOT
BRANCH   1   5
ATOM      2  C   UNL     1      44.703   4.298  11.450  0.00  0.00    +0.000 A 
ATOM      3  C   UNL     1      44.740   4.558  12.823  0.00  0.00    +0.000 A 
ATOM      4  C   UNL     1      45.257   5.772  13.293  0.00  0.00    +0.000 A 
ATOM      5  C   UNL     1      45.760   6.733  12.402  0.00  0.00    +0.000 A 
ATOM      6  C   UNL     1      45.720   6.458  11.026  0.00  0.00    +0.000 A 
ATOM      7  C   UNL     1      45.206   5.247  10.554  0.00  0.00    +0.000 A 
BRANCH   2   9
ATOM      8  N   UNL     1      44.953   2.334  10.029  0.00  0.00    +0.000 N 
ATOM      9  C   UNL     1      44.160   3.028  10.902  0.00  0.00    +0.000 C 
ATOM     10  O   UNL     1      43.069   2.591  11.246  0.00  0.00    +0.000 OA
ATOM     11  H   UNL     1      44.617   1.419   9.752  0.00  0.00    +0.000 HD
ATOM     12  H   UNL     1      45.938   2.525   9.924  0.00  0.00    +0.000 HD
ENDBRANCH   2   9
ENDBRANCH   1   5
BRANCH   1  13
ATOM     13  O   UNL     1      47.691   8.015  13.098  0.00  0.00    +0.000 OA
BRANCH  13  14
ATOM     14  C   UNL     1      48.124   7.925  14.392  0.00  0.00    +0.000 A 
ATOM     15  C   UNL     1      48.224   8.966  15.311  0.00  0.00    +0.000 A 
ATOM     16  C   UNL     1      48.688   8.712  16.608  0.00  0.00    +0.000 A 
ATOM     17  C   UNL     1      49.057   7.419  16.997  0.00  0.00    +0.000 A 
ATOM     18  C   UNL     1      48.956   6.379  16.079  0.00  0.00    +0.000 A 
ATOM     19  C   UNL     1      48.491   6.638  14.788  0.00  0.00    +0.000 A 
BRANCH  18  20
ATOM     20  O   UNL     1      49.237   5.059  16.322  0.00  0.00    +0.000 OA
BRANCH  20  21
ATOM     21  C   UNL     1      48.525   4.341  17.349  0.00  0.00    +0.000 C 
ATOM     22  C   UNL     1      48.385   2.816  17.217  0.00  0.00    +0.000 C 
ATOM     23  O   UNL     1      46.948   2.893  17.418  0.00  0.00    +0.000 OA
ATOM     24  C   UNL     1      46.996   4.319  17.162  0.00  0.00    +0.000 C 
ENDBRANCH  20  21
ENDBRANCH  18  20
ENDBRANCH  13  14
ENDBRANCH   1  13
TORSDOF 6
ENDMDL
MODEL 9
REMARK VINA RESULT:    -6.047      2.995      5.007
REMARK INTER + INTRA:          -8.958
REMARK INTER:                  -8.593
REMARK INTRA:                  -0.365
REMARK UNBOUND:                -0.789
REMARK  Name = 
REMARK  6 active torsions:
REMARK  status: ('A' for Active; 'I' for Inactive)
REMARK    1  A    between atoms: C_2  and  C_4
REMARK    2  A    between atoms: C_7  and  C_8
REMARK    3  A    between atoms: C_8  and  O_9
REMARK    4  A    between atoms: O_9  and  C_10
REMARK    5  A    between atoms: C_14  and  O_15
REMARK    6  A    between atoms: O_15  and  C_16
REMARK                            x       y       z     vdW  Elec       q    Type
REMARK                         _______ _______ _______ _____ _____    ______ ____
ROOT
ATOM      1  C   UNL     1      48.233   7.127  13.349  0.00  0.00    +0.000 C 
ENDROOT
BRANCH   1   5
ATOM      2  C   UNL     1      45.044   4.966  11.362  0.00  0.00    +0.000 A 
ATOM      3  C   UNL     1      45.444   4.585  12.646  0.00  0.00    +0.000 A 
ATOM      4  C   UNL     1      46.479   5.273  13.290  0.00  0.00    +0.000 A 
ATOM      5  C   UNL     1      47.141   6.336  12.656  0.00  0.00    +0.000 A 
ATOM      6  C   UNL     1      46.732   6.706  11.365  0.00  0.00    +0.000 A 
ATOM      7  C   UNL     1      45.699   6.021  10.719  0.00  0.00    +0.000 A 
BRANCH   2   9
ATOM      8  N   UNL     1      43.858   4.479   9.288  0.00  0.00    +0.000 N 
ATOM      9  C   UNL     1      43.947   4.271  10.637  0.00  0.00    +0.000 C 
ATOM     10  O   UNL     1      43.179   3.508  11.209  0.00  0.00    +0.000 OA
ATOM     11  H   UNL     1      43.179   3.914   8.794  0.00  0.00    +0.000 HD
ATOM     12  H   UNL     1      44.611   4.886   8.753  0.00  0.00    +0.000 HD
ENDBRANCH   2   9
ENDBRANCH   1   5
BRANCH   1  13
ATOM     13  O   UNL     1      48.034   7.127  14.762  0.00  0.00    +0.000 OA
BRANCH  13  14
ATOM     14  C   UNL     1      49.074   6.705  15.544  0.00  0.00    +0.000 A 
ATOM     15  C   UNL     1      50.385   7.174  15.508  0.00  0.00    +0.000 A 
ATOM     16  C   UNL     1      51.342   6.639  16.380  0.00  0.00    +0.000 A 
ATOM     17  C   UNL     1      51.000   5.633  17.291  0.00  0.00    +0.000 A 
ATOM     18  C   UNL     1      49.690   5.166  17.326  0.00  0.00    +0.000 A 
ATOM     19  C   UNL     1      48.739   5.704  16.456  0.00  0.00    +0.000 A 
BRANCH  18  20
ATOM     20  O   UNL     1      49.194   4.220  18.186  0.00  0.00    +0.000 OA
BRANCH  20  21
ATOM     21  C   UNL     1      49.258   2.821  17.845  0.00  0.00    +0.000 C 
ATOM     22  C   UNL     1      50.504   2.302  17.108  0.00  0.00    +0.000 C 
ATOM     23  O   UNL     1      49.685   1.673  16.087  0.00  0.00    +0.000 OA
ATOM     24  C   UNL     1      48.547   2.457  16.529  0.00  0.00    +0.000 C 
ENDBRANCH  20  21
ENDBRANCH  18  20
ENDBRANCH  13  14
ENDBRANCH   1  13
TORSDOF 6
ENDMDL
