MODEL 1
REMARK VINA RESULT:    -7.019      0.000      0.000
REMARK INTER + INTRA:          -9.816
REMARK INTER:                  -9.071
REMARK INTRA:                  -0.745
REMARK UNBOUND:                -0.745
REMARK  Name = 
REMARK  7 active torsions:
REMARK  status: ('A' for Active; 'I' for Inactive)
REMARK    1  A    between atoms: C_1  and  C_2
REMARK    2  A    between atoms: C_5  and  C_6
REMARK    3  A    between atoms: C_7  and  C_8
REMARK    4  A    between atoms: C_8  and  C_9
REMARK    5  A    between atoms: C_9  and  O_10
REMARK    6  A    between atoms: O_10  and  C_11
REMARK    7  A    between atoms: C_15  and  C_16
REMARK                            x       y       z     vdW  Elec       q    Type
REMARK                         _______ _______ _______ _____ _____    ______ ____
ROOT
ATOM      1  C   UNL     1      43.363   4.267  11.636  0.00  0.00    +0.000 C 
ENDROOT
BRANCH   1   2
ATOM      2  C   UNL     1      44.388   3.987  12.738  0.00  0.00    +0.000 C 
BRANCH   2   9
ATOM      3  C   UNL     1      45.279   8.908  12.189  0.00  0.00    +0.000 C 
ATOM      4  C   UNL     1      45.720   7.554  12.646  0.00  0.00    +0.000 A 
ATOM      5  C   UNL     1      46.955   7.360  13.237  0.00  0.00    +0.000 A 
ATOM      6  N   UNL     1      47.404   6.161  13.660  0.00  0.00    +0.000 NA
ATOM      7  C   UNL     1      46.593   5.082  13.513  0.00  0.00    +0.000 A 
ATOM      8  C   UNL     1      47.189   3.797  14.010  0.00  0.00    +0.000 C 
ATOM      9  C   UNL     1      45.316   5.169  12.942  0.00  0.00    +0.000 A 
ATOM     10  C   UNL     1      44.899   6.435  12.495  0.00  0.00    +0.000 A 
ENDBRANCH   2   9
ENDBRANCH   1   2
BRANCH   1  11
ATOM     11  O   UNL     1      43.299   3.195  10.679  0.00  0.00    +0.000 OA
BRANCH  11  12
ATOM     12  C   UNL     1      44.306   3.232   9.738  0.00  0.00    +0.000 A 
ATOM     13  C   UNL     1      44.792   4.412   9.166  0.00  0.00    +0.000 A 
ATOM     14  C   UNL     1      45.786   4.380   8.190  0.00  0.00    +0.000 A 
ATOM     15  C   UNL     1      46.322   3.162   7.784  0.00  0.00    +0.000 A 
ATOM     16  C   UNL     1      45.876   1.975   8.376  0.00  0.00    +0.000 A 
ATOM     17  C   UNL     1      44.875   2.011   9.361  0.00  0.00    +0.000 A 
BRANCH  16  18
ATOM     18  C   UNL     1      46.440   0.728   7.954  0.00  0.00    +0.000 C 
ATOM     19  N   UNL     1      46.922  -0.273   7.605  0.00  0.00    +0.000 NA
ENDBRANCH  16  18
ENDBRANCH  11  12
ENDBRANCH   1  11
TORSDOF 5
ENDMDL
MODEL 2
REMARK VINA RESULT:    -6.569      1.653      2.686
REMARK INTER + INTRA:          -9.234
REMARK INTER:                  -8.649
REMARK INTRA:                  -0.586
REMARK UNBOUND:                -0.745
REMARK  Name = 
REMARK  7 active torsions:
REMARK  status: ('A' for Active; 'I' for Inactive)
REMARK    1  A    between atoms: C_1  and  C_2
REMARK    2  A    between atoms: C_5  and  C_6
REMARK    3  A    between atoms: C_7  and  C_8
REMARK    4  A    between atoms: C_8  and  C_9
REMARK    5  A    between atoms: C_9  and  O_10
REMARK    6  A    between atoms: O_10  and  C_11
REMARK    7  A    between atoms: C_15  and  C_16
REMARK                            x       y       z     vdW  Elec       q    Type
REMARK                         _______ _______ _______ _____ _____    ______ ____
ROOT
ATOM      1  C   UNL     1      45.867   5.692   9.833  0.00  0.00    +0.000 C 
ENDROOT
BRANCH   1   2
ATOM      2  C   UNL     1      45.163   6.232  11.081  0.00  0.00    +0.000 C 
BRANCH   2   9
ATOM      3  C   UNL     1      48.705   6.719  14.620  0.00  0.00    +0.000 C 
ATOM      4  C   UNL     1      47.549   5.971  14.038  0.00  0.00    +0.000 A 
ATOM      5  C   UNL     1      47.069   4.815  14.626  0.00  0.00    +0.000 A 
ATOM      6  N   UNL     1      46.035   4.099  14.140  0.00  0.00    +0.000 NA
ATOM      7  C   UNL     1      45.416   4.543  13.016  0.00  0.00    +0.000 A 
ATOM      8  C   UNL     1      44.284   3.673  12.556  0.00  0.00    +0.000 C 
ATOM      9  C   UNL     1      45.811   5.711  12.349  0.00  0.00    +0.000 A 
ATOM     10  C   UNL     1      46.907   6.414  12.879  0.00  0.00    +0.000 A 
ENDBRANCH   2   9
ENDBRANCH   1   2
BRANCH   1  11
ATOM     11  O   UNL     1      44.946   5.053   8.932  0.00  0.00    +0.000 OA
BRANCH  11  12
ATOM     12  C   UNL     1      45.273   3.746   8.639  0.00  0.00    +0.000 A 
ATOM     13  C   UNL     1      44.639   2.640   9.213  0.00  0.00    +0.000 A 
ATOM     14  C   UNL     1      45.042   1.341   8.905  0.00  0.00    +0.000 A 
ATOM     15  C   UNL     1      46.077   1.132   7.999  0.00  0.00    +0.000 A 
ATOM     16  C   UNL     1      46.693   2.228   7.383  0.00  0.00    +0.000 A 
ATOM     17  C   UNL     1      46.283   3.534   7.695  0.00  0.00    +0.000 A 
BRANCH  16  18
ATOM     18  C   UNL     1      47.753   1.999   6.448  0.00  0.00    +0.000 C 
ATOM     19  N   UNL     1      48.596   1.811   5.667  0.00  0.00    +0.000 NA
ENDBRANCH  16  18
ENDBRANCH  11  12
ENDBRANCH   1  11
TORSDOF 5
ENDMDL
MODEL 3
REMARK VINA RESULT:    -6.537      1.580      2.461
REMARK INTER + INTRA:          -9.193
REMARK INTER:                  -8.653
REMARK INTRA:                  -0.540
REMARK UNBOUND:                -0.745
REMARK  Name = 
REMARK  7 active torsions:
REMARK  status: ('A' for Active; 'I' for Inactive)
REMARK    1  A    between atoms: C_1  and  C_2
REMARK    2  A    between atoms: C_5  and  C_6
REMARK    3  A    between atoms: C_7  and  C_8
REMARK    4  A    between atoms: C_8  and  C_9
REMARK    5  A    between atoms: C_9  and  O_10
REMARK    6  A    between atoms: O_10  and  C_11
REMARK    7  A    between atoms: C_15  and  C_16
REMARK                            x       y       z     vdW  Elec       q    Type
REMARK                         _______ _______ _______ _____ _____    ______ ____
ROOT
ATOM      1  C   UNL     1      45.512   5.268   9.424  0.00  0.00    +0.000 C 
ENDROOT
BRANCH   1   2
ATOM      2  C   UNL     1      44.848   5.780  10.706  0.00  0.00    +0.000 C 
BRANCH   2   9
ATOM      3  C   UNL     1      48.553   6.716  13.976  0.00  0.00    +0.000 C 
ATOM      4  C   UNL     1      47.442   5.841  13.493  0.00  0.00    +0.000 A 
ATOM      5  C   UNL     1      47.123   4.660  14.139  0.00  0.00    +0.000 A 
ATOM      6  N   UNL     1      46.136   3.832  13.742  0.00  0.00    +0.000 NA
ATOM      7  C   UNL     1      45.401   4.180  12.654  0.00  0.00    +0.000 A 
ATOM      8  C   UNL     1      44.334   3.188  12.294  0.00  0.00    +0.000 C 
ATOM      9  C   UNL     1      45.629   5.362  11.936  0.00  0.00    +0.000 A 
ATOM     10  C   UNL     1      46.683   6.185  12.373  0.00  0.00    +0.000 A 
ENDBRANCH   2   9
ENDBRANCH   1   2
BRANCH   1  11
ATOM     11  O   UNL     1      44.947   4.018   8.991  0.00  0.00    +0.000 OA
BRANCH  11  12
ATOM     12  C   UNL     1      45.748   3.325   8.108  0.00  0.00    +0.000 A 
ATOM     13  C   UNL     1      46.392   3.914   7.016  0.00  0.00    +0.000 A 
ATOM     14  C   UNL     1      47.158   3.151   6.136  0.00  0.00    +0.000 A 
ATOM     15  C   UNL     1      47.305   1.784   6.351  0.00  0.00    +0.000 A 
ATOM     16  C   UNL     1      46.702   1.186   7.463  0.00  0.00    +0.000 A 
ATOM     17  C   UNL     1      45.932   1.958   8.347  0.00  0.00    +0.000 A 
BRANCH  16  18
ATOM     18  C   UNL     1      46.866  -0.221   7.675  0.00  0.00    +0.000 C 
ATOM     19  N   UNL     1      47.027  -1.362   7.845  0.00  0.00    +0.000 NA
ENDBRANCH  16  18
ENDBRANCH  11  12
ENDBRANCH   1  11
TORSDOF 5
ENDMDL
MODEL 4
REMARK VINA RESULT:    -6.330      2.428      6.390
REMARK INTER + INTRA:          -8.925
REMARK INTER:                  -8.402
REMARK INTRA:                  -0.523
REMARK UNBOUND:                -0.745
REMARK  Name = 
REMARK  7 active torsions:
REMARK  status: ('A' for Active; 'I' for Inactive)
REMARK    1  A    between atoms: C_1  and  C_2
REMARK    2  A    between atoms: C_5  and  C_6
REMARK    3  A    between atoms: C_7  and  C_8
REMARK    4  A    between atoms: C_8  and  C_9
REMARK    5  A    between atoms: C_9  and  O_10
REMARK    6  A    between atoms: O_10  and  C_11
REMARK    7  A    between atoms: C_15  and  C_16
REMARK                            x       y       z     vdW  Elec       q    Type
REMARK                         _______ _______ _______ _____ _____    ______ ____
ROOT
ATOM      1  C   UNL     1      46.121   6.532  11.810  0.00  0.00    +0.000 C 
ENDROOT
BRANCH   1   2
ATOM      2  C   UNL     1      44.797   6.323  11.071  0.00  0.00    +0.000 C 
BRANCH   2   9
ATOM      3  C   UNL     1      46.232   3.545   7.131  0.00  0.00    +0.000 C 
ATOM      4  C   UNL     1      45.477   3.681   8.414  0.00  0.00    +0.000 A 
ATOM      5  C   UNL     1      44.755   2.626   8.941  0.00  0.00    +0.000 A 
ATOM      6  N   UNL     1      44.052   2.697  10.089  0.00  0.00    +0.000 NA
ATOM      7  C   UNL     1      44.063   3.866  10.779  0.00  0.00    +0.000 A 
ATOM      8  C   UNL     1      43.247   3.841  12.038  0.00  0.00    +0.000 C 
ATOM      9  C   UNL     1      44.775   4.993  10.344  0.00  0.00    +0.000 A 
ATOM     10  C   UNL     1      45.475   4.880   9.130  0.00  0.00    +0.000 A 
ENDBRANCH   2   9
ENDBRANCH   1   2
BRANCH   1  11
ATOM     11  O   UNL     1      46.622   5.304  12.369  0.00  0.00    +0.000 OA
BRANCH  11  12
ATOM     12  C   UNL     1      47.195   5.455  13.614  0.00  0.00    +0.000 A 
ATOM     13  C   UNL     1      48.063   6.499  13.948  0.00  0.00    +0.000 A 
ATOM     14  C   UNL     1      48.642   6.575  15.214  0.00  0.00    +0.000 A 
ATOM     15  C   UNL     1      48.343   5.612  16.172  0.00  0.00    +0.000 A 
ATOM     16  C   UNL     1      47.444   4.584  15.867  0.00  0.00    +0.000 A 
ATOM     17  C   UNL     1      46.862   4.512  14.592  0.00  0.00    +0.000 A 
BRANCH  16  18
ATOM     18  C   UNL     1      47.140   3.602  16.865  0.00  0.00    +0.000 C 
ATOM     19  N   UNL     1      46.880   2.789  17.657  0.00  0.00    +0.000 NA
ENDBRANCH  16  18
ENDBRANCH  11  12
ENDBRANCH   1  11
TORSDOF 5
ENDMDL
MODEL 5
REMARK VINA RESULT:    -6.055      1.748      6.754
REMARK INTER + INTRA:          -8.571
REMARK INTER:                  -8.163
REMARK INTRA:                  -0.407
REMARK UNBOUND:                -0.745
REMARK  Name = 
REMARK  7 active torsions:
REMARK  status: ('A' for Active; 'I' for Inactive)
REMARK    1  A    between atoms: C_1  and  C_2
REMARK    2  A    between atoms: C_5  and  C_6
REMARK    3  A    between atoms: C_7  and  C_8
REMARK    4  A    between atoms: C_8  and  C_9
REMARK    5  A    between atoms: C_9  and  O_10
REMARK    6  A    between atoms: O_10  and  C_11
REMARK    7  A    between atoms: C_15  and  C_16
REMARK                            x       y       z     vdW  Elec       q    Type
REMARK                         _______ _______ _______ _____ _____    ______ ____
ROOT
ATOM      1  C   UNL     1      45.834   5.415   9.638  0.00  0.00    +0.000 C 
ENDROOT
BRANCH   1   2
ATOM      2  C   UNL     1      44.980   4.660   8.617  0.00  0.00    +0.000 C 
BRANCH   2   9
ATOM      3  C   UNL     1      48.116   2.273   5.490  0.00  0.00    +0.000 C 
ATOM      4  C   UNL     1      47.163   2.244   6.642  0.00  0.00    +0.000 A 
ATOM      5  C   UNL     1      46.874   1.067   7.309  0.00  0.00    +0.000 A 
ATOM      6  N   UNL     1      46.019   0.983   8.347  0.00  0.00    +0.000 NA
ATOM      7  C   UNL     1      45.415   2.121   8.777  0.00  0.00    +0.000 A 
ATOM      8  C   UNL     1      44.479   1.918   9.933  0.00  0.00    +0.000 C 
ATOM      9  C   UNL     1      45.648   3.370   8.184  0.00  0.00    +0.000 A 
ATOM     10  C   UNL     1      46.530   3.405   7.090  0.00  0.00    +0.000 A 
ENDBRANCH   2   9
ENDBRANCH   1   2
BRANCH   1  11
ATOM     11  O   UNL     1      45.228   5.422  10.943  0.00  0.00    +0.000 OA
BRANCH  11  12
ATOM     12  C   UNL     1      45.672   6.444  11.755  0.00  0.00    +0.000 A 
ATOM     13  C   UNL     1      45.008   7.666  11.897  0.00  0.00    +0.000 A 
ATOM     14  C   UNL     1      45.528   8.677  12.704  0.00  0.00    +0.000 A 
ATOM     15  C   UNL     1      46.717   8.468  13.397  0.00  0.00    +0.000 A 
ATOM     16  C   UNL     1      47.372   7.235  13.299  0.00  0.00    +0.000 A 
ATOM     17  C   UNL     1      46.843   6.220  12.486  0.00  0.00    +0.000 A 
BRANCH  16  18
ATOM     18  C   UNL     1      48.591   7.032  14.022  0.00  0.00    +0.000 C 
ATOM     19  N   UNL     1      49.574   6.840  14.616  0.00  0.00    +0.000 NA
ENDBRANCH  16  18
ENDBRANCH  11  12
ENDBRANCH   1  11
TORSDOF 5
ENDMDL
MODEL 6
REMARK VINA RESULT:    -5.850      1.983      3.168
REMARK INTER + INTRA:          -8.305
REMARK INTER:                  -7.488
REMARK INTRA:                  -0.817
REMARK UNBOUND:                -0.745
REMARK  Name = 
REMARK  7 active torsions:
REMARK  status: ('A' for Active; 'I' for Inactive)
REMARK    1  A    between atoms: C_1  and  C_2
REMARK    2  A    between atoms: C_5  and  C_6
REMARK    3  A    between atoms: C_7  and  C_8
REMARK    4  A    between atoms: C_8  and  C_9
REMARK    5  A    between atoms: C_9  and  O_10
REMARK    6  A    between atoms: O_10  and  C_11
REMARK    7  A    between atoms: C_15  and  C_16
REMARK                            x       y       z     vdW  Elec       q    Type
REMARK                         _______ _______ _______ _____ _____    ______ ____
ROOT
ATOM      1  C   UNL     1      44.642   7.345  11.457  0.00  0.00    +0.000 C 
ENDROOT
BRANCH   1   2
ATOM      2  C   UNL     1      45.331   7.867  12.720  0.00  0.00    +0.000 C 
BRANCH   2   9
ATOM      3  C   UNL     1      49.952   9.487  11.567  0.00  0.00    +0.000 C 
ATOM      4  C   UNL     1      49.047   8.421  12.096  0.00  0.00    +0.000 A 
ATOM      5  C   UNL     1      49.543   7.209  12.537  0.00  0.00    +0.000 A 
ATOM      6  N   UNL     1      48.773   6.212  13.016  0.00  0.00    +0.000 NA
ATOM      7  C   UNL     1      47.431   6.412  13.086  0.00  0.00    +0.000 A 
ATOM      8  C   UNL     1      46.665   5.241  13.628  0.00  0.00    +0.000 C 
ATOM      9  C   UNL     1      46.825   7.609  12.680  0.00  0.00    +0.000 A 
ATOM     10  C   UNL     1      47.666   8.612  12.167  0.00  0.00    +0.000 A 
ENDBRANCH   2   9
ENDBRANCH   1   2
BRANCH   1  11
ATOM     11  O   UNL     1      43.642   6.357  11.761  0.00  0.00    +0.000 OA
BRANCH  11  12
ATOM     12  C   UNL     1      43.873   5.133  11.170  0.00  0.00    +0.000 A 
ATOM     13  C   UNL     1      43.410   3.920  11.687  0.00  0.00    +0.000 A 
ATOM     14  C   UNL     1      43.711   2.711  11.062  0.00  0.00    +0.000 A 
ATOM     15  C   UNL     1      44.467   2.702   9.895  0.00  0.00    +0.000 A 
ATOM     16  C   UNL     1      44.904   3.911   9.340  0.00  0.00    +0.000 A 
ATOM     17  C   UNL     1      44.597   5.127   9.972  0.00  0.00    +0.000 A 
BRANCH  16  18
ATOM     18  C   UNL     1      45.677   3.889   8.135  0.00  0.00    +0.000 C 
ATOM     19  N   UNL     1      46.307   3.898   7.156  0.00  0.00    +0.000 NA
ENDBRANCH  16  18
ENDBRANCH  11  12
ENDBRANCH   1  11
TORSDOF 5
ENDMDL
MODEL 7
REMARK VINA RESULT:    -5.826      2.423      6.288
REMARK INTER + INTRA:          -8.274
REMARK INTER:                  -7.767
REMARK INTRA:                  -0.508
REMARK UNBOUND:                -0.745
REMARK  Name = 
REMARK  7 active torsions:
REMARK  status: ('A' for Active; 'I' for Inactive)
REMARK    1  A    between atoms: C_1  and  C_2
REMARK    2  A    between atoms: C_5  and  C_6
REMARK    3  A    between atoms: C_7  and  C_8
REMARK    4  A    between atoms: C_8  and  C_9
REMARK    5  A    between atoms: C_9  and  O_10
REMARK    6  A    between atoms: O_10  and  C_11
REMARK    7  A    between atoms: C_15  and  C_16
REMARK                            x       y       z     vdW  Elec       q    Type
REMARK                         _______ _______ _______ _____ _____    ______ ____
ROOT
ATOM      1  C   UNL     1      45.757   5.591  12.121  0.00  0.00    +0.000 C 
ENDROOT
BRANCH   1   2
ATOM      2  C   UNL     1      44.711   5.591  11.002  0.00  0.00    +0.000 C 
BRANCH   2   9
ATOM      3  C   UNL     1      46.550   3.553   6.787  0.00  0.00    +0.000 C 
ATOM      4  C   UNL     1      45.756   3.427   8.047  0.00  0.00    +0.000 A 
ATOM      5  C   UNL     1      45.154   2.235   8.404  0.00  0.00    +0.000 A 
ATOM      6  N   UNL     1      44.423   2.069   9.524  0.00  0.00    +0.000 NA
ATOM      7  C   UNL     1      44.280   3.128  10.363  0.00  0.00    +0.000 A 
ATOM      8  C   UNL     1      43.445   2.840  11.576  0.00  0.00    +0.000 C 
ATOM      9  C   UNL     1      44.862   4.378  10.106  0.00  0.00    +0.000 A 
ATOM     10  C   UNL     1      45.597   4.510   8.915  0.00  0.00    +0.000 A 
ENDBRANCH   2   9
ENDBRANCH   1   2
BRANCH   1  11
ATOM     11  O   UNL     1      45.675   6.778  12.931  0.00  0.00    +0.000 OA
BRANCH  11  12
ATOM     12  C   UNL     1      46.560   7.766  12.557  0.00  0.00    +0.000 A 
ATOM     13  C   UNL     1      46.249   9.129  12.558  0.00  0.00    +0.000 A 
ATOM     14  C   UNL     1      47.176  10.078  12.132  0.00  0.00    +0.000 A 
ATOM     15  C   UNL     1      48.440   9.675  11.714  0.00  0.00    +0.000 A 
ATOM     16  C   UNL     1      48.783   8.318  11.747  0.00  0.00    +0.000 A 
ATOM     17  C   UNL     1      47.846   7.365  12.178  0.00  0.00    +0.000 A 
BRANCH  16  18
ATOM     18  C   UNL     1      50.089   7.916  11.319  0.00  0.00    +0.000 C 
ATOM     19  N   UNL     1      51.161   7.615  10.978  0.00  0.00    +0.000 NA
ENDBRANCH  16  18
ENDBRANCH  11  12
ENDBRANCH   1  11
TORSDOF 5
ENDMDL
MODEL 8
REMARK VINA RESULT:    -5.739      2.785      7.087
REMARK INTER + INTRA:          -8.162
REMARK INTER:                  -7.733
REMARK INTRA:                  -0.429
REMARK UNBOUND:                -0.745
REMARK  Name = 
REMARK  7 active torsions:
REMARK  status: ('A' for Active; 'I' for Inactive)
REMARK    1  A    between atoms: C_1  and  C_2
REMARK    2  A    between atoms: C_5  and  C_6
REMARK    3  A    between atoms: C_7  and  C_8
REMARK    4  A    between atoms: C_8  and  C_9
REMARK    5  A    between atoms: C_9  and  O_10
REMARK    6  A    between atoms: O_10  and  C_11
REMARK    7  A    between atoms: C_15  and  C_16
REMARK                            x       y       z     vdW  Elec       q    Type
REMARK                         _______ _______ _______ _____ _____    ______ ____
ROOT
ATOM      1  C   UNL     1      46.243   5.971  11.905  0.00  0.00    +0.000 C 
ENDROOT
BRANCH   1   2
ATOM      2  C   UNL     1      44.973   5.945  11.050  0.00  0.00    +0.000 C 
BRANCH   2   9
ATOM      3  C   UNL     1      46.139   3.347   6.903  0.00  0.00    +0.000 C 
ATOM      4  C   UNL     1      45.444   3.436   8.224  0.00  0.00    +0.000 A 
ATOM      5  C   UNL     1      44.708   2.378   8.723  0.00  0.00    +0.000 A 
ATOM      6  N   UNL     1      44.057   2.407   9.903  0.00  0.00    +0.000 NA
ATOM      7  C   UNL     1      44.139   3.534  10.656  0.00  0.00    +0.000 A 
ATOM      8  C   UNL     1      43.376   3.466  11.946  0.00  0.00    +0.000 C 
ATOM      9  C   UNL     1      44.872   4.659  10.253  0.00  0.00    +0.000 A 
ATOM     10  C   UNL     1      45.516   4.591   9.005  0.00  0.00    +0.000 A 
ENDBRANCH   2   9
ENDBRANCH   1   2
BRANCH   1  11
ATOM     11  O   UNL     1      46.202   7.015  12.894  0.00  0.00    +0.000 OA
BRANCH  11  12
ATOM     12  C   UNL     1      46.685   8.225  12.444  0.00  0.00    +0.000 A 
ATOM     13  C   UNL     1      48.025   8.453  12.117  0.00  0.00    +0.000 A 
ATOM     14  C   UNL     1      48.459   9.712  11.704  0.00  0.00    +0.000 A 
ATOM     15  C   UNL     1      47.550  10.759  11.595  0.00  0.00    +0.000 A 
ATOM     16  C   UNL     1      46.197  10.537  11.878  0.00  0.00    +0.000 A 
ATOM     17  C   UNL     1      45.763   9.267  12.292  0.00  0.00    +0.000 A 
BRANCH  16  18
ATOM     18  C   UNL     1      45.270  11.621  11.756  0.00  0.00    +0.000 C 
ATOM     19  N   UNL     1      44.515  12.505  11.684  0.00  0.00    +0.000 NA
ENDBRANCH  16  18
ENDBRANCH  11  12
ENDBRANCH   1  11
TORSDOF 5
ENDMDL
MODEL 9
REMARK VINA RESULT:    -5.663      2.517      6.672
REMARK INTER + INTRA:          -8.063
REMARK INTER:                  -7.619
REMARK INTRA:                  -0.445
REMARK UNBOUND:                -0.745
REMARK  Name = 
REMARK  7 active torsions:
REMARK  status: ('A' for Active; 'I' for Inactive)
REMARK    1  A    between atoms: C_1  and  C_2
REMARK    2  A    between atoms: C_5  and  C_6
REMARK    3  A    between atoms: C_7  and  C_8
REMARK    4  A    between atoms: C_8  and  C_9
REMARK    5  A    between atoms: C_9  and  O_10
REMARK    6  A    between atoms: O_10  and  C_11
REMARK    7  A    between atoms: C_15  and  C_16
REMARK                            x       y       z     vdW  Elec       q    Type
REMARK                         _______ _______ _______ _____ _____    ______ ____
ROOT
ATOM      1  C   UNL     1      45.983   6.063  11.997  0.00  0.00    +0.000 C 
ENDROOT
BRANCH   1   2
ATOM      2  C   UNL     1      44.775   5.986  11.059  0.00  0.00    +0.000 C 
BRANCH   2   9
ATOM      3  C   UNL     1      46.212   3.452   6.957  0.00  0.00    +0.000 C 
ATOM      4  C   UNL     1      45.477   3.502   8.258  0.00  0.00    +0.000 A 
ATOM      5  C   UNL     1      44.793   2.402   8.742  0.00  0.00    +0.000 A 
ATOM      6  N   UNL     1      44.110   2.395   9.904  0.00  0.00    +0.000 NA
ATOM      7  C   UNL     1      44.102   3.527  10.653  0.00  0.00    +0.000 A 
ATOM      8  C   UNL     1      43.309   3.416  11.923  0.00  0.00    +0.000 C 
ATOM      9  C   UNL     1      44.775   4.694  10.265  0.00  0.00    +0.000 A 
ATOM     10  C   UNL     1      45.456   4.662   9.035  0.00  0.00    +0.000 A 
ENDBRANCH   2   9
ENDBRANCH   1   2
BRANCH   1  11
ATOM     11  O   UNL     1      47.092   6.746  11.387  0.00  0.00    +0.000 OA
BRANCH  11  12
ATOM     12  C   UNL     1      48.087   7.093  12.276  0.00  0.00    +0.000 A 
ATOM     13  C   UNL     1      49.198   7.869  11.935  0.00  0.00    +0.000 A 
ATOM     14  C   UNL     1      50.190   8.154  12.871  0.00  0.00    +0.000 A 
ATOM     15  C   UNL     1      50.073   7.679  14.173  0.00  0.00    +0.000 A 
ATOM     16  C   UNL     1      48.946   6.936  14.543  0.00  0.00    +0.000 A 
ATOM     17  C   UNL     1      47.948   6.652  13.597  0.00  0.00    +0.000 A 
BRANCH  16  18
ATOM     18  C   UNL     1      48.834   6.457  15.888  0.00  0.00    +0.000 C 
ATOM     19  N   UNL     1      48.768   6.055  16.979  0.00  0.00    +0.000 NA
ENDBRANCH  16  18
ENDBRANCH  11  12
ENDBRANCH   1  11
TORSDOF 5
ENDMDL
