MODEL 1
REMARK VINA RESULT:    -8.074      0.000      0.000
REMARK INTER + INTRA:         -11.991
REMARK INTER:                 -10.907
REMARK INTRA:                  -1.084
REMARK UNBOUND:                -1.084
REMARK  Name = 
REMARK  6 active torsions:
REMARK  status: ('A' for Active; 'I' for Inactive)
REMARK    1  A    between atoms: C_2  and  C_19
REMARK    2  A    between atoms: N_3  and  C_4
REMARK    3  A    between atoms: C_4  and  C_5
REMARK    4  A    between atoms: C_8  and  C_9
REMARK    5  A    between atoms: C_9  and  N_10
REMARK    6  A    between atoms: N_10  and  C_11
REMARK                            x       y       z     vdW  Elec       q    Type
REMARK                         _______ _______ _______ _____ _____    ______ ____
ROOT
ATOM      1  C   UNL     1      46.807   8.398  13.131  0.00  0.00    +0.000 C 
ENDROOT
BRANCH   1   2
ATOM      2  C   UNL     1      46.058   7.310  12.431  0.00  0.00    +0.000 A 
ATOM      3  C   UNL     1      44.832   6.864  12.871  0.00  0.00    +0.000 A 
ATOM      4  N   UNL     1      44.142   5.867  12.282  0.00  0.00    +0.000 NA
ATOM      5  C   UNL     1      44.708   5.289  11.201  0.00  0.00    +0.000 A 
ATOM      6  N   UNL     1      45.921   5.626  10.710  0.00  0.00    +0.000 NA
ATOM      7  C   UNL     1      46.569   6.623  11.346  0.00  0.00    +0.000 A 
BRANCH   5   8
ATOM      8  C   UNL     1      43.901   4.233  10.458  0.00  0.00    +0.000 C 
BRANCH   8   9
ATOM      9  N   UNL     1      44.140   4.298   9.009  0.00  0.00    +0.000 N 
ATOM     10  H   UNL     1      44.290   5.258   8.705  0.00  0.00    +0.000 HD
BRANCH   9  11
ATOM     11  C   UNL     1      45.037   3.393   8.427  0.00  0.00    +0.000 A 
ATOM     12  C   UNL     1      45.990   3.752   7.479  0.00  0.00    +0.000 A 
ATOM     13  C   UNL     1      46.912   2.813   7.001  0.00  0.00    +0.000 A 
ATOM     14  C   UNL     1      46.868   1.531   7.511  0.00  0.00    +0.000 A 
ATOM     15  N   UNL     1      45.991   1.136   8.457  0.00  0.00    +0.000 NA
ATOM     16  C   UNL     1      45.119   2.079   8.898  0.00  0.00    +0.000 A 
ENDBRANCH   9  11
ENDBRANCH   8   9
ENDBRANCH   5   8
ENDBRANCH   1   2
BRANCH   1  19
ATOM     17  O   UNL     1      49.167   6.854  13.633  0.00  0.00    +0.000 OA
ATOM     18  C   UNL     1      48.379   7.107  14.533  0.00  0.00    +0.000 C 
ATOM     19  N   UNL     1      47.277   7.924  14.402  0.00  0.00    +0.000 N 
ATOM     20  H   UNL     1      46.591   7.890  15.142  0.00  0.00    +0.000 HD
BRANCH  18  21
ATOM     21  C   UNL     1      48.347   6.407  15.814  0.00  0.00    +0.000 A 
ATOM     22  C   UNL     1      48.767   6.984  16.998  0.00  0.00    +0.000 A 
ATOM     23  S   UNL     1      49.216   5.788  18.149  0.00  0.00    +0.000 S 
ATOM     24  C   UNL     1      48.710   4.523  17.121  0.00  0.00    +0.000 A 
ATOM     25  N   UNL     1      48.954   3.213  17.388  0.00  0.00    +0.000 NA
ATOM     26  C   UNL     1      48.453   2.393  16.521  0.00  0.00    +0.000 A 
ATOM     27  N   UNL     1      47.684   2.761  15.440  0.00  0.00    +0.000 N 
ATOM     28  C   UNL     1      47.409   4.071  15.129  0.00  0.00    +0.000 A 
ATOM     29  O   UNL     1      46.675   4.384  14.200  0.00  0.00    +0.000 OA
ATOM     30  C   UNL     1      48.064   5.016  16.008  0.00  0.00    +0.000 A 
ATOM     31  H   UNL     1      47.250   2.064  14.851  0.00  0.00    +0.000 HD
ENDBRANCH  18  21
ENDBRANCH   1  19
TORSDOF 6
ENDMDL
MODEL 2
REMARK VINA RESULT:    -7.618      1.466      1.771
REMARK INTER + INTRA:         -11.374
REMARK INTER:                 -10.359
REMARK INTRA:                  -1.015
REMARK UNBOUND:                -1.084
REMARK  Name = 
REMARK  6 active torsions:
REMARK  status: ('A' for Active; 'I' for Inactive)
REMARK    1  A    between atoms: C_2  and  C_19
REMARK    2  A    between atoms: N_3  and  C_4
REMARK    3  A    between atoms: C_4  and  C_5
REMARK    4  A    between atoms: C_8  and  C_9
REMARK    5  A    between atoms: C_9  and  N_10
REMARK    6  A    between atoms: N_10  and  C_11
REMARK                            x       y       z     vdW  Elec       q    Type
REMARK                         _______ _______ _______ _____ _____    ______ ____
ROOT
ATOM      1  C   UNL     1      48.474   6.720  13.291  0.00  0.00    +0.000 C 
ENDROOT
BRANCH   1   2
ATOM      2  C   UNL     1      47.264   6.159  12.618  0.00  0.00    +0.000 A 
ATOM      3  C   UNL     1      46.637   5.019  13.069  0.00  0.00    +0.000 A 
ATOM      4  N   UNL     1      45.562   4.469  12.470  0.00  0.00    +0.000 NA
ATOM      5  C   UNL     1      45.093   5.090  11.367  0.00  0.00    +0.000 A 
ATOM      6  N   UNL     1      45.656   6.191  10.821  0.00  0.00    +0.000 NA
ATOM      7  C   UNL     1      46.735   6.691  11.457  0.00  0.00    +0.000 A 
BRANCH   5   8
ATOM      8  C   UNL     1      43.819   4.547  10.735  0.00  0.00    +0.000 C 
BRANCH   8   9
ATOM      9  N   UNL     1      43.926   4.501   9.269  0.00  0.00    +0.000 N 
ATOM     10  H   UNL     1      44.012   5.438   8.878  0.00  0.00    +0.000 HD
BRANCH   9  11
ATOM     11  C   UNL     1      44.802   3.580   8.680  0.00  0.00    +0.000 A 
ATOM     12  C   UNL     1      45.794   3.932   7.770  0.00  0.00    +0.000 A 
ATOM     13  C   UNL     1      46.691   2.973   7.284  0.00  0.00    +0.000 A 
ATOM     14  C   UNL     1      46.581   1.677   7.748  0.00  0.00    +0.000 A 
ATOM     15  N   UNL     1      45.663   1.287   8.656  0.00  0.00    +0.000 NA
ATOM     16  C   UNL     1      44.819   2.249   9.107  0.00  0.00    +0.000 A 
ENDBRANCH   9  11
ENDBRANCH   8   9
ENDBRANCH   5   8
ENDBRANCH   1   2
BRANCH   1  19
ATOM     17  O   UNL     1      50.328   7.356  15.381  0.00  0.00    +0.000 OA
ATOM     18  C   UNL     1      49.131   7.253  15.613  0.00  0.00    +0.000 C 
ATOM     19  N   UNL     1      48.162   7.051  14.654  0.00  0.00    +0.000 N 
ATOM     20  H   UNL     1      47.247   6.773  14.978  0.00  0.00    +0.000 HD
BRANCH  18  21
ATOM     21  C   UNL     1      48.567   7.096  16.950  0.00  0.00    +0.000 A 
ATOM     22  C   UNL     1      48.306   8.164  17.788  0.00  0.00    +0.000 A 
ATOM     23  S   UNL     1      48.277   7.672  19.435  0.00  0.00    +0.000 S 
ATOM     24  C   UNL     1      48.462   6.030  19.009  0.00  0.00    +0.000 A 
ATOM     25  N   UNL     1      48.687   5.051  19.925  0.00  0.00    +0.000 NA
ATOM     26  C   UNL     1      48.752   3.860  19.423  0.00  0.00    +0.000 A 
ATOM     27  N   UNL     1      48.557   3.551  18.095  0.00  0.00    +0.000 N 
ATOM     28  C   UNL     1      48.325   4.505  17.132  0.00  0.00    +0.000 A 
ATOM     29  O   UNL     1      48.095   4.215  15.965  0.00  0.00    +0.000 OA
ATOM     30  C   UNL     1      48.376   5.858  17.644  0.00  0.00    +0.000 A 
ATOM     31  H   UNL     1      48.534   2.591  17.783  0.00  0.00    +0.000 HD
ENDBRANCH  18  21
ENDBRANCH   1  19
TORSDOF 6
ENDMDL
MODEL 3
REMARK VINA RESULT:    -7.600      1.781      2.179
REMARK INTER + INTRA:         -11.350
REMARK INTER:                 -10.533
REMARK INTRA:                  -0.817
REMARK UNBOUND:                -1.084
REMARK  Name = 
REMARK  6 active torsions:
REMARK  status: ('A' for Active; 'I' for Inactive)
REMARK    1  A    between atoms: C_2  and  C_19
REMARK    2  A    between atoms: N_3  and  C_4
REMARK    3  A    between atoms: C_4  and  C_5
REMARK    4  A    between atoms: C_8  and  C_9
REMARK    5  A    between atoms: C_9  and  N_10
REMARK    6  A    between atoms: N_10  and  C_11
REMARK                            x       y       z     vdW  Elec       q    Type
REMARK                         _______ _______ _______ _____ _____    ______ ____
ROOT
ATOM      1  C   UNL     1      47.720   6.774  13.989  0.00  0.00    +0.000 C 
ENDROOT
BRANCH   1   2
ATOM      2  C   UNL     1      46.742   5.829  13.370  0.00  0.00    +0.000 A 
ATOM      3  C   UNL     1      45.717   6.262  12.559  0.00  0.00    +0.000 A 
ATOM      4  N   UNL     1      44.801   5.442  12.008  0.00  0.00    +0.000 NA
ATOM      5  C   UNL     1      44.915   4.125  12.284  0.00  0.00    +0.000 A 
ATOM      6  N   UNL     1      45.860   3.601  13.096  0.00  0.00    +0.000 NA
ATOM      7  C   UNL     1      46.744   4.471  13.627  0.00  0.00    +0.000 A 
BRANCH   5   8
ATOM      8  C   UNL     1      43.955   3.169  11.590  0.00  0.00    +0.000 C 
BRANCH   8   9
ATOM      9  N   UNL     1      43.766   3.532  10.177  0.00  0.00    +0.000 N 
ATOM     10  H   UNL     1      43.391   4.475  10.088  0.00  0.00    +0.000 HD
BRANCH   9  11
ATOM     11  C   UNL     1      44.793   3.263   9.263  0.00  0.00    +0.000 A 
ATOM     12  C   UNL     1      45.294   1.988   9.019  0.00  0.00    +0.000 A 
ATOM     13  C   UNL     1      46.262   1.778   8.030  0.00  0.00    +0.000 A 
ATOM     14  C   UNL     1      46.690   2.862   7.289  0.00  0.00    +0.000 A 
ATOM     15  N   UNL     1      46.214   4.113   7.458  0.00  0.00    +0.000 NA
ATOM     16  C   UNL     1      45.271   4.271   8.421  0.00  0.00    +0.000 A 
ENDBRANCH   9  11
ENDBRANCH   8   9
ENDBRANCH   5   8
ENDBRANCH   1   2
BRANCH   1  19
ATOM     17  O   UNL     1      48.569   8.112  16.375  0.00  0.00    +0.000 OA
ATOM     18  C   UNL     1      48.767   6.915  16.222  0.00  0.00    +0.000 C 
ATOM     19  N   UNL     1      48.305   6.175  15.156  0.00  0.00    +0.000 N 
ATOM     20  H   UNL     1      48.703   5.256  15.028  0.00  0.00    +0.000 HD
BRANCH  18  21
ATOM     21  C   UNL     1      49.712   6.133  17.015  0.00  0.00    +0.000 A 
ATOM     22  C   UNL     1      50.913   6.643  17.475  0.00  0.00    +0.000 A 
ATOM     23  S   UNL     1      52.045   5.388  17.783  0.00  0.00    +0.000 S 
ATOM     24  C   UNL     1      50.888   4.179  17.447  0.00  0.00    +0.000 A 
ATOM     25  N   UNL     1      51.205   2.861  17.348  0.00  0.00    +0.000 NA
ATOM     26  C   UNL     1      50.190   2.087  17.137  0.00  0.00    +0.000 A 
ATOM     27  N   UNL     1      48.879   2.503  17.070  0.00  0.00    +0.000 N 
ATOM     28  C   UNL     1      48.509   3.824  17.165  0.00  0.00    +0.000 A 
ATOM     29  O   UNL     1      47.336   4.177  17.163  0.00  0.00    +0.000 OA
ATOM     30  C   UNL     1      49.635   4.727  17.272  0.00  0.00    +0.000 A 
ATOM     31  H   UNL     1      48.126   1.836  16.990  0.00  0.00    +0.000 HD
ENDBRANCH  18  21
ENDBRANCH   1  19
TORSDOF 6
ENDMDL
MODEL 4
REMARK VINA RESULT:    -7.600      1.933      2.704
REMARK INTER + INTRA:         -11.350
REMARK INTER:                 -10.458
REMARK INTRA:                  -0.892
REMARK UNBOUND:                -1.084
REMARK  Name = 
REMARK  6 active torsions:
REMARK  status: ('A' for Active; 'I' for Inactive)
REMARK    1  A    between atoms: C_2  and  C_19
REMARK    2  A    between atoms: N_3  and  C_4
REMARK    3  A    between atoms: C_4  and  C_5
REMARK    4  A    between atoms: C_8  and  C_9
REMARK    5  A    between atoms: C_9  and  N_10
REMARK    6  A    between atoms: N_10  and  C_11
REMARK                            x       y       z     vdW  Elec       q    Type
REMARK                         _______ _______ _______ _____ _____    ______ ____
ROOT
ATOM      1  C   UNL     1      47.606   7.472  13.264  0.00  0.00    +0.000 C 
ENDROOT
BRANCH   1   2
ATOM      2  C   UNL     1      46.653   6.603  12.511  0.00  0.00    +0.000 A 
ATOM      3  C   UNL     1      45.929   7.068  11.436  0.00  0.00    +0.000 A 
ATOM      4  N   UNL     1      45.041   6.321  10.751  0.00  0.00    +0.000 NA
ATOM      5  C   UNL     1      44.866   5.048  11.165  0.00  0.00    +0.000 A 
ATOM      6  N   UNL     1      45.497   4.505  12.229  0.00  0.00    +0.000 NA
ATOM      7  C   UNL     1      46.368   5.302  12.881  0.00  0.00    +0.000 A 
BRANCH   5   8
ATOM      8  C   UNL     1      43.945   4.156  10.344  0.00  0.00    +0.000 C 
BRANCH   8   9
ATOM      9  N   UNL     1      44.235   4.266   8.906  0.00  0.00    +0.000 N 
ATOM     10  H   UNL     1      44.424   5.231   8.643  0.00  0.00    +0.000 HD
BRANCH   9  11
ATOM     11  C   UNL     1      45.125   3.355   8.321  0.00  0.00    +0.000 A 
ATOM     12  C   UNL     1      46.028   3.694   7.319  0.00  0.00    +0.000 A 
ATOM     13  C   UNL     1      46.948   2.754   6.838  0.00  0.00    +0.000 A 
ATOM     14  C   UNL     1      46.951   1.492   7.398  0.00  0.00    +0.000 A 
ATOM     15  N   UNL     1      46.123   1.119   8.396  0.00  0.00    +0.000 NA
ATOM     16  C   UNL     1      45.253   2.063   8.838  0.00  0.00    +0.000 A 
ENDBRANCH   9  11
ENDBRANCH   8   9
ENDBRANCH   5   8
ENDBRANCH   1   2
BRANCH   1  19
ATOM     17  O   UNL     1      49.977   6.934  14.779  0.00  0.00    +0.000 OA
ATOM     18  C   UNL     1      48.870   6.718  15.250  0.00  0.00    +0.000 C 
ATOM     19  N   UNL     1      47.680   7.041  14.633  0.00  0.00    +0.000 N 
ATOM     20  H   UNL     1      46.840   6.630  15.012  0.00  0.00    +0.000 HD
BRANCH  18  21
ATOM     21  C   UNL     1      48.626   5.883  16.422  0.00  0.00    +0.000 A 
ATOM     22  C   UNL     1      48.160   4.583  16.337  0.00  0.00    +0.000 A 
ATOM     23  S   UNL     1      47.381   4.105  17.792  0.00  0.00    +0.000 S 
ATOM     24  C   UNL     1      47.800   5.566  18.568  0.00  0.00    +0.000 A 
ATOM     25  N   UNL     1      47.315   5.920  19.787  0.00  0.00    +0.000 NA
ATOM     26  C   UNL     1      47.781   7.040  20.238  0.00  0.00    +0.000 A 
ATOM     27  N   UNL     1      48.729   7.812  19.606  0.00  0.00    +0.000 N 
ATOM     28  C   UNL     1      49.251   7.496  18.374  0.00  0.00    +0.000 A 
ATOM     29  O   UNL     1      50.137   8.158  17.848  0.00  0.00    +0.000 OA
ATOM     30  C   UNL     1      48.653   6.316  17.786  0.00  0.00    +0.000 A 
ATOM     31  H   UNL     1      49.115   8.631  20.054  0.00  0.00    +0.000 HD
ENDBRANCH  18  21
ENDBRANCH   1  19
TORSDOF 6
ENDMDL
MODEL 5
REMARK VINA RESULT:    -7.242      3.022      7.551
REMARK INTER + INTRA:         -10.867
REMARK INTER:                  -9.913
REMARK INTRA:                  -0.954
REMARK UNBOUND:                -1.084
REMARK  Name = 
REMARK  6 active torsions:
REMARK  status: ('A' for Active; 'I' for Inactive)
REMARK    1  A    between atoms: C_2  and  C_19
REMARK    2  A    between atoms: N_3  and  C_4
REMARK    3  A    between atoms: C_4  and  C_5
REMARK    4  A    between atoms: C_8  and  C_9
REMARK    5  A    between atoms: C_9  and  N_10
REMARK    6  A    between atoms: N_10  and  C_11
REMARK                            x       y       z     vdW  Elec       q    Type
REMARK                         _______ _______ _______ _____ _____    ______ ____
ROOT
ATOM      1  C   UNL     1      46.963   8.229  12.918  0.00  0.00    +0.000 C 
ENDROOT
BRANCH   1   2
ATOM      2  C   UNL     1      47.812   7.680  14.018  0.00  0.00    +0.000 A 
ATOM      3  C   UNL     1      47.961   6.326  14.222  0.00  0.00    +0.000 A 
ATOM      4  N   UNL     1      48.695   5.796  15.220  0.00  0.00    +0.000 NA
ATOM      5  C   UNL     1      49.307   6.663  16.055  0.00  0.00    +0.000 A 
ATOM      6  N   UNL     1      49.196   8.007  15.965  0.00  0.00    +0.000 NA
ATOM      7  C   UNL     1      48.441   8.480  14.952  0.00  0.00    +0.000 A 
BRANCH   5   8
ATOM      8  C   UNL     1      50.224   6.088  17.125  0.00  0.00    +0.000 C 
BRANCH   8   9
ATOM      9  N   UNL     1      49.708   4.812  17.644  0.00  0.00    +0.000 N 
ATOM     10  H   UNL     1      48.754   4.647  17.329  0.00  0.00    +0.000 HD
BRANCH   9  11
ATOM     11  C   UNL     1      50.516   3.670  17.564  0.00  0.00    +0.000 A 
ATOM     12  C   UNL     1      51.824   3.615  18.035  0.00  0.00    +0.000 A 
ATOM     13  C   UNL     1      52.547   2.417  18.001  0.00  0.00    +0.000 A 
ATOM     14  C   UNL     1      51.922   1.287  17.511  0.00  0.00    +0.000 A 
ATOM     15  N   UNL     1      50.645   1.273  17.075  0.00  0.00    +0.000 NA
ATOM     16  C   UNL     1      49.978   2.454  17.132  0.00  0.00    +0.000 A 
ENDBRANCH   9  11
ENDBRANCH   8   9
ENDBRANCH   5   8
ENDBRANCH   1   2
BRANCH   1  19
ATOM     17  O   UNL     1      44.579   7.752  11.402  0.00  0.00    +0.000 OA
ATOM     18  C   UNL     1      45.548   7.013  11.298  0.00  0.00    +0.000 C 
ATOM     19  N   UNL     1      46.764   7.225  11.909  0.00  0.00    +0.000 N 
ATOM     20  H   UNL     1      47.412   6.451  11.923  0.00  0.00    +0.000 HD
BRANCH  18  21
ATOM     21  C   UNL     1      45.501   5.680  10.704  0.00  0.00    +0.000 A 
ATOM     22  C   UNL     1      45.813   5.434   9.380  0.00  0.00    +0.000 A 
ATOM     23  S   UNL     1      45.074   3.985   8.824  0.00  0.00    +0.000 S 
ATOM     24  C   UNL     1      44.472   3.624  10.380  0.00  0.00    +0.000 A 
ATOM     25  N   UNL     1      43.599   2.611  10.616  0.00  0.00    +0.000 NA
ATOM     26  C   UNL     1      43.291   2.457  11.864  0.00  0.00    +0.000 A 
ATOM     27  N   UNL     1      43.820   3.188  12.904  0.00  0.00    +0.000 N 
ATOM     28  C   UNL     1      44.707   4.221  12.716  0.00  0.00    +0.000 A 
ATOM     29  O   UNL     1      45.216   4.826  13.650  0.00  0.00    +0.000 OA
ATOM     30  C   UNL     1      44.970   4.501  11.320  0.00  0.00    +0.000 A 
ATOM     31  H   UNL     1      43.603   2.958  13.863  0.00  0.00    +0.000 HD
ENDBRANCH  18  21
ENDBRANCH   1  19
TORSDOF 6
ENDMDL
MODEL 6
REMARK VINA RESULT:    -7.108      3.102      7.938
REMARK INTER + INTRA:         -10.685
REMARK INTER:                  -9.815
REMARK INTRA:                  -0.870
REMARK UNBOUND:                -1.084
REMARK  Name = 
REMARK  6 active torsions:
REMARK  status: ('A' for Active; 'I' for Inactive)
REMARK    1  A    between atoms: C_2  and  C_19
REMARK    2  A    between atoms: N_3  and  C_4
REMARK    3  A    between atoms: C_4  and  C_5
REMARK    4  A    between atoms: C_8  and  C_9
REMARK    5  A    between atoms: C_9  and  N_10
REMARK    6  A    between atoms: N_10  and  C_11
REMARK                            x       y       z     vdW  Elec       q    Type
REMARK                         _______ _______ _______ _____ _____    ______ ____
ROOT
ATOM      1  C   UNL     1      47.410   6.633  12.771  0.00  0.00    +0.000 C 
ENDROOT
BRANCH   1   2
ATOM      2  C   UNL     1      47.730   5.941  14.056  0.00  0.00    +0.000 A 
ATOM      3  C   UNL     1      47.170   4.730  14.396  0.00  0.00    +0.000 A 
ATOM      4  N   UNL     1      47.414   4.091  15.557  0.00  0.00    +0.000 NA
ATOM      5  C   UNL     1      48.258   4.695  16.420  0.00  0.00    +0.000 A 
ATOM      6  N   UNL     1      48.831   5.899  16.201  0.00  0.00    +0.000 NA
ATOM      7  C   UNL     1      48.543   6.496  15.026  0.00  0.00    +0.000 A 
BRANCH   5   8
ATOM      8  C   UNL     1      48.629   3.944  17.692  0.00  0.00    +0.000 C 
BRANCH   8   9
ATOM      9  N   UNL     1      49.270   2.657  17.385  0.00  0.00    +0.000 N 
ATOM     10  H   UNL     1      48.912   2.266  16.515  0.00  0.00    +0.000 HD
BRANCH   9  11
ATOM     11  C   UNL     1      50.662   2.546  17.502  0.00  0.00    +0.000 A 
ATOM     12  C   UNL     1      51.492   3.601  17.868  0.00  0.00    +0.000 A 
ATOM     13  C   UNL     1      52.866   3.400  18.050  0.00  0.00    +0.000 A 
ATOM     14  C   UNL     1      53.371   2.126  17.879  0.00  0.00    +0.000 A 
ATOM     15  N   UNL     1      52.608   1.060  17.561  0.00  0.00    +0.000 NA
ATOM     16  C   UNL     1      51.281   1.297  17.402  0.00  0.00    +0.000 A 
ENDBRANCH   9  11
ENDBRANCH   8   9
ENDBRANCH   5   8
ENDBRANCH   1   2
BRANCH   1  19
ATOM     17  O   UNL     1      45.098   7.375  11.251  0.00  0.00    +0.000 OA
ATOM     18  C   UNL     1      45.454   6.207  11.322  0.00  0.00    +0.000 C 
ATOM     19  N   UNL     1      46.606   5.777  11.945  0.00  0.00    +0.000 N 
ATOM     20  H   UNL     1      46.688   4.787  12.124  0.00  0.00    +0.000 HD
BRANCH  18  21
ATOM     21  C   UNL     1      44.609   5.070  10.968  0.00  0.00    +0.000 A 
ATOM     22  C   UNL     1      43.547   4.649  11.747  0.00  0.00    +0.000 A 
ATOM     23  S   UNL     1      43.176   2.997  11.455  0.00  0.00    +0.000 S 
ATOM     24  C   UNL     1      44.327   2.898  10.198  0.00  0.00    +0.000 A 
ATOM     25  N   UNL     1      44.672   1.726   9.604  0.00  0.00    +0.000 NA
ATOM     26  C   UNL     1      45.524   1.852   8.638  0.00  0.00    +0.000 A 
ATOM     27  N   UNL     1      46.021   3.050   8.175  0.00  0.00    +0.000 N 
ATOM     28  C   UNL     1      45.700   4.261   8.741  0.00  0.00    +0.000 A 
ATOM     29  O   UNL     1      46.100   5.324   8.284  0.00  0.00    +0.000 OA
ATOM     30  C   UNL     1      44.850   4.140   9.906  0.00  0.00    +0.000 A 
ATOM     31  H   UNL     1      46.615   3.085   7.360  0.00  0.00    +0.000 HD
ENDBRANCH  18  21
ENDBRANCH   1  19
TORSDOF 6
ENDMDL
MODEL 7
REMARK VINA RESULT:    -6.740      3.179      8.316
REMARK INTER + INTRA:         -10.188
REMARK INTER:                  -9.180
REMARK INTRA:                  -1.008
REMARK UNBOUND:                -1.084
REMARK  Name = 
REMARK  6 active torsions:
REMARK  status: ('A' for Active; 'I' for Inactive)
REMARK    1  A    between atoms: C_2  and  C_19
REMARK    2  A    between atoms: N_3  and  C_4
REMARK    3  A    between atoms: C_4  and  C_5
REMARK    4  A    between atoms: C_8  and  C_9
REMARK    5  A    between atoms: C_9  and  N_10
REMARK    6  A    between atoms: N_10  and  C_11
REMARK                            x       y       z     vdW  Elec       q    Type
REMARK                         _______ _______ _______ _____ _____    ______ ____
ROOT
ATOM      1  C   UNL     1      47.065   8.372  12.735  0.00  0.00    +0.000 C 
ENDROOT
BRANCH   1   2
ATOM      2  C   UNL     1      47.758   7.808  13.932  0.00  0.00    +0.000 A 
ATOM      3  C   UNL     1      48.091   8.584  15.020  0.00  0.00    +0.000 A 
ATOM      4  N   UNL     1      48.741   8.115  16.104  0.00  0.00    +0.000 NA
ATOM      5  C   UNL     1      49.075   6.807  16.097  0.00  0.00    +0.000 A 
ATOM      6  N   UNL     1      48.829   5.968  15.067  0.00  0.00    +0.000 NA
ATOM      7  C   UNL     1      48.185   6.495  14.005  0.00  0.00    +0.000 A 
BRANCH   5   8
ATOM      8  C   UNL     1      49.717   6.233  17.352  0.00  0.00    +0.000 C 
BRANCH   8   9
ATOM      9  N   UNL     1      48.824   5.274  18.019  0.00  0.00    +0.000 N 
ATOM     10  H   UNL     1      49.106   4.314  17.827  0.00  0.00    +0.000 HD
BRANCH   9  11
ATOM     11  C   UNL     1      48.480   5.485  19.361  0.00  0.00    +0.000 A 
ATOM     12  C   UNL     1      47.706   6.554  19.800  0.00  0.00    +0.000 A 
ATOM     13  C   UNL     1      47.328   6.658  21.145  0.00  0.00    +0.000 A 
ATOM     14  C   UNL     1      47.723   5.663  22.017  0.00  0.00    +0.000 A 
ATOM     15  N   UNL     1      48.442   4.586  21.640  0.00  0.00    +0.000 NA
ATOM     16  C   UNL     1      48.781   4.520  20.327  0.00  0.00    +0.000 A 
ENDBRANCH   9  11
ENDBRANCH   8   9
ENDBRANCH   5   8
ENDBRANCH   1   2
BRANCH   1  19
ATOM     17  O   UNL     1      44.633   7.831  11.321  0.00  0.00    +0.000 OA
ATOM     18  C   UNL     1      45.602   7.094  11.209  0.00  0.00    +0.000 C 
ATOM     19  N   UNL     1      46.838   7.333  11.770  0.00  0.00    +0.000 N 
ATOM     20  H   UNL     1      47.490   6.563  11.788  0.00  0.00    +0.000 HD
BRANCH  18  21
ATOM     21  C   UNL     1      45.542   5.741  10.664  0.00  0.00    +0.000 A 
ATOM     22  C   UNL     1      45.845   5.445   9.347  0.00  0.00    +0.000 A 
ATOM     23  S   UNL     1      45.093   3.982   8.848  0.00  0.00    +0.000 S 
ATOM     24  C   UNL     1      44.498   3.682  10.419  0.00  0.00    +0.000 A 
ATOM     25  N   UNL     1      43.619   2.684  10.697  0.00  0.00    +0.000 NA
ATOM     26  C   UNL     1      43.317   2.577  11.951  0.00  0.00    +0.000 A 
ATOM     27  N   UNL     1      43.857   3.341  12.961  0.00  0.00    +0.000 N 
ATOM     28  C   UNL     1      44.750   4.360  12.731  0.00  0.00    +0.000 A 
ATOM     29  O   UNL     1      45.269   4.995  13.640  0.00  0.00    +0.000 OA
ATOM     30  C   UNL     1      45.007   4.588  11.325  0.00  0.00    +0.000 A 
ATOM     31  H   UNL     1      43.645   3.147  13.929  0.00  0.00    +0.000 HD
ENDBRANCH  18  21
ENDBRANCH   1  19
TORSDOF 6
ENDMDL
MODEL 8
REMARK VINA RESULT:    -5.991      5.212      6.571
REMARK INTER + INTRA:          -9.177
REMARK INTER:                  -8.326
REMARK INTRA:                  -0.851
REMARK UNBOUND:                -1.084
REMARK  Name = 
REMARK  6 active torsions:
REMARK  status: ('A' for Active; 'I' for Inactive)
REMARK    1  A    between atoms: C_2  and  C_19
REMARK    2  A    between atoms: N_3  and  C_4
REMARK    3  A    between atoms: C_4  and  C_5
REMARK    4  A    between atoms: C_8  and  C_9
REMARK    5  A    between atoms: C_9  and  N_10
REMARK    6  A    between atoms: N_10  and  C_11
REMARK                            x       y       z     vdW  Elec       q    Type
REMARK                         _______ _______ _______ _____ _____    ______ ____
ROOT
ATOM      1  C   UNL     1      50.317   8.658  12.105  0.00  0.00    +0.000 C 
ENDROOT
BRANCH   1   2
ATOM      2  C   UNL     1      49.111   7.798  12.296  0.00  0.00    +0.000 A 
ATOM      3  C   UNL     1      47.861   8.183  11.864  0.00  0.00    +0.000 A 
ATOM      4  N   UNL     1      46.747   7.446  12.044  0.00  0.00    +0.000 NA
ATOM      5  C   UNL     1      46.891   6.269  12.690  0.00  0.00    +0.000 A 
ATOM      6  N   UNL     1      48.063   5.816  13.185  0.00  0.00    +0.000 NA
ATOM      7  C   UNL     1      49.142   6.600  12.984  0.00  0.00    +0.000 A 
BRANCH   5   8
ATOM      8  C   UNL     1      45.665   5.374  12.813  0.00  0.00    +0.000 C 
BRANCH   8   9
ATOM      9  N   UNL     1      44.741   5.574  11.687  0.00  0.00    +0.000 N 
ATOM     10  H   UNL     1      44.703   6.554  11.413  0.00  0.00    +0.000 HD
BRANCH   9  11
ATOM     11  C   UNL     1      44.804   4.702  10.593  0.00  0.00    +0.000 A 
ATOM     12  C   UNL     1      45.473   4.996   9.409  0.00  0.00    +0.000 A 
ATOM     13  C   UNL     1      45.570   4.044   8.386  0.00  0.00    +0.000 A 
ATOM     14  C   UNL     1      45.006   2.801   8.592  0.00  0.00    +0.000 A 
ATOM     15  N   UNL     1      44.378   2.448   9.732  0.00  0.00    +0.000 NA
ATOM     16  C   UNL     1      44.313   3.397  10.701  0.00  0.00    +0.000 A 
ENDBRANCH   9  11
ENDBRANCH   8   9
ENDBRANCH   5   8
ENDBRANCH   1   2
BRANCH   1  19
ATOM     17  O   UNL     1      53.120   8.088  11.942  0.00  0.00    +0.000 OA
ATOM     18  C   UNL     1      52.415   8.062  10.943  0.00  0.00    +0.000 C 
ATOM     19  N   UNL     1      51.047   8.222  10.946  0.00  0.00    +0.000 N 
ATOM     20  H   UNL     1      50.602   8.392  10.056  0.00  0.00    +0.000 HD
BRANCH  18  21
ATOM     21  C   UNL     1      52.929   8.089   9.577  0.00  0.00    +0.000 A 
ATOM     22  C   UNL     1      52.895   9.220   8.782  0.00  0.00    +0.000 A 
ATOM     23  S   UNL     1      52.949   8.810   7.113  0.00  0.00    +0.000 S 
ATOM     24  C   UNL     1      53.166   7.154   7.466  0.00  0.00    +0.000 A 
ATOM     25  N   UNL     1      53.122   6.185   6.514  0.00  0.00    +0.000 NA
ATOM     26  C   UNL     1      53.357   4.993   6.959  0.00  0.00    +0.000 A 
ATOM     27  N   UNL     1      53.686   4.688   8.261  0.00  0.00    +0.000 N 
ATOM     28  C   UNL     1      53.745   5.632   9.258  0.00  0.00    +0.000 A 
ATOM     29  O   UNL     1      54.096   5.359  10.399  0.00  0.00    +0.000 OA
ATOM     30  C   UNL     1      53.360   6.955   8.816  0.00  0.00    +0.000 A 
ATOM     31  H   UNL     1      53.944   3.747   8.524  0.00  0.00    +0.000 HD
ENDBRANCH  18  21
ENDBRANCH   1  19
TORSDOF 6
ENDMDL
MODEL 9
REMARK VINA RESULT:    -5.961      2.489      3.535
REMARK INTER + INTRA:          -9.136
REMARK INTER:                  -8.274
REMARK INTRA:                  -0.862
REMARK UNBOUND:                -1.084
REMARK  Name = 
REMARK  6 active torsions:
REMARK  status: ('A' for Active; 'I' for Inactive)
REMARK    1  A    between atoms: C_2  and  C_19
REMARK    2  A    between atoms: N_3  and  C_4
REMARK    3  A    between atoms: C_4  and  C_5
REMARK    4  A    between atoms: C_8  and  C_9
REMARK    5  A    between atoms: C_9  and  N_10
REMARK    6  A    between atoms: N_10  and  C_11
REMARK                            x       y       z     vdW  Elec       q    Type
REMARK                         _______ _______ _______ _____ _____    ______ ____
ROOT
ATOM      1  C   UNL     1      49.091   7.968  14.851  0.00  0.00    +0.000 C 
ENDROOT
BRANCH   1   2
ATOM      2  C   UNL     1      47.920   7.502  14.049  0.00  0.00    +0.000 A 
ATOM      3  C   UNL     1      46.967   8.372  13.569  0.00  0.00    +0.000 A 
ATOM      4  N   UNL     1      45.884   7.985  12.867  0.00  0.00    +0.000 NA
ATOM      5  C   UNL     1      45.748   6.661  12.636  0.00  0.00    +0.000 A 
ATOM      6  N   UNL     1      46.604   5.721  13.093  0.00  0.00    +0.000 NA
ATOM      7  C   UNL     1      47.664   6.167  13.797  0.00  0.00    +0.000 A 
BRANCH   5   8
ATOM      8  C   UNL     1      44.589   6.211  11.758  0.00  0.00    +0.000 C 
BRANCH   8   9
ATOM      9  N   UNL     1      45.026   5.975  10.374  0.00  0.00    +0.000 N 
ATOM     10  H   UNL     1      45.943   6.385  10.204  0.00  0.00    +0.000 HD
BRANCH   9  11
ATOM     11  C   UNL     1      44.889   4.693   9.827  0.00  0.00    +0.000 A 
ATOM     12  C   UNL     1      45.549   4.269   8.678  0.00  0.00    +0.000 A 
ATOM     13  C   UNL     1      45.434   2.946   8.233  0.00  0.00    +0.000 A 
ATOM     14  C   UNL     1      44.670   2.068   8.977  0.00  0.00    +0.000 A 
ATOM     15  N   UNL     1      44.039   2.413  10.118  0.00  0.00    +0.000 NA
ATOM     16  C   UNL     1      44.182   3.703  10.517  0.00  0.00    +0.000 A 
ENDBRANCH   9  11
ENDBRANCH   8   9
ENDBRANCH   5   8
ENDBRANCH   1   2
BRANCH   1  19
ATOM     17  O   UNL     1      51.316   6.472  15.859  0.00  0.00    +0.000 OA
ATOM     18  C   UNL     1      50.242   6.471  16.444  0.00  0.00    +0.000 C 
ATOM     19  N   UNL     1      49.156   7.239  16.087  0.00  0.00    +0.000 N 
ATOM     20  H   UNL     1      48.268   7.002  16.506  0.00  0.00    +0.000 HD
BRANCH  18  21
ATOM     21  C   UNL     1      49.865   5.495  17.462  0.00  0.00    +0.000 A 
ATOM     22  C   UNL     1      49.348   4.250  17.157  0.00  0.00    +0.000 A 
ATOM     23  S   UNL     1      48.431   3.618  18.467  0.00  0.00    +0.000 S 
ATOM     24  C   UNL     1      48.853   4.930  19.473  0.00  0.00    +0.000 A 
ATOM     25  N   UNL     1      48.287   5.137  20.691  0.00  0.00    +0.000 NA
ATOM     26  C   UNL     1      48.766   6.154  21.332  0.00  0.00    +0.000 A 
ATOM     27  N   UNL     1      49.798   6.951  20.890  0.00  0.00    +0.000 N 
ATOM     28  C   UNL     1      50.403   6.781  19.668  0.00  0.00    +0.000 A 
ATOM     29  O   UNL     1      51.359   7.457  19.309  0.00  0.00    +0.000 OA
ATOM     30  C   UNL     1      49.801   5.731  18.873  0.00  0.00    +0.000 A 
ATOM     31  H   UNL     1      50.183   7.675  21.479  0.00  0.00    +0.000 HD
ENDBRANCH  18  21
ENDBRANCH   1  19
TORSDOF 6
ENDMDL
