MODEL 1
REMARK VINA RESULT:    -8.419      0.000      0.000
REMARK INTER + INTRA:         -11.745
REMARK INTER:                 -10.880
REMARK INTRA:                  -0.864
REMARK UNBOUND:                -0.864
REMARK  Name = 
REMARK  5 active torsions:
REMARK  status: ('A' for Active; 'I' for Inactive)
REMARK    1  A    between atoms: C_2  and  C_19
REMARK    2  A    between atoms: N_3  and  C_4
REMARK    3  A    between atoms: C_4  and  C_5
REMARK    4  A    between atoms: C_8  and  C_9
REMARK    5  A    between atoms: C_9  and  N_10
REMARK                            x       y       z     vdW  Elec       q    Type
REMARK                         _______ _______ _______ _____ _____    ______ ____
ROOT
ATOM      1  C   UNL     1      47.881   7.282  13.953  0.00  0.00    +0.000 C 
ENDROOT
BRANCH   1   2
ATOM      2  C   UNL     1      46.926   6.486  13.101  0.00  0.00    +0.000 A 
ATOM      3  C   UNL     1      46.409   7.042  11.925  0.00  0.00    +0.000 A 
ATOM      4  C   UNL     1      45.501   6.326  11.141  0.00  0.00    +0.000 A 
ATOM      5  C   UNL     1      45.066   5.053  11.531  0.00  0.00    +0.000 A 
ATOM      6  C   UNL     1      45.573   4.497  12.713  0.00  0.00    +0.000 A 
ATOM      7  C   UNL     1      46.490   5.211  13.494  0.00  0.00    +0.000 A 
BRANCH   5   8
ATOM      8  C   UNL     1      44.055   4.309  10.688  0.00  0.00    +0.000 C 
BRANCH   8   9
ATOM      9  N   UNL     1      44.239   4.623   9.286  0.00  0.00    +0.000 N 
ATOM     10  C   UNL     1      45.103   3.746   8.645  0.00  0.00    +0.000 A 
ATOM     11  N   UNL     1      45.146   2.453   9.014  0.00  0.00    +0.000 NA
ATOM     12  C   UNL     1      46.008   1.653   8.360  0.00  0.00    +0.000 A 
ATOM     13  C   UNL     1      46.826   2.090   7.359  0.00  0.00    +0.000 A 
ATOM     14  C   UNL     1      46.718   3.421   7.047  0.00  0.00    +0.000 A 
ATOM     15  N   UNL     1      45.871   4.266   7.681  0.00  0.00    +0.000 NA
ATOM     16  H   UNL     1      44.565   5.562   9.085  0.00  0.00    +0.000 HD
ENDBRANCH   8   9
ENDBRANCH   5   8
ENDBRANCH   1   2
BRANCH   1  19
ATOM     17  O   UNL     1      48.525   8.199  16.580  0.00  0.00    +0.000 OA
ATOM     18  C   UNL     1      48.709   7.032  16.264  0.00  0.00    +0.000 C 
ATOM     19  N   UNL     1      48.333   6.479  15.061  0.00  0.00    +0.000 N 
ATOM     20  H   UNL     1      48.700   5.573  14.817  0.00  0.00    +0.000 HD
BRANCH  18  21
ATOM     21  C   UNL     1      49.551   6.116  17.022  0.00  0.00    +0.000 A 
ATOM     22  C   UNL     1      50.745   6.504  17.603  0.00  0.00    +0.000 A 
ATOM     23  S   UNL     1      51.763   5.157  17.916  0.00  0.00    +0.000 S 
ATOM     24  C   UNL     1      50.564   4.060  17.399  0.00  0.00    +0.000 A 
ATOM     25  N   UNL     1      50.803   2.729  17.247  0.00  0.00    +0.000 NA
ATOM     26  C   UNL     1      49.766   2.044  16.889  0.00  0.00    +0.000 A 
ATOM     27  N   UNL     1      48.503   2.552  16.724  0.00  0.00    +0.000 N 
ATOM     28  C   UNL     1      48.205   3.884  16.901  0.00  0.00    +0.000 A 
ATOM     29  O   UNL     1      47.060   4.310  16.855  0.00  0.00    +0.000 OA
ATOM     30  C   UNL     1      49.372   4.703  17.153  0.00  0.00    +0.000 A 
ATOM     31  H   UNL     1      47.715   1.948  16.538  0.00  0.00    +0.000 HD
ENDBRANCH  18  21
ENDBRANCH   1  19
TORSDOF 5
ENDMDL
MODEL 2
REMARK VINA RESULT:    -7.948      1.773      1.980
REMARK INTER + INTRA:         -11.136
REMARK INTER:                 -10.177
REMARK INTRA:                  -0.959
REMARK UNBOUND:                -0.864
REMARK  Name = 
REMARK  5 active torsions:
REMARK  status: ('A' for Active; 'I' for Inactive)
REMARK    1  A    between atoms: C_2  and  C_19
REMARK    2  A    between atoms: N_3  and  C_4
REMARK    3  A    between atoms: C_4  and  C_5
REMARK    4  A    between atoms: C_8  and  C_9
REMARK    5  A    between atoms: C_9  and  N_10
REMARK                            x       y       z     vdW  Elec       q    Type
REMARK                         _______ _______ _______ _____ _____    ______ ____
ROOT
ATOM      1  C   UNL     1      48.622   7.057  13.739  0.00  0.00    +0.000 C 
ENDROOT
BRANCH   1   2
ATOM      2  C   UNL     1      47.525   6.355  12.981  0.00  0.00    +0.000 A 
ATOM      3  C   UNL     1      47.071   6.877  11.764  0.00  0.00    +0.000 A 
ATOM      4  C   UNL     1      46.035   6.252  11.066  0.00  0.00    +0.000 A 
ATOM      5  C   UNL     1      45.410   5.110  11.584  0.00  0.00    +0.000 A 
ATOM      6  C   UNL     1      45.854   4.590  12.806  0.00  0.00    +0.000 A 
ATOM      7  C   UNL     1      46.899   5.212  13.501  0.00  0.00    +0.000 A 
BRANCH   5   8
ATOM      8  C   UNL     1      44.266   4.469  10.830  0.00  0.00    +0.000 C 
BRANCH   8   9
ATOM      9  N   UNL     1      44.372   4.754   9.414  0.00  0.00    +0.000 N 
ATOM     10  C   UNL     1      45.159   3.832   8.737  0.00  0.00    +0.000 A 
ATOM     11  N   UNL     1      45.175   2.545   9.125  0.00  0.00    +0.000 NA
ATOM     12  C   UNL     1      45.962   1.700   8.433  0.00  0.00    +0.000 A 
ATOM     13  C   UNL     1      46.731   2.088   7.375  0.00  0.00    +0.000 A 
ATOM     14  C   UNL     1      46.655   3.417   7.046  0.00  0.00    +0.000 A 
ATOM     15  N   UNL     1      45.884   4.305   7.716  0.00  0.00    +0.000 NA
ATOM     16  H   UNL     1      44.721   5.675   9.176  0.00  0.00    +0.000 HD
ENDBRANCH   8   9
ENDBRANCH   5   8
ENDBRANCH   1   2
BRANCH   1  19
ATOM     17  O   UNL     1      50.268   7.846  15.935  0.00  0.00    +0.000 OA
ATOM     18  C   UNL     1      49.079   7.608  16.100  0.00  0.00    +0.000 C 
ATOM     19  N   UNL     1      48.192   7.325  15.087  0.00  0.00    +0.000 N 
ATOM     20  H   UNL     1      47.289   6.952  15.335  0.00  0.00    +0.000 HD
BRANCH  18  21
ATOM     21  C   UNL     1      48.480   7.368  17.406  0.00  0.00    +0.000 A 
ATOM     22  C   UNL     1      48.036   8.390  18.225  0.00  0.00    +0.000 A 
ATOM     23  S   UNL     1      47.921   7.883  19.862  0.00  0.00    +0.000 S 
ATOM     24  C   UNL     1      48.336   6.280  19.454  0.00  0.00    +0.000 A 
ATOM     25  N   UNL     1      48.582   5.325  20.390  0.00  0.00    +0.000 NA
ATOM     26  C   UNL     1      48.840   4.157  19.897  0.00  0.00    +0.000 A 
ATOM     27  N   UNL     1      48.819   3.842  18.563  0.00  0.00    +0.000 N 
ATOM     28  C   UNL     1      48.540   4.765  17.582  0.00  0.00    +0.000 A 
ATOM     29  O   UNL     1      48.420   4.453  16.405  0.00  0.00    +0.000 OA
ATOM     30  C   UNL     1      48.397   6.113  18.088  0.00  0.00    +0.000 A 
ATOM     31  H   UNL     1      48.934   2.888  18.248  0.00  0.00    +0.000 HD
ENDBRANCH  18  21
ENDBRANCH   1  19
TORSDOF 5
ENDMDL
MODEL 3
REMARK VINA RESULT:    -7.818      2.015      2.586
REMARK INTER + INTRA:         -10.967
REMARK INTER:                 -10.082
REMARK INTRA:                  -0.885
REMARK UNBOUND:                -0.864
REMARK  Name = 
REMARK  5 active torsions:
REMARK  status: ('A' for Active; 'I' for Inactive)
REMARK    1  A    between atoms: C_2  and  C_19
REMARK    2  A    between atoms: N_3  and  C_4
REMARK    3  A    between atoms: C_4  and  C_5
REMARK    4  A    between atoms: C_8  and  C_9
REMARK    5  A    between atoms: C_9  and  N_10
REMARK                            x       y       z     vdW  Elec       q    Type
REMARK                         _______ _______ _______ _____ _____    ______ ____
ROOT
ATOM      1  C   UNL     1      47.551   7.697  13.629  0.00  0.00    +0.000 C 
ENDROOT
BRANCH   1   2
ATOM      2  C   UNL     1      46.622   6.819  12.830  0.00  0.00    +0.000 A 
ATOM      3  C   UNL     1      45.869   7.366  11.784  0.00  0.00    +0.000 A 
ATOM      4  C   UNL     1      44.984   6.570  11.055  0.00  0.00    +0.000 A 
ATOM      5  C   UNL     1      44.808   5.217  11.374  0.00  0.00    +0.000 A 
ATOM      6  C   UNL     1      45.552   4.668  12.426  0.00  0.00    +0.000 A 
ATOM      7  C   UNL     1      46.446   5.464  13.151  0.00  0.00    +0.000 A 
BRANCH   5   8
ATOM      8  C   UNL     1      43.817   4.380  10.595  0.00  0.00    +0.000 C 
BRANCH   8   9
ATOM      9  N   UNL     1      43.984   4.595   9.172  0.00  0.00    +0.000 N 
ATOM     10  C   UNL     1      44.903   3.726   8.600  0.00  0.00    +0.000 A 
ATOM     11  N   UNL     1      45.025   2.471   9.068  0.00  0.00    +0.000 NA
ATOM     12  C   UNL     1      45.936   1.678   8.476  0.00  0.00    +0.000 A 
ATOM     13  C   UNL     1      46.727   2.085   7.441  0.00  0.00    +0.000 A 
ATOM     14  C   UNL     1      46.537   3.378   7.027  0.00  0.00    +0.000 A 
ATOM     15  N   UNL     1      45.639   4.216   7.596  0.00  0.00    +0.000 NA
ATOM     16  H   UNL     1      44.252   5.534   8.898  0.00  0.00    +0.000 HD
ENDBRANCH   8   9
ENDBRANCH   5   8
ENDBRANCH   1   2
BRANCH   1  19
ATOM     17  O   UNL     1      50.000   6.839  14.820  0.00  0.00    +0.000 OA
ATOM     18  C   UNL     1      48.935   6.678  15.399  0.00  0.00    +0.000 C 
ATOM     19  N   UNL     1      47.723   7.151  14.951  0.00  0.00    +0.000 N 
ATOM     20  H   UNL     1      46.885   6.802  15.387  0.00  0.00    +0.000 HD
BRANCH  18  21
ATOM     21  C   UNL     1      48.761   5.772  16.526  0.00  0.00    +0.000 A 
ATOM     22  C   UNL     1      48.132   4.545  16.411  0.00  0.00    +0.000 A 
ATOM     23  S   UNL     1      47.574   3.975  17.932  0.00  0.00    +0.000 S 
ATOM     24  C   UNL     1      48.283   5.294  18.749  0.00  0.00    +0.000 A 
ATOM     25  N   UNL     1      48.071   5.539  20.070  0.00  0.00    +0.000 NA
ATOM     26  C   UNL     1      48.724   6.556  20.530  0.00  0.00    +0.000 A 
ATOM     27  N   UNL     1      49.610   7.316  19.810  0.00  0.00    +0.000 N 
ATOM     28  C   UNL     1      49.883   7.085  18.481  0.00  0.00    +0.000 A 
ATOM     29  O   UNL     1      50.751   7.699  17.876  0.00  0.00    +0.000 OA
ATOM     30  C   UNL     1      49.057   6.050  17.898  0.00  0.00    +0.000 A 
ATOM     31  H   UNL     1      50.161   8.038  20.252  0.00  0.00    +0.000 HD
ENDBRANCH  18  21
ENDBRANCH   1  19
TORSDOF 5
ENDMDL
MODEL 4
REMARK VINA RESULT:    -7.484      3.415      5.486
REMARK INTER + INTRA:         -10.536
REMARK INTER:                  -9.654
REMARK INTRA:                  -0.883
REMARK UNBOUND:                -0.864
REMARK  Name = 
REMARK  5 active torsions:
REMARK  status: ('A' for Active; 'I' for Inactive)
REMARK    1  A    between atoms: C_2  and  C_19
REMARK    2  A    between atoms: N_3  and  C_4
REMARK    3  A    between atoms: C_4  and  C_5
REMARK    4  A    between atoms: C_8  and  C_9
REMARK    5  A    between atoms: C_9  and  N_10
REMARK                            x       y       z     vdW  Elec       q    Type
REMARK                         _______ _______ _______ _____ _____    ______ ____
ROOT
ATOM      1  C   UNL     1      47.858   6.204  14.015  0.00  0.00    +0.000 C 
ENDROOT
BRANCH   1   2
ATOM      2  C   UNL     1      46.855   5.598  13.067  0.00  0.00    +0.000 A 
ATOM      3  C   UNL     1      46.574   6.230  11.850  0.00  0.00    +0.000 A 
ATOM      4  C   UNL     1      45.626   5.695  10.975  0.00  0.00    +0.000 A 
ATOM      5  C   UNL     1      44.916   4.534  11.311  0.00  0.00    +0.000 A 
ATOM      6  C   UNL     1      45.187   3.905  12.532  0.00  0.00    +0.000 A 
ATOM      7  C   UNL     1      46.145   4.437  13.405  0.00  0.00    +0.000 A 
BRANCH   5   8
ATOM      8  C   UNL     1      43.868   3.991  10.366  0.00  0.00    +0.000 C 
BRANCH   8   9
ATOM      9  N   UNL     1      44.177   4.364   9.001  0.00  0.00    +0.000 N 
ATOM     10  C   UNL     1      45.138   3.545   8.423  0.00  0.00    +0.000 A 
ATOM     11  N   UNL     1      45.198   2.242   8.751  0.00  0.00    +0.000 NA
ATOM     12  C   UNL     1      46.154   1.501   8.162  0.00  0.00    +0.000 A 
ATOM     13  C   UNL     1      47.049   2.006   7.264  0.00  0.00    +0.000 A 
ATOM     14  C   UNL     1      46.916   3.342   6.986  0.00  0.00    +0.000 A 
ATOM     15  N   UNL     1      45.975   4.129   7.559  0.00  0.00    +0.000 NA
ATOM     16  H   UNL     1      44.482   5.321   8.865  0.00  0.00    +0.000 HD
ENDBRANCH   8   9
ENDBRANCH   5   8
ENDBRANCH   1   2
BRANCH   1  19
ATOM     17  O   UNL     1      48.450   8.930  14.624  0.00  0.00    +0.000 OA
ATOM     18  C   UNL     1      48.894   8.407  13.612  0.00  0.00    +0.000 C 
ATOM     19  N   UNL     1      48.749   7.075  13.293  0.00  0.00    +0.000 N 
ATOM     20  H   UNL     1      48.975   6.783  12.356  0.00  0.00    +0.000 HD
BRANCH  18  21
ATOM     21  C   UNL     1      49.445   9.158  12.492  0.00  0.00    +0.000 A 
ATOM     22  C   UNL     1      50.767   9.056  12.100  0.00  0.00    +0.000 A 
ATOM     23  S   UNL     1      51.260  10.419  11.178  0.00  0.00    +0.000 S 
ATOM     24  C   UNL     1      49.684  11.070  11.195  0.00  0.00    +0.000 A 
ATOM     25  N   UNL     1      49.398  12.314  10.725  0.00  0.00    +0.000 NA
ATOM     26  C   UNL     1      48.144  12.624  10.778  0.00  0.00    +0.000 A 
ATOM     27  N   UNL     1      47.143  11.789  11.202  0.00  0.00    +0.000 N 
ATOM     28  C   UNL     1      47.377  10.510  11.653  0.00  0.00    +0.000 A 
ATOM     29  O   UNL     1      46.471   9.737  11.929  0.00  0.00    +0.000 OA
ATOM     30  C   UNL     1      48.785  10.187  11.749  0.00  0.00    +0.000 A 
ATOM     31  H   UNL     1      46.171  12.056  11.128  0.00  0.00    +0.000 HD
ENDBRANCH  18  21
ENDBRANCH   1  19
TORSDOF 5
ENDMDL
MODEL 5
REMARK VINA RESULT:    -7.468      2.827      4.725
REMARK INTER + INTRA:         -10.515
REMARK INTER:                  -9.585
REMARK INTRA:                  -0.930
REMARK UNBOUND:                -0.864
REMARK  Name = 
REMARK  5 active torsions:
REMARK  status: ('A' for Active; 'I' for Inactive)
REMARK    1  A    between atoms: C_2  and  C_19
REMARK    2  A    between atoms: N_3  and  C_4
REMARK    3  A    between atoms: C_4  and  C_5
REMARK    4  A    between atoms: C_8  and  C_9
REMARK    5  A    between atoms: C_9  and  N_10
REMARK                            x       y       z     vdW  Elec       q    Type
REMARK                         _______ _______ _______ _____ _____    ______ ____
ROOT
ATOM      1  C   UNL     1      47.575   5.585  14.512  0.00  0.00    +0.000 C 
ENDROOT
BRANCH   1   2
ATOM      2  C   UNL     1      46.523   5.209  13.499  0.00  0.00    +0.000 A 
ATOM      3  C   UNL     1      46.213   3.861  13.282  0.00  0.00    +0.000 A 
ATOM      4  C   UNL     1      45.261   3.497  12.327  0.00  0.00    +0.000 A 
ATOM      5  C   UNL     1      44.621   4.470  11.547  0.00  0.00    +0.000 A 
ATOM      6  C   UNL     1      44.936   5.819  11.755  0.00  0.00    +0.000 A 
ATOM      7  C   UNL     1      45.884   6.184  12.719  0.00  0.00    +0.000 A 
BRANCH   5   8
ATOM      8  C   UNL     1      43.620   4.053  10.493  0.00  0.00    +0.000 C 
BRANCH   8   9
ATOM      9  N   UNL     1      44.032   4.530   9.188  0.00  0.00    +0.000 N 
ATOM     10  C   UNL     1      44.998   3.723   8.601  0.00  0.00    +0.000 A 
ATOM     11  N   UNL     1      44.988   2.396   8.815  0.00  0.00    +0.000 NA
ATOM     12  C   UNL     1      45.952   1.668   8.222  0.00  0.00    +0.000 A 
ATOM     13  C   UNL     1      46.922   2.210   7.430  0.00  0.00    +0.000 A 
ATOM     14  C   UNL     1      46.858   3.570   7.266  0.00  0.00    +0.000 A 
ATOM     15  N   UNL     1      45.912   4.344   7.847  0.00  0.00    +0.000 NA
ATOM     16  H   UNL     1      44.381   5.481   9.158  0.00  0.00    +0.000 HD
ENDBRANCH   8   9
ENDBRANCH   5   8
ENDBRANCH   1   2
BRANCH   1  19
ATOM     17  O   UNL     1      50.116   6.580  15.353  0.00  0.00    +0.000 OA
ATOM     18  C   UNL     1      49.362   7.277  14.688  0.00  0.00    +0.000 C 
ATOM     19  N   UNL     1      48.169   6.847  14.152  0.00  0.00    +0.000 N 
ATOM     20  H   UNL     1      47.532   7.539  13.794  0.00  0.00    +0.000 HD
BRANCH  18  21
ATOM     21  C   UNL     1      49.507   8.720  14.558  0.00  0.00    +0.000 A 
ATOM     22  C   UNL     1      49.767   9.547  15.635  0.00  0.00    +0.000 A 
ATOM     23  S   UNL     1      49.327  11.174  15.304  0.00  0.00    +0.000 S 
ATOM     24  C   UNL     1      48.916  10.794  13.693  0.00  0.00    +0.000 A 
ATOM     25  N   UNL     1      48.310  11.683  12.860  0.00  0.00    +0.000 NA
ATOM     26  C   UNL     1      48.113  11.235  11.663  0.00  0.00    +0.000 A 
ATOM     27  N   UNL     1      48.516  10.008  11.204  0.00  0.00    +0.000 N 
ATOM     28  C   UNL     1      49.163   9.089  11.997  0.00  0.00    +0.000 A 
ATOM     29  O   UNL     1      49.611   8.041  11.553  0.00  0.00    +0.000 OA
ATOM     30  C   UNL     1      49.263   9.499  13.382  0.00  0.00    +0.000 A 
ATOM     31  H   UNL     1      48.419   9.755  10.230  0.00  0.00    +0.000 HD
ENDBRANCH  18  21
ENDBRANCH   1  19
TORSDOF 5
ENDMDL
MODEL 6
REMARK VINA RESULT:    -7.344      3.220      4.906
REMARK INTER + INTRA:         -10.355
REMARK INTER:                  -9.447
REMARK INTRA:                  -0.907
REMARK UNBOUND:                -0.864
REMARK  Name = 
REMARK  5 active torsions:
REMARK  status: ('A' for Active; 'I' for Inactive)
REMARK    1  A    between atoms: C_2  and  C_19
REMARK    2  A    between atoms: N_3  and  C_4
REMARK    3  A    between atoms: C_4  and  C_5
REMARK    4  A    between atoms: C_8  and  C_9
REMARK    5  A    between atoms: C_9  and  N_10
REMARK                            x       y       z     vdW  Elec       q    Type
REMARK                         _______ _______ _______ _____ _____    ______ ____
ROOT
ATOM      1  C   UNL     1      47.742   5.921  14.178  0.00  0.00    +0.000 C 
ENDROOT
BRANCH   1   2
ATOM      2  C   UNL     1      46.685   5.478  13.198  0.00  0.00    +0.000 A 
ATOM      3  C   UNL     1      46.160   4.183  13.274  0.00  0.00    +0.000 A 
ATOM      4  C   UNL     1      45.201   3.751  12.355  0.00  0.00    +0.000 A 
ATOM      5  C   UNL     1      44.769   4.594  11.322  0.00  0.00    +0.000 A 
ATOM      6  C   UNL     1      45.299   5.887  11.236  0.00  0.00    +0.000 A 
ATOM      7  C   UNL     1      46.254   6.323  12.164  0.00  0.00    +0.000 A 
BRANCH   5   8
ATOM      8  C   UNL     1      43.756   4.095  10.315  0.00  0.00    +0.000 C 
BRANCH   8   9
ATOM      9  N   UNL     1      44.157   4.462   8.972  0.00  0.00    +0.000 N 
ATOM     10  C   UNL     1      45.112   3.604   8.442  0.00  0.00    +0.000 A 
ATOM     11  N   UNL     1      45.097   2.298   8.763  0.00  0.00    +0.000 NA
ATOM     12  C   UNL     1      46.051   1.519   8.222  0.00  0.00    +0.000 A 
ATOM     13  C   UNL     1      47.016   1.988   7.379  0.00  0.00    +0.000 A 
ATOM     14  C   UNL     1      46.957   3.331   7.105  0.00  0.00    +0.000 A 
ATOM     15  N   UNL     1      46.021   4.156   7.630  0.00  0.00    +0.000 NA
ATOM     16  H   UNL     1      44.511   5.405   8.861  0.00  0.00    +0.000 HD
ENDBRANCH   8   9
ENDBRANCH   5   8
ENDBRANCH   1   2
BRANCH   1  19
ATOM     17  O   UNL     1      48.339   8.468  15.321  0.00  0.00    +0.000 OA
ATOM     18  C   UNL     1      48.696   8.196  14.184  0.00  0.00    +0.000 C 
ATOM     19  N   UNL     1      48.546   6.962  13.592  0.00  0.00    +0.000 N 
ATOM     20  H   UNL     1      48.689   6.891  12.597  0.00  0.00    +0.000 HD
BRANCH  18  21
ATOM     21  C   UNL     1      49.127   9.195  13.215  0.00  0.00    +0.000 A 
ATOM     22  C   UNL     1      48.252  10.078  12.610  0.00  0.00    +0.000 A 
ATOM     23  S   UNL     1      48.902  10.716  11.155  0.00  0.00    +0.000 S 
ATOM     24  C   UNL     1      50.389   9.918  11.403  0.00  0.00    +0.000 A 
ATOM     25  N   UNL     1      51.372   9.888  10.464  0.00  0.00    +0.000 NA
ATOM     26  C   UNL     1      52.446   9.273  10.842  0.00  0.00    +0.000 A 
ATOM     27  N   UNL     1      52.650   8.738  12.088  0.00  0.00    +0.000 N 
ATOM     28  C   UNL     1      51.699   8.774  13.082  0.00  0.00    +0.000 A 
ATOM     29  O   UNL     1      51.927   8.388  14.219  0.00  0.00    +0.000 OA
ATOM     30  C   UNL     1      50.433   9.319  12.642  0.00  0.00    +0.000 A 
ATOM     31  H   UNL     1      53.547   8.356  12.353  0.00  0.00    +0.000 HD
ENDBRANCH  18  21
ENDBRANCH   1  19
TORSDOF 5
ENDMDL
MODEL 7
REMARK VINA RESULT:    -7.141      2.948      4.366
REMARK INTER + INTRA:         -10.093
REMARK INTER:                  -9.253
REMARK INTRA:                  -0.840
REMARK UNBOUND:                -0.864
REMARK  Name = 
REMARK  5 active torsions:
REMARK  status: ('A' for Active; 'I' for Inactive)
REMARK    1  A    between atoms: C_2  and  C_19
REMARK    2  A    between atoms: N_3  and  C_4
REMARK    3  A    between atoms: C_4  and  C_5
REMARK    4  A    between atoms: C_8  and  C_9
REMARK    5  A    between atoms: C_9  and  N_10
REMARK                            x       y       z     vdW  Elec       q    Type
REMARK                         _______ _______ _______ _____ _____    ______ ____
ROOT
ATOM      1  C   UNL     1      47.511   5.854  14.282  0.00  0.00    +0.000 C 
ENDROOT
BRANCH   1   2
ATOM      2  C   UNL     1      46.605   5.319  13.203  0.00  0.00    +0.000 A 
ATOM      3  C   UNL     1      46.180   6.160  12.168  0.00  0.00    +0.000 A 
ATOM      4  C   UNL     1      45.318   5.685  11.177  0.00  0.00    +0.000 A 
ATOM      5  C   UNL     1      44.837   4.369  11.216  0.00  0.00    +0.000 A 
ATOM      6  C   UNL     1      45.252   3.528  12.256  0.00  0.00    +0.000 A 
ATOM      7  C   UNL     1      46.124   4.002  13.244  0.00  0.00    +0.000 A 
BRANCH   5   8
ATOM      8  C   UNL     1      43.875   3.884  10.154  0.00  0.00    +0.000 C 
BRANCH   8   9
ATOM      9  N   UNL     1      44.316   4.311   8.842  0.00  0.00    +0.000 N 
ATOM     10  C   UNL     1      45.296   3.485   8.307  0.00  0.00    +0.000 A 
ATOM     11  N   UNL     1      45.283   2.167   8.572  0.00  0.00    +0.000 NA
ATOM     12  C   UNL     1      46.261   1.419   8.029  0.00  0.00    +0.000 A 
ATOM     13  C   UNL     1      47.248   1.931   7.239  0.00  0.00    +0.000 A 
ATOM     14  C   UNL     1      47.186   3.284   7.021  0.00  0.00    +0.000 A 
ATOM     15  N   UNL     1      46.226   4.078   7.550  0.00  0.00    +0.000 NA
ATOM     16  H   UNL     1      44.664   5.262   8.783  0.00  0.00    +0.000 HD
ENDBRANCH   8   9
ENDBRANCH   5   8
ENDBRANCH   1   2
BRANCH   1  19
ATOM     17  O   UNL     1      50.135   6.565  15.155  0.00  0.00    +0.000 OA
ATOM     18  C   UNL     1      49.561   7.227  14.301  0.00  0.00    +0.000 C 
ATOM     19  N   UNL     1      48.345   6.899  13.747  0.00  0.00    +0.000 N 
ATOM     20  H   UNL     1      47.866   7.599  13.204  0.00  0.00    +0.000 HD
BRANCH  18  21
ATOM     21  C   UNL     1      49.973   8.568  13.912  0.00  0.00    +0.000 A 
ATOM     22  C   UNL     1      50.726   8.822  12.780  0.00  0.00    +0.000 A 
ATOM     23  S   UNL     1      51.521  10.341  12.877  0.00  0.00    +0.000 S 
ATOM     24  C   UNL     1      50.759  10.709  14.358  0.00  0.00    +0.000 A 
ATOM     25  N   UNL     1      51.092  11.795  15.105  0.00  0.00    +0.000 NA
ATOM     26  C   UNL     1      50.380  11.939  16.176  0.00  0.00    +0.000 A 
ATOM     27  N   UNL     1      49.332  11.133  16.539  0.00  0.00    +0.000 N 
ATOM     28  C   UNL     1      48.935  10.043  15.798  0.00  0.00    +0.000 A 
ATOM     29  O   UNL     1      47.936   9.394  16.073  0.00  0.00    +0.000 OA
ATOM     30  C   UNL     1      49.806   9.767  14.676  0.00  0.00    +0.000 A 
ATOM     31  H   UNL     1      48.753  11.355  17.337  0.00  0.00    +0.000 HD
ENDBRANCH  18  21
ENDBRANCH   1  19
TORSDOF 5
ENDMDL
MODEL 8
REMARK VINA RESULT:    -6.880      3.549      5.237
REMARK INTER + INTRA:          -9.756
REMARK INTER:                  -8.963
REMARK INTRA:                  -0.793
REMARK UNBOUND:                -0.864
REMARK  Name = 
REMARK  5 active torsions:
REMARK  status: ('A' for Active; 'I' for Inactive)
REMARK    1  A    between atoms: C_2  and  C_19
REMARK    2  A    between atoms: N_3  and  C_4
REMARK    3  A    between atoms: C_4  and  C_5
REMARK    4  A    between atoms: C_8  and  C_9
REMARK    5  A    between atoms: C_9  and  N_10
REMARK                            x       y       z     vdW  Elec       q    Type
REMARK                         _______ _______ _______ _____ _____    ______ ____
ROOT
ATOM      1  C   UNL     1      46.924   4.066  14.423  0.00  0.00    +0.000 C 
ENDROOT
BRANCH   1   2
ATOM      2  C   UNL     1      46.382   5.234  13.640  0.00  0.00    +0.000 A 
ATOM      3  C   UNL     1      47.183   6.361  13.422  0.00  0.00    +0.000 A 
ATOM      4  C   UNL     1      46.684   7.462  12.722  0.00  0.00    +0.000 A 
ATOM      5  C   UNL     1      45.363   7.473  12.253  0.00  0.00    +0.000 A 
ATOM      6  C   UNL     1      44.555   6.352  12.478  0.00  0.00    +0.000 A 
ATOM      7  C   UNL     1      45.059   5.244  13.171  0.00  0.00    +0.000 A 
BRANCH   5   8
ATOM      8  C   UNL     1      44.830   8.689  11.528  0.00  0.00    +0.000 C 
BRANCH   8   9
ATOM      9  N   UNL     1      43.442   8.490  11.162  0.00  0.00    +0.000 N 
ATOM     10  C   UNL     1      42.881   9.604  10.553  0.00  0.00    +0.000 A 
ATOM     11  N   UNL     1      43.634  10.395   9.769  0.00  0.00    +0.000 NA
ATOM     12  C   UNL     1      43.034  11.463   9.211  0.00  0.00    +0.000 A 
ATOM     13  C   UNL     1      41.719  11.772   9.405  0.00  0.00    +0.000 A 
ATOM     14  C   UNL     1      41.025  10.913  10.218  0.00  0.00    +0.000 A 
ATOM     15  N   UNL     1      41.587   9.831  10.807  0.00  0.00    +0.000 NA
ATOM     16  H   UNL     1      42.823   8.220  11.917  0.00  0.00    +0.000 HD
ENDBRANCH   8   9
ENDBRANCH   5   8
ENDBRANCH   1   2
BRANCH   1  19
ATOM     17  O   UNL     1      46.555   3.198  17.119  0.00  0.00    +0.000 OA
ATOM     18  C   UNL     1      47.308   4.126  16.860  0.00  0.00    +0.000 C 
ATOM     19  N   UNL     1      47.627   4.542  15.587  0.00  0.00    +0.000 N 
ATOM     20  H   UNL     1      48.092   5.429  15.479  0.00  0.00    +0.000 HD
BRANCH  18  21
ATOM     21  C   UNL     1      47.799   5.066  17.858  0.00  0.00    +0.000 A 
ATOM     22  C   UNL     1      46.965   5.715  18.750  0.00  0.00    +0.000 A 
ATOM     23  S   UNL     1      47.699   7.130  19.388  0.00  0.00    +0.000 S 
ATOM     24  C   UNL     1      49.163   6.804  18.577  0.00  0.00    +0.000 A 
ATOM     25  N   UNL     1      50.197   7.688  18.542  0.00  0.00    +0.000 NA
ATOM     26  C   UNL     1      51.243   7.254  17.918  0.00  0.00    +0.000 A 
ATOM     27  N   UNL     1      51.375   6.001  17.377  0.00  0.00    +0.000 N 
ATOM     28  C   UNL     1      50.371   5.060  17.418  0.00  0.00    +0.000 A 
ATOM     29  O   UNL     1      50.534   3.913  17.027  0.00  0.00    +0.000 OA
ATOM     30  C   UNL     1      49.135   5.566  17.975  0.00  0.00    +0.000 A 
ATOM     31  H   UNL     1      52.253   5.688  16.987  0.00  0.00    +0.000 HD
ENDBRANCH  18  21
ENDBRANCH   1  19
TORSDOF 5
ENDMDL
MODEL 9
REMARK VINA RESULT:    -6.671      4.213      9.564
REMARK INTER + INTRA:          -9.485
REMARK INTER:                  -8.656
REMARK INTRA:                  -0.830
REMARK UNBOUND:                -0.864
REMARK  Name = 
REMARK  5 active torsions:
REMARK  status: ('A' for Active; 'I' for Inactive)
REMARK    1  A    between atoms: C_2  and  C_19
REMARK    2  A    between atoms: N_3  and  C_4
REMARK    3  A    between atoms: C_4  and  C_5
REMARK    4  A    between atoms: C_8  and  C_9
REMARK    5  A    between atoms: C_9  and  N_10
REMARK                            x       y       z     vdW  Elec       q    Type
REMARK                         _______ _______ _______ _____ _____    ______ ____
ROOT
ATOM      1  C   UNL     1      47.430   4.200  16.696  0.00  0.00    +0.000 C 
ENDROOT
BRANCH   1   2
ATOM      2  C   UNL     1      47.876   5.366  17.540  0.00  0.00    +0.000 A 
ATOM      3  C   UNL     1      48.697   6.356  16.987  0.00  0.00    +0.000 A 
ATOM      4  C   UNL     1      49.140   7.427  17.765  0.00  0.00    +0.000 A 
ATOM      5  C   UNL     1      48.798   7.517  19.121  0.00  0.00    +0.000 A 
ATOM      6  C   UNL     1      47.984   6.524  19.681  0.00  0.00    +0.000 A 
ATOM      7  C   UNL     1      47.533   5.455  18.898  0.00  0.00    +0.000 A 
BRANCH   5   8
ATOM      8  C   UNL     1      49.317   8.666  19.957  0.00  0.00    +0.000 C 
BRANCH   8   9
ATOM      9  N   UNL     1      48.659   9.901  19.581  0.00  0.00    +0.000 N 
ATOM     10  C   UNL     1      47.515  10.150  20.328  0.00  0.00    +0.000 A 
ATOM     11  N   UNL     1      47.454   9.767  21.615  0.00  0.00    +0.000 NA
ATOM     12  C   UNL     1      46.317  10.032  22.285  0.00  0.00    +0.000 A 
ATOM     13  C   UNL     1      45.243  10.658  21.723  0.00  0.00    +0.000 A 
ATOM     14  C   UNL     1      45.390  11.013  20.406  0.00  0.00    +0.000 A 
ATOM     15  N   UNL     1      46.511  10.762  19.690  0.00  0.00    +0.000 NA
ATOM     16  H   UNL     1      48.400   9.981  18.604  0.00  0.00    +0.000 HD
ENDBRANCH   8   9
ENDBRANCH   5   8
ENDBRANCH   1   2
BRANCH   1  19
ATOM     17  O   UNL     1      47.402   3.124  14.051  0.00  0.00    +0.000 OA
ATOM     18  C   UNL     1      46.780   4.143  14.316  0.00  0.00    +0.000 C 
ATOM     19  N   UNL     1      46.652   4.673  15.580  0.00  0.00    +0.000 N 
ATOM     20  H   UNL     1      46.293   5.610  15.669  0.00  0.00    +0.000 HD
BRANCH  18  21
ATOM     21  C   UNL     1      46.277   5.064  13.307  0.00  0.00    +0.000 A 
ATOM     22  C   UNL     1      46.873   6.284  13.042  0.00  0.00    +0.000 A 
ATOM     23  S   UNL     1      45.788   7.361  12.261  0.00  0.00    +0.000 S 
ATOM     24  C   UNL     1      44.579   6.163  12.163  0.00  0.00    +0.000 A 
ATOM     25  N   UNL     1      43.312   6.430  11.748  0.00  0.00    +0.000 NA
ATOM     26  C   UNL     1      42.542   5.391  11.696  0.00  0.00    +0.000 A 
ATOM     27  N   UNL     1      42.935   4.105  11.965  0.00  0.00    +0.000 N 
ATOM     28  C   UNL     1      44.215   3.781  12.354  0.00  0.00    +0.000 A 
ATOM     29  O   UNL     1      44.583   2.623  12.490  0.00  0.00    +0.000 OA
ATOM     30  C   UNL     1      45.058   4.937  12.568  0.00  0.00    +0.000 A 
ATOM     31  H   UNL     1      42.312   3.324  11.812  0.00  0.00    +0.000 HD
ENDBRANCH  18  21
ENDBRANCH   1  19
TORSDOF 5
ENDMDL
