MODEL 1
REMARK VINA RESULT:    -6.029      0.000      0.000
REMARK INTER + INTRA:         -11.944
REMARK INTER:                  -9.378
REMARK INTRA:                  -2.566
REMARK UNBOUND:                -2.566
REMARK  Name = 
REMARK  11 active torsions:
REMARK  status: ('A' for Active; 'I' for Inactive)
REMARK    1  A    between atoms: C_1  and  C_2
REMARK    2  A    between atoms: C_7  and  C_8
REMARK    3  A    between atoms: C_8  and  S_9
REMARK    4  A    between atoms: S_9  and  C_10
REMARK    5  A    between atoms: C_10  and  C_11
REMARK    6  A    between atoms: C_14  and  C_15
REMARK    7  A    between atoms: C_15  and  N_16
REMARK    8  A    between atoms: N_16  and  C_17
REMARK    9  A    between atoms: C_17  and  C_18
REMARK   10  A    between atoms: C_18  and  O_19
REMARK   11  A    between atoms: C_20  and  C_22
REMARK                            x       y       z     vdW  Elec       q    Type
REMARK                         _______ _______ _______ _____ _____    ______ ____
ROOT
ATOM      1  C   UNL     1      47.695   8.702  13.094  0.00  0.00    +0.000 C 
ENDROOT
BRANCH   1   5
ATOM      2  C   UNL     1      49.422   7.893  17.001  0.00  0.00    +0.000 A 
ATOM      3  C   UNL     1      48.540   8.969  16.819  0.00  0.00    +0.000 A 
ATOM      4  C   UNL     1      47.933   9.200  15.576  0.00  0.00    +0.000 A 
ATOM      5  C   UNL     1      48.178   8.348  14.491  0.00  0.00    +0.000 A 
ATOM      6  C   UNL     1      48.898   7.170  14.740  0.00  0.00    +0.000 A 
ATOM      7  C   UNL     1      49.537   6.955  15.970  0.00  0.00    +0.000 A 
BRANCH   2   8
ATOM      8  C   UNL     1      50.330   7.837  18.208  0.00  0.00    +0.000 C 
BRANCH   8   9
ATOM      9  S   UNL     1      51.353   6.350  18.381  0.00  0.00    +0.000 S 
BRANCH   9  10
ATOM     10  C   UNL     1      50.229   5.282  19.336  0.00  0.00    +0.000 C 
BRANCH  10  17
ATOM     11  C   UNL     1      47.238   5.706  18.982  0.00  0.00    +0.000 C 
ATOM     12  C   UNL     1      47.980   4.606  18.273  0.00  0.00    +0.000 A 
ATOM     13  C   UNL     1      47.255   3.771  17.401  0.00  0.00    +0.000 A 
ATOM     14  C   UNL     1      47.879   2.728  16.720  0.00  0.00    +0.000 A 
ATOM     15  C   UNL     1      49.237   2.501  16.902  0.00  0.00    +0.000 A 
ATOM     16  C   UNL     1      49.973   3.328  17.759  0.00  0.00    +0.000 A 
ATOM     17  C   UNL     1      49.366   4.393  18.452  0.00  0.00    +0.000 A 
ENDBRANCH  10  17
ENDBRANCH   9  10
ENDBRANCH   8   9
ENDBRANCH   2   8
ENDBRANCH   1   5
BRANCH   1  18
ATOM     18  N   UNL     1      46.659   7.781  12.545  0.00  0.00    +0.000 N 
ATOM     19  C   UNL     1      47.105   6.767  11.643  0.00  0.00    +0.000 C 
ATOM     20  O   UNL     1      48.307   6.631  11.401  0.00  0.00    +0.000 OA
BRANCH  19  21
ATOM     21  C   UNL     1      46.128   5.868  10.963  0.00  0.00    +0.000 A 
ATOM     22  C   UNL     1      45.991   5.757   9.584  0.00  0.00    +0.000 A 
ATOM     23  S   UNL     1      44.724   4.756   9.062  0.00  0.00    +0.000 S 
ATOM     24  C   UNL     1      44.488   4.192  10.640  0.00  0.00    +0.000 A 
ATOM     25  N   UNL     1      43.599   3.200  10.830  0.00  0.00    +0.000 NA
ATOM     26  C   UNL     1      43.526   2.800  12.097  0.00  0.00    +0.000 A 
ATOM     27  N   UNL     1      44.201   3.309  13.128  0.00  0.00    +0.000 NA
ATOM     28  C   UNL     1      45.056   4.319  12.876  0.00  0.00    +0.000 A 
ATOM     29 CL   UNL     1      45.851   4.930  14.239  0.00  0.00    +0.000 Cl
ATOM     30  C   UNL     1      45.280   4.828  11.593  0.00  0.00    +0.000 A 
ENDBRANCH  19  21
BRANCH  18  31
ATOM     31  C   UNL     1      45.248   8.162  12.589  0.00  0.00    +0.000 C 
BRANCH  31  32
ATOM     32  C   UNL     1      44.574   9.061  11.555  0.00  0.00    +0.000 C 
BRANCH  32  33
ATOM     33  O   UNL     1      43.494   8.372  10.931  0.00  0.00    +0.000 OA
ATOM     34  H   UNL     1      43.616   8.456   9.970  0.00  0.00    +0.000 HD
ENDBRANCH  32  33
ENDBRANCH  31  32
ENDBRANCH  18  31
ENDBRANCH   1  18
TORSDOF 10
ENDMDL
MODEL 2
REMARK VINA RESULT:    -6.029      3.036      4.884
REMARK INTER + INTRA:         -11.944
REMARK INTER:                  -8.745
REMARK INTRA:                  -3.198
REMARK UNBOUND:                -2.566
REMARK  Name = 
REMARK  11 active torsions:
REMARK  status: ('A' for Active; 'I' for Inactive)
REMARK    1  A    between atoms: C_1  and  C_2
REMARK    2  A    between atoms: C_7  and  C_8
REMARK    3  A    between atoms: C_8  and  S_9
REMARK    4  A    between atoms: S_9  and  C_10
REMARK    5  A    between atoms: C_10  and  C_11
REMARK    6  A    between atoms: C_14  and  C_15
REMARK    7  A    between atoms: C_15  and  N_16
REMARK    8  A    between atoms: N_16  and  C_17
REMARK    9  A    between atoms: C_17  and  C_18
REMARK   10  A    between atoms: C_18  and  O_19
REMARK   11  A    between atoms: C_20  and  C_22
REMARK                            x       y       z     vdW  Elec       q    Type
REMARK                         _______ _______ _______ _____ _____    ______ ____
ROOT
ATOM      1  C   UNL     1      46.204   7.947  13.057  0.00  0.00    +0.000 C 
ENDROOT
BRANCH   1   5
ATOM      2  C   UNL     1      49.934   9.406  11.365  0.00  0.00    +0.000 A 
ATOM      3  C   UNL     1      49.655   8.031  11.398  0.00  0.00    +0.000 A 
ATOM      4  C   UNL     1      48.429   7.558  11.888  0.00  0.00    +0.000 A 
ATOM      5  C   UNL     1      47.445   8.449  12.337  0.00  0.00    +0.000 A 
ATOM      6  C   UNL     1      47.658   9.817  12.111  0.00  0.00    +0.000 A 
ATOM      7  C   UNL     1      48.896  10.296  11.658  0.00  0.00    +0.000 A 
BRANCH   2   8
ATOM      8  C   UNL     1      51.349   9.900  11.169  0.00  0.00    +0.000 C 
BRANCH   8   9
ATOM      9  S   UNL     1      52.553   9.431  12.441  0.00  0.00    +0.000 S 
BRANCH   9  10
ATOM     10  C   UNL     1      51.842  10.265  13.896  0.00  0.00    +0.000 C 
BRANCH  10  17
ATOM     11  C   UNL     1      49.363  11.448  15.202  0.00  0.00    +0.000 C 
ATOM     12  C   UNL     1      49.637   9.970  15.198  0.00  0.00    +0.000 A 
ATOM     13  C   UNL     1      48.692   9.117  15.801  0.00  0.00    +0.000 A 
ATOM     14  C   UNL     1      48.887   7.738  15.840  0.00  0.00    +0.000 A 
ATOM     15  C   UNL     1      50.034   7.190  15.279  0.00  0.00    +0.000 A 
ATOM     16  C   UNL     1      50.978   8.023  14.668  0.00  0.00    +0.000 A 
ATOM     17  C   UNL     1      50.798   9.418  14.610  0.00  0.00    +0.000 A 
ENDBRANCH  10  17
ENDBRANCH   9  10
ENDBRANCH   8   9
ENDBRANCH   2   8
ENDBRANCH   1   5
BRANCH   1  18
ATOM     18  N   UNL     1      45.873   6.517  12.797  0.00  0.00    +0.000 N 
ATOM     19  C   UNL     1      44.906   6.250  11.781  0.00  0.00    +0.000 C 
ATOM     20  O   UNL     1      44.434   7.172  11.110  0.00  0.00    +0.000 OA
BRANCH  19  21
ATOM     21  C   UNL     1      44.434   4.858  11.524  0.00  0.00    +0.000 A 
ATOM     22  C   UNL     1      43.490   4.194  12.298  0.00  0.00    +0.000 A 
ATOM     23  S   UNL     1      43.214   2.575  11.870  0.00  0.00    +0.000 S 
ATOM     24  C   UNL     1      44.118   2.771  10.454  0.00  0.00    +0.000 A 
ATOM     25  N   UNL     1      44.154   1.748   9.580  0.00  0.00    +0.000 NA
ATOM     26  C   UNL     1      44.851   2.023   8.481  0.00  0.00    +0.000 A 
ATOM     27  N   UNL     1      45.504   3.156   8.222  0.00  0.00    +0.000 NA
ATOM     28  C   UNL     1      45.452   4.133   9.149  0.00  0.00    +0.000 A 
ATOM     29 CL   UNL     1      46.331   5.526   8.760  0.00  0.00    +0.000 Cl
ATOM     30  C   UNL     1      44.728   4.018  10.339  0.00  0.00    +0.000 A 
ENDBRANCH  19  21
BRANCH  18  31
ATOM     31  C   UNL     1      46.191   5.501  13.800  0.00  0.00    +0.000 C 
BRANCH  31  32
ATOM     32  C   UNL     1      47.323   4.486  13.658  0.00  0.00    +0.000 C 
BRANCH  32  33
ATOM     33  O   UNL     1      46.800   3.161  13.657  0.00  0.00    +0.000 OA
ATOM     34  H   UNL     1      46.720   2.882  14.585  0.00  0.00    +0.000 HD
ENDBRANCH  32  33
ENDBRANCH  31  32
ENDBRANCH  18  31
ENDBRANCH   1  18
TORSDOF 10
ENDMDL
MODEL 3
REMARK VINA RESULT:    -5.858      3.381      6.123
REMARK INTER + INTRA:         -11.677
REMARK INTER:                  -8.716
REMARK INTRA:                  -2.961
REMARK UNBOUND:                -2.566
REMARK  Name = 
REMARK  11 active torsions:
REMARK  status: ('A' for Active; 'I' for Inactive)
REMARK    1  A    between atoms: C_1  and  C_2
REMARK    2  A    between atoms: C_7  and  C_8
REMARK    3  A    between atoms: C_8  and  S_9
REMARK    4  A    between atoms: S_9  and  C_10
REMARK    5  A    between atoms: C_10  and  C_11
REMARK    6  A    between atoms: C_14  and  C_15
REMARK    7  A    between atoms: C_15  and  N_16
REMARK    8  A    between atoms: N_16  and  C_17
REMARK    9  A    between atoms: C_17  and  C_18
REMARK   10  A    between atoms: C_18  and  O_19
REMARK   11  A    between atoms: C_20  and  C_22
REMARK                            x       y       z     vdW  Elec       q    Type
REMARK                         _______ _______ _______ _____ _____    ______ ____
ROOT
ATOM      1  C   UNL     1      47.149   7.776  13.198  0.00  0.00    +0.000 C 
ENDROOT
BRANCH   1   5
ATOM      2  C   UNL     1      51.342   8.778  12.638  0.00  0.00    +0.000 A 
ATOM      3  C   UNL     1      50.811   8.625  13.928  0.00  0.00    +0.000 A 
ATOM      4  C   UNL     1      49.474   8.244  14.115  0.00  0.00    +0.000 A 
ATOM      5  C   UNL     1      48.644   7.986  13.016  0.00  0.00    +0.000 A 
ATOM      6  C   UNL     1      49.240   7.946  11.748  0.00  0.00    +0.000 A 
ATOM      7  C   UNL     1      50.565   8.363  11.553  0.00  0.00    +0.000 A 
BRANCH   2   8
ATOM      8  C   UNL     1      52.649   9.507  12.425  0.00  0.00    +0.000 C 
BRANCH   8   9
ATOM      9  S   UNL     1      52.675  10.752  11.107  0.00  0.00    +0.000 S 
BRANCH   9  10
ATOM     10  C   UNL     1      51.690  12.075  11.880  0.00  0.00    +0.000 C 
BRANCH  10  17
ATOM     11  C   UNL     1      49.786  12.046  14.251  0.00  0.00    +0.000 C 
ATOM     12  C   UNL     1      49.307  11.864  12.837  0.00  0.00    +0.000 A 
ATOM     13  C   UNL     1      47.924  11.702  12.620  0.00  0.00    +0.000 A 
ATOM     14  C   UNL     1      47.414  11.520  11.337  0.00  0.00    +0.000 A 
ATOM     15  C   UNL     1      48.278  11.494  10.249  0.00  0.00    +0.000 A 
ATOM     16  C   UNL     1      49.653  11.663  10.448  0.00  0.00    +0.000 A 
ATOM     17  C   UNL     1      50.192  11.856  11.735  0.00  0.00    +0.000 A 
ENDBRANCH  10  17
ENDBRANCH   9  10
ENDBRANCH   8   9
ENDBRANCH   2   8
ENDBRANCH   1   5
BRANCH   1  18
ATOM     18  N   UNL     1      46.659   6.430  12.784  0.00  0.00    +0.000 N 
ATOM     19  C   UNL     1      45.330   6.354  12.266  0.00  0.00    +0.000 C 
ATOM     20  O   UNL     1      44.663   7.380  12.107  0.00  0.00    +0.000 OA
BRANCH  19  21
ATOM     21  C   UNL     1      44.717   5.037  11.927  0.00  0.00    +0.000 A 
ATOM     22  C   UNL     1      43.797   4.370  12.727  0.00  0.00    +0.000 A 
ATOM     23  S   UNL     1      43.343   2.831  12.175  0.00  0.00    +0.000 S 
ATOM     24  C   UNL     1      44.121   3.104  10.698  0.00  0.00    +0.000 A 
ATOM     25  N   UNL     1      43.986   2.178   9.732  0.00  0.00    +0.000 NA
ATOM     26  C   UNL     1      44.596   2.512   8.598  0.00  0.00    +0.000 A 
ATOM     27  N   UNL     1      45.317   3.613   8.383  0.00  0.00    +0.000 NA
ATOM     28  C   UNL     1      45.438   4.488   9.400  0.00  0.00    +0.000 A 
ATOM     29 CL   UNL     1      46.393   5.843   9.058  0.00  0.00    +0.000 Cl
ATOM     30  C   UNL     1      44.824   4.306  10.642  0.00  0.00    +0.000 A 
ENDBRANCH  19  21
BRANCH  18  31
ATOM     31  C   UNL     1      47.328   5.227  13.278  0.00  0.00    +0.000 C 
BRANCH  31  32
ATOM     32  C   UNL     1      46.977   4.532  14.592  0.00  0.00    +0.000 C 
BRANCH  32  33
ATOM     33  O   UNL     1      47.428   3.181  14.572  0.00  0.00    +0.000 OA
ATOM     34  H   UNL     1      47.850   3.031  13.709  0.00  0.00    +0.000 HD
ENDBRANCH  32  33
ENDBRANCH  31  32
ENDBRANCH  18  31
ENDBRANCH   1  18
TORSDOF 10
ENDMDL
MODEL 4
REMARK VINA RESULT:    -5.813      4.181      8.965
REMARK INTER + INTRA:         -11.607
REMARK INTER:                 -10.236
REMARK INTRA:                  -1.371
REMARK UNBOUND:                -2.566
REMARK  Name = 
REMARK  11 active torsions:
REMARK  status: ('A' for Active; 'I' for Inactive)
REMARK    1  A    between atoms: C_1  and  C_2
REMARK    2  A    between atoms: C_7  and  C_8
REMARK    3  A    between atoms: C_8  and  S_9
REMARK    4  A    between atoms: S_9  and  C_10
REMARK    5  A    between atoms: C_10  and  C_11
REMARK    6  A    between atoms: C_14  and  C_15
REMARK    7  A    between atoms: C_15  and  N_16
REMARK    8  A    between atoms: N_16  and  C_17
REMARK    9  A    between atoms: C_17  and  C_18
REMARK   10  A    between atoms: C_18  and  O_19
REMARK   11  A    between atoms: C_20  and  C_22
REMARK                            x       y       z     vdW  Elec       q    Type
REMARK                         _______ _______ _______ _____ _____    ______ ____
ROOT
ATOM      1  C   UNL     1      49.378   6.415  17.161  0.00  0.00    +0.000 C 
ENDROOT
BRANCH   1   5
ATOM      2  C   UNL     1      46.754   5.064  13.968  0.00  0.00    +0.000 A 
ATOM      3  C   UNL     1      47.613   6.156  13.772  0.00  0.00    +0.000 A 
ATOM      4  C   UNL     1      48.504   6.560  14.777  0.00  0.00    +0.000 A 
ATOM      5  C   UNL     1      48.572   5.868  15.993  0.00  0.00    +0.000 A 
ATOM      6  C   UNL     1      47.858   4.666  16.096  0.00  0.00    +0.000 A 
ATOM      7  C   UNL     1      46.938   4.279  15.110  0.00  0.00    +0.000 A 
BRANCH   2   8
ATOM      8  C   UNL     1      45.575   4.837  13.050  0.00  0.00    +0.000 C 
BRANCH   8   9
ATOM      9  S   UNL     1      44.947   6.291  12.167  0.00  0.00    +0.000 S 
BRANCH   9  10
ATOM     10  C   UNL     1      43.733   5.508  11.058  0.00  0.00    +0.000 C 
BRANCH  10  17
ATOM     11  C   UNL     1      43.301   2.530  11.498  0.00  0.00    +0.000 C 
ATOM     12  C   UNL     1      44.132   3.058  10.361  0.00  0.00    +0.000 A 
ATOM     13  C   UNL     1      44.700   2.131   9.466  0.00  0.00    +0.000 A 
ATOM     14  C   UNL     1      45.487   2.552   8.397  0.00  0.00    +0.000 A 
ATOM     15  C   UNL     1      45.722   3.908   8.207  0.00  0.00    +0.000 A 
ATOM     16  C   UNL     1      45.157   4.842   9.083  0.00  0.00    +0.000 A 
ATOM     17  C   UNL     1      44.352   4.441  10.166  0.00  0.00    +0.000 A 
ENDBRANCH  10  17
ENDBRANCH   9  10
ENDBRANCH   8   9
ENDBRANCH   2   8
ENDBRANCH   1   5
BRANCH   1  18
ATOM     18  N   UNL     1      50.670   5.713  17.404  0.00  0.00    +0.000 N 
ATOM     19  C   UNL     1      50.758   4.904  18.578  0.00  0.00    +0.000 C 
ATOM     20  O   UNL     1      49.772   4.748  19.303  0.00  0.00    +0.000 OA
BRANCH  19  21
ATOM     21  C   UNL     1      52.043   4.249  18.959  0.00  0.00    +0.000 A 
ATOM     22  C   UNL     1      52.915   4.735  19.926  0.00  0.00    +0.000 A 
ATOM     23  S   UNL     1      54.368   3.874  20.087  0.00  0.00    +0.000 S 
ATOM     24  C   UNL     1      53.777   2.644  19.087  0.00  0.00    +0.000 A 
ATOM     25  N   UNL     1      54.529   1.539  18.932  0.00  0.00    +0.000 NA
ATOM     26  C   UNL     1      53.952   0.617  18.167  0.00  0.00    +0.000 A 
ATOM     27  N   UNL     1      52.773   0.723  17.553  0.00  0.00    +0.000 NA
ATOM     28  C   UNL     1      52.081   1.866  17.725  0.00  0.00    +0.000 A 
ATOM     29 CL   UNL     1      50.611   1.936  16.889  0.00  0.00    +0.000 Cl
ATOM     30  C   UNL     1      52.528   2.915  18.532  0.00  0.00    +0.000 A 
ENDBRANCH  19  21
BRANCH  18  31
ATOM     31  C   UNL     1      51.885   6.167  16.727  0.00  0.00    +0.000 C 
BRANCH  31  32
ATOM     32  C   UNL     1      52.049   7.551  16.104  0.00  0.00    +0.000 C 
BRANCH  32  33
ATOM     33  O   UNL     1      52.116   7.449  14.685  0.00  0.00    +0.000 OA
ATOM     34  H   UNL     1      51.241   7.162  14.374  0.00  0.00    +0.000 HD
ENDBRANCH  32  33
ENDBRANCH  31  32
ENDBRANCH  18  31
ENDBRANCH   1  18
TORSDOF 10
ENDMDL
MODEL 5
REMARK VINA RESULT:    -5.768      3.182      4.702
REMARK INTER + INTRA:         -11.537
REMARK INTER:                  -8.831
REMARK INTRA:                  -2.706
REMARK UNBOUND:                -2.566
REMARK  Name = 
REMARK  11 active torsions:
REMARK  status: ('A' for Active; 'I' for Inactive)
REMARK    1  A    between atoms: C_1  and  C_2
REMARK    2  A    between atoms: C_7  and  C_8
REMARK    3  A    between atoms: C_8  and  S_9
REMARK    4  A    between atoms: S_9  and  C_10
REMARK    5  A    between atoms: C_10  and  C_11
REMARK    6  A    between atoms: C_14  and  C_15
REMARK    7  A    between atoms: C_15  and  N_16
REMARK    8  A    between atoms: N_16  and  C_17
REMARK    9  A    between atoms: C_17  and  C_18
REMARK   10  A    between atoms: C_18  and  O_19
REMARK   11  A    between atoms: C_20  and  C_22
REMARK                            x       y       z     vdW  Elec       q    Type
REMARK                         _______ _______ _______ _____ _____    ______ ____
ROOT
ATOM      1  C   UNL     1      46.078   8.351  13.237  0.00  0.00    +0.000 C 
ENDROOT
BRANCH   1   5
ATOM      2  C   UNL     1      49.712   9.753  11.306  0.00  0.00    +0.000 A 
ATOM      3  C   UNL     1      49.515   8.385  11.549  0.00  0.00    +0.000 A 
ATOM      4  C   UNL     1      48.320   7.920  12.118  0.00  0.00    +0.000 A 
ATOM      5  C   UNL     1      47.286   8.810  12.437  0.00  0.00    +0.000 A 
ATOM      6  C   UNL     1      47.417  10.138  12.005  0.00  0.00    +0.000 A 
ATOM      7  C   UNL     1      48.623  10.614  11.471  0.00  0.00    +0.000 A 
BRANCH   2   8
ATOM      8  C   UNL     1      51.095  10.294  11.023  0.00  0.00    +0.000 C 
BRANCH   8   9
ATOM      9  S   UNL     1      52.460   9.554  11.959  0.00  0.00    +0.000 S 
BRANCH   9  10
ATOM     10  C   UNL     1      52.170  10.285  13.602  0.00  0.00    +0.000 C 
BRANCH  10  17
ATOM     11  C   UNL     1      49.713  11.619  14.799  0.00  0.00    +0.000 C 
ATOM     12  C   UNL     1      49.976  10.146  14.947  0.00  0.00    +0.000 A 
ATOM     13  C   UNL     1      49.029   9.369  15.643  0.00  0.00    +0.000 A 
ATOM     14  C   UNL     1      49.214   8.001  15.824  0.00  0.00    +0.000 A 
ATOM     15  C   UNL     1      50.351   7.387  15.314  0.00  0.00    +0.000 A 
ATOM     16  C   UNL     1      51.296   8.143  14.612  0.00  0.00    +0.000 A 
ATOM     17  C   UNL     1      51.127   9.526  14.410  0.00  0.00    +0.000 A 
ENDBRANCH  10  17
ENDBRANCH   9  10
ENDBRANCH   8   9
ENDBRANCH   2   8
ENDBRANCH   1   5
BRANCH   1  18
ATOM     18  N   UNL     1      45.253   7.305  12.569  0.00  0.00    +0.000 N 
ATOM     19  C   UNL     1      45.593   5.943  12.832  0.00  0.00    +0.000 C 
ATOM     20  O   UNL     1      46.485   5.668  13.638  0.00  0.00    +0.000 OA
BRANCH  19  21
ATOM     21  C   UNL     1      44.892   4.832  12.125  0.00  0.00    +0.000 A 
ATOM     22  C   UNL     1      43.880   4.061  12.685  0.00  0.00    +0.000 A 
ATOM     23  S   UNL     1      43.329   2.780  11.717  0.00  0.00    +0.000 S 
ATOM     24  C   UNL     1      44.201   3.373  10.395  0.00  0.00    +0.000 A 
ATOM     25  N   UNL     1      44.039   2.763   9.206  0.00  0.00    +0.000 NA
ATOM     26  C   UNL     1      44.732   3.336   8.226  0.00  0.00    +0.000 A 
ATOM     27  N   UNL     1      45.551   4.382   8.342  0.00  0.00    +0.000 NA
ATOM     28  C   UNL     1      45.692   4.930   9.565  0.00  0.00    +0.000 A 
ATOM     29 CL   UNL     1      46.772   6.232   9.637  0.00  0.00    +0.000 Cl
ATOM     30  C   UNL     1      45.003   4.473  10.691  0.00  0.00    +0.000 A 
ENDBRANCH  19  21
BRANCH  18  31
ATOM     31  C   UNL     1      44.444   7.652  11.400  0.00  0.00    +0.000 C 
BRANCH  31  32
ATOM     32  C   UNL     1      43.952   9.064  11.091  0.00  0.00    +0.000 C 
BRANCH  32  33
ATOM     33  O   UNL     1      42.581   9.036  10.705  0.00  0.00    +0.000 OA
ATOM     34  H   UNL     1      42.247   9.948  10.761  0.00  0.00    +0.000 HD
ENDBRANCH  32  33
ENDBRANCH  31  32
ENDBRANCH  18  31
ENDBRANCH   1  18
TORSDOF 10
ENDMDL
MODEL 6
REMARK VINA RESULT:    -5.709      3.397      8.521
REMARK INTER + INTRA:         -11.446
REMARK INTER:                  -9.893
REMARK INTRA:                  -1.553
REMARK UNBOUND:                -2.566
REMARK  Name = 
REMARK  11 active torsions:
REMARK  status: ('A' for Active; 'I' for Inactive)
REMARK    1  A    between atoms: C_1  and  C_2
REMARK    2  A    between atoms: C_7  and  C_8
REMARK    3  A    between atoms: C_8  and  S_9
REMARK    4  A    between atoms: S_9  and  C_10
REMARK    5  A    between atoms: C_10  and  C_11
REMARK    6  A    between atoms: C_14  and  C_15
REMARK    7  A    between atoms: C_15  and  N_16
REMARK    8  A    between atoms: N_16  and  C_17
REMARK    9  A    between atoms: C_17  and  C_18
REMARK   10  A    between atoms: C_18  and  O_19
REMARK   11  A    between atoms: C_20  and  C_22
REMARK                            x       y       z     vdW  Elec       q    Type
REMARK                         _______ _______ _______ _____ _____    ______ ____
ROOT
ATOM      1  C   UNL     1      47.489   8.173  13.102  0.00  0.00    +0.000 C 
ENDROOT
BRANCH   1   5
ATOM      2  C   UNL     1      45.368   4.543  11.992  0.00  0.00    +0.000 A 
ATOM      3  C   UNL     1      45.898   4.694  13.283  0.00  0.00    +0.000 A 
ATOM      4  C   UNL     1      46.532   5.886  13.666  0.00  0.00    +0.000 A 
ATOM      5  C   UNL     1      46.631   6.962  12.775  0.00  0.00    +0.000 A 
ATOM      6  C   UNL     1      45.923   6.871  11.567  0.00  0.00    +0.000 A 
ATOM      7  C   UNL     1      45.322   5.669  11.165  0.00  0.00    +0.000 A 
BRANCH   2   8
ATOM      8  C   UNL     1      45.000   3.175  11.466  0.00  0.00    +0.000 C 
BRANCH   8   9
ATOM      9  S   UNL     1      43.994   3.133   9.958  0.00  0.00    +0.000 S 
BRANCH   9  10
ATOM     10  C   UNL     1      44.766   1.736   9.081  0.00  0.00    +0.000 C 
BRANCH  10  17
ATOM     11  C   UNL     1      46.681  -0.226   7.767  0.00  0.00    +0.000 C 
ATOM     12  C   UNL     1      46.761   1.256   7.522  0.00  0.00    +0.000 A 
ATOM     13  C   UNL     1      47.745   1.731   6.633  0.00  0.00    +0.000 A 
ATOM     14  C   UNL     1      47.880   3.092   6.368  0.00  0.00    +0.000 A 
ATOM     15  C   UNL     1      47.034   4.001   6.992  0.00  0.00    +0.000 A 
ATOM     16  C   UNL     1      46.046   3.544   7.871  0.00  0.00    +0.000 A 
ATOM     17  C   UNL     1      45.886   2.173   8.148  0.00  0.00    +0.000 A 
ENDBRANCH  10  17
ENDBRANCH   9  10
ENDBRANCH   8   9
ENDBRANCH   2   8
ENDBRANCH   1   5
BRANCH   1  18
ATOM     18  N   UNL     1      48.778   7.853  13.779  0.00  0.00    +0.000 N 
ATOM     19  C   UNL     1      48.972   8.385  15.090  0.00  0.00    +0.000 C 
ATOM     20  O   UNL     1      48.070   9.016  15.647  0.00  0.00    +0.000 OA
BRANCH  19  21
ATOM     21  C   UNL     1      50.272   8.207  15.801  0.00  0.00    +0.000 A 
ATOM     22  C   UNL     1      51.233   9.201  15.941  0.00  0.00    +0.000 A 
ATOM     23  S   UNL     1      52.676   8.710  16.687  0.00  0.00    +0.000 S 
ATOM     24  C   UNL     1      51.976   7.233  17.123  0.00  0.00    +0.000 A 
ATOM     25  N   UNL     1      52.689   6.402  17.905  0.00  0.00    +0.000 NA
ATOM     26  C   UNL     1      52.029   5.293  18.227  0.00  0.00    +0.000 A 
ATOM     27  N   UNL     1      50.805   4.955  17.822  0.00  0.00    +0.000 NA
ATOM     28  C   UNL     1      50.154   5.817  17.017  0.00  0.00    +0.000 A 
ATOM     29 CL   UNL     1      48.620   5.302  16.521  0.00  0.00    +0.000 Cl
ATOM     30  C   UNL     1      50.691   7.045  16.620  0.00  0.00    +0.000 A 
ENDBRANCH  19  21
BRANCH  18  31
ATOM     31  C   UNL     1      49.922   7.398  12.989  0.00  0.00    +0.000 C 
BRANCH  31  32
ATOM     32  C   UNL     1      50.081   7.650  11.492  0.00  0.00    +0.000 C 
BRANCH  32  33
ATOM     33  O   UNL     1      51.442   7.486  11.104  0.00  0.00    +0.000 OA
ATOM     34  H   UNL     1      51.970   8.105  11.638  0.00  0.00    +0.000 HD
ENDBRANCH  32  33
ENDBRANCH  31  32
ENDBRANCH  18  31
ENDBRANCH   1  18
TORSDOF 10
ENDMDL
MODEL 7
REMARK VINA RESULT:    -5.683      4.213      8.462
REMARK INTER + INTRA:         -11.406
REMARK INTER:                 -10.000
REMARK INTRA:                  -1.406
REMARK UNBOUND:                -2.566
REMARK  Name = 
REMARK  11 active torsions:
REMARK  status: ('A' for Active; 'I' for Inactive)
REMARK    1  A    between atoms: C_1  and  C_2
REMARK    2  A    between atoms: C_7  and  C_8
REMARK    3  A    between atoms: C_8  and  S_9
REMARK    4  A    between atoms: S_9  and  C_10
REMARK    5  A    between atoms: C_10  and  C_11
REMARK    6  A    between atoms: C_14  and  C_15
REMARK    7  A    between atoms: C_15  and  N_16
REMARK    8  A    between atoms: N_16  and  C_17
REMARK    9  A    between atoms: C_17  and  C_18
REMARK   10  A    between atoms: C_18  and  O_19
REMARK   11  A    between atoms: C_20  and  C_22
REMARK                            x       y       z     vdW  Elec       q    Type
REMARK                         _______ _______ _______ _____ _____    ______ ____
ROOT
ATOM      1  C   UNL     1      46.119   8.679  13.232  0.00  0.00    +0.000 C 
ENDROOT
BRANCH   1   5
ATOM      2  C   UNL     1      45.529   4.611  11.817  0.00  0.00    +0.000 A 
ATOM      3  C   UNL     1      45.255   5.704  10.981  0.00  0.00    +0.000 A 
ATOM      4  C   UNL     1      45.498   7.017  11.411  0.00  0.00    +0.000 A 
ATOM      5  C   UNL     1      46.043   7.266  12.677  0.00  0.00    +0.000 A 
ATOM      6  C   UNL     1      46.497   6.164  13.416  0.00  0.00    +0.000 A 
ATOM      7  C   UNL     1      46.221   4.851  13.008  0.00  0.00    +0.000 A 
BRANCH   2   8
ATOM      8  C   UNL     1      44.962   3.244  11.509  0.00  0.00    +0.000 C 
BRANCH   8   9
ATOM      9  S   UNL     1      43.992   3.097   9.984  0.00  0.00    +0.000 S 
BRANCH   9  10
ATOM     10  C   UNL     1      44.838   1.695   9.187  0.00  0.00    +0.000 C 
BRANCH  10  17
ATOM     11  C   UNL     1      46.698  -0.252   7.772  0.00  0.00    +0.000 C 
ATOM     12  C   UNL     1      46.724   1.226   7.493  0.00  0.00    +0.000 A 
ATOM     13  C   UNL     1      47.627   1.703   6.524  0.00  0.00    +0.000 A 
ATOM     14  C   UNL     1      47.709   3.061   6.223  0.00  0.00    +0.000 A 
ATOM     15  C   UNL     1      46.890   3.964   6.889  0.00  0.00    +0.000 A 
ATOM     16  C   UNL     1      45.981   3.504   7.848  0.00  0.00    +0.000 A 
ATOM     17  C   UNL     1      45.875   2.136   8.164  0.00  0.00    +0.000 A 
ENDBRANCH  10  17
ENDBRANCH   9  10
ENDBRANCH   8   9
ENDBRANCH   2   8
ENDBRANCH   1   5
BRANCH   1  18
ATOM     18  N   UNL     1      47.339   9.436  12.833  0.00  0.00    +0.000 N 
ATOM     19  C   UNL     1      48.410   9.485  13.777  0.00  0.00    +0.000 C 
ATOM     20  O   UNL     1      48.336   8.859  14.838  0.00  0.00    +0.000 OA
BRANCH  19  21
ATOM     21  C   UNL     1      49.627  10.306  13.509  0.00  0.00    +0.000 A 
ATOM     22  C   UNL     1      50.015  11.404  14.266  0.00  0.00    +0.000 A 
ATOM     23  S   UNL     1      51.371  12.242  13.683  0.00  0.00    +0.000 S 
ATOM     24  C   UNL     1      51.679  11.010  12.565  0.00  0.00    +0.000 A 
ATOM     25  N   UNL     1      52.806  11.088  11.833  0.00  0.00    +0.000 NA
ATOM     26  C   UNL     1      52.976  10.048  11.022  0.00  0.00    +0.000 A 
ATOM     27  N   UNL     1      52.141   9.020  10.868  0.00  0.00    +0.000 NA
ATOM     28  C   UNL     1      51.016   9.014  11.610  0.00  0.00    +0.000 A 
ATOM     29 CL   UNL     1      49.994   7.693  11.336  0.00  0.00    +0.000 Cl
ATOM     30  C   UNL     1      50.709  10.011  12.540  0.00  0.00    +0.000 A 
ENDBRANCH  19  21
BRANCH  18  31
ATOM     31  C   UNL     1      47.269  10.411  11.745  0.00  0.00    +0.000 C 
BRANCH  31  32
ATOM     32  C   UNL     1      45.972  11.044  11.247  0.00  0.00    +0.000 C 
BRANCH  32  33
ATOM     33  O   UNL     1      45.256  11.623  12.334  0.00  0.00    +0.000 OA
ATOM     34  H   UNL     1      45.803  11.513  13.131  0.00  0.00    +0.000 HD
ENDBRANCH  32  33
ENDBRANCH  31  32
ENDBRANCH  18  31
ENDBRANCH   1  18
TORSDOF 10
ENDMDL
MODEL 8
REMARK VINA RESULT:    -5.664      4.442      6.947
REMARK INTER + INTRA:         -11.376
REMARK INTER:                  -9.724
REMARK INTRA:                  -1.652
REMARK UNBOUND:                -2.566
REMARK  Name = 
REMARK  11 active torsions:
REMARK  status: ('A' for Active; 'I' for Inactive)
REMARK    1  A    between atoms: C_1  and  C_2
REMARK    2  A    between atoms: C_7  and  C_8
REMARK    3  A    between atoms: C_8  and  S_9
REMARK    4  A    between atoms: S_9  and  C_10
REMARK    5  A    between atoms: C_10  and  C_11
REMARK    6  A    between atoms: C_14  and  C_15
REMARK    7  A    between atoms: C_15  and  N_16
REMARK    8  A    between atoms: N_16  and  C_17
REMARK    9  A    between atoms: C_17  and  C_18
REMARK   10  A    between atoms: C_18  and  O_19
REMARK   11  A    between atoms: C_20  and  C_22
REMARK                            x       y       z     vdW  Elec       q    Type
REMARK                         _______ _______ _______ _____ _____    ______ ____
ROOT
ATOM      1  C   UNL     1      47.061   7.659  13.317  0.00  0.00    +0.000 C 
ENDROOT
BRANCH   1   5
ATOM      2  C   UNL     1      50.207   9.700  11.116  0.00  0.00    +0.000 A 
ATOM      3  C   UNL     1      50.313   8.332  11.410  0.00  0.00    +0.000 A 
ATOM      4  C   UNL     1      49.276   7.654  12.068  0.00  0.00    +0.000 A 
ATOM      5  C   UNL     1      48.099   8.324  12.427  0.00  0.00    +0.000 A 
ATOM      6  C   UNL     1      47.925   9.631  11.951  0.00  0.00    +0.000 A 
ATOM      7  C   UNL     1      48.974  10.324  11.327  0.00  0.00    +0.000 A 
BRANCH   2   8
ATOM      8  C   UNL     1      51.428  10.502  10.729  0.00  0.00    +0.000 C 
BRANCH   8   9
ATOM      9  S   UNL     1      52.982  10.055  11.550  0.00  0.00    +0.000 S 
BRANCH   9  10
ATOM     10  C   UNL     1      54.060   9.801  10.104  0.00  0.00    +0.000 C 
BRANCH  10  17
ATOM     11  C   UNL     1      53.201  10.538   7.282  0.00  0.00    +0.000 C 
ATOM     12  C   UNL     1      53.118   9.129   7.801  0.00  0.00    +0.000 A 
ATOM     13  C   UNL     1      52.649   8.127   6.930  0.00  0.00    +0.000 A 
ATOM     14  C   UNL     1      52.539   6.802   7.350  0.00  0.00    +0.000 A 
ATOM     15  C   UNL     1      52.895   6.460   8.648  0.00  0.00    +0.000 A 
ATOM     16  C   UNL     1      53.371   7.444   9.523  0.00  0.00    +0.000 A 
ATOM     17  C   UNL     1      53.498   8.787   9.119  0.00  0.00    +0.000 A 
ENDBRANCH  10  17
ENDBRANCH   9  10
ENDBRANCH   8   9
ENDBRANCH   2   8
ENDBRANCH   1   5
BRANCH   1  18
ATOM     18  N   UNL     1      46.605   6.321  12.843  0.00  0.00    +0.000 N 
ATOM     19  C   UNL     1      45.298   6.245  12.272  0.00  0.00    +0.000 C 
ATOM     20  O   UNL     1      44.624   7.268  12.120  0.00  0.00    +0.000 OA
BRANCH  19  21
ATOM     21  C   UNL     1      44.717   4.932  11.869  0.00  0.00    +0.000 A 
ATOM     22  C   UNL     1      43.793   4.218  12.622  0.00  0.00    +0.000 A 
ATOM     23  S   UNL     1      43.379   2.694  12.001  0.00  0.00    +0.000 S 
ATOM     24  C   UNL     1      44.183   3.039  10.554  0.00  0.00    +0.000 A 
ATOM     25  N   UNL     1      44.085   2.149   9.549  0.00  0.00    +0.000 NA
ATOM     26  C   UNL     1      44.713   2.539   8.442  0.00  0.00    +0.000 A 
ATOM     27  N   UNL     1      45.417   3.660   8.286  0.00  0.00    +0.000 NA
ATOM     28  C   UNL     1      45.501   4.496   9.339  0.00  0.00    +0.000 A 
ATOM     29 CL   UNL     1      46.437   5.880   9.071  0.00  0.00    +0.000 Cl
ATOM     30  C   UNL     1      44.864   4.254  10.559  0.00  0.00    +0.000 A 
ENDBRANCH  19  21
BRANCH  18  31
ATOM     31  C   UNL     1      47.273   5.112  13.325  0.00  0.00    +0.000 C 
BRANCH  31  32
ATOM     32  C   UNL     1      47.011   4.478  14.689  0.00  0.00    +0.000 C 
BRANCH  32  33
ATOM     33  O   UNL     1      47.459   3.125  14.699  0.00  0.00    +0.000 OA
ATOM     34  H   UNL     1      47.168   2.732  15.540  0.00  0.00    +0.000 HD
ENDBRANCH  32  33
ENDBRANCH  31  32
ENDBRANCH  18  31
ENDBRANCH   1  18
TORSDOF 10
ENDMDL
MODEL 9
REMARK VINA RESULT:    -5.454      3.169      7.970
REMARK INTER + INTRA:         -11.049
REMARK INTER:                  -9.478
REMARK INTRA:                  -1.571
REMARK UNBOUND:                -2.566
REMARK  Name = 
REMARK  11 active torsions:
REMARK  status: ('A' for Active; 'I' for Inactive)
REMARK    1  A    between atoms: C_1  and  C_2
REMARK    2  A    between atoms: C_7  and  C_8
REMARK    3  A    between atoms: C_8  and  S_9
REMARK    4  A    between atoms: S_9  and  C_10
REMARK    5  A    between atoms: C_10  and  C_11
REMARK    6  A    between atoms: C_14  and  C_15
REMARK    7  A    between atoms: C_15  and  N_16
REMARK    8  A    between atoms: N_16  and  C_17
REMARK    9  A    between atoms: C_17  and  C_18
REMARK   10  A    between atoms: C_18  and  O_19
REMARK   11  A    between atoms: C_20  and  C_22
REMARK                            x       y       z     vdW  Elec       q    Type
REMARK                         _______ _______ _______ _____ _____    ______ ____
ROOT
ATOM      1  C   UNL     1      48.871   8.881  14.202  0.00  0.00    +0.000 C 
ENDROOT
BRANCH   1   5
ATOM      2  C   UNL     1      45.787   6.197  12.722  0.00  0.00    +0.000 A 
ATOM      3  C   UNL     1      45.536   7.573  12.848  0.00  0.00    +0.000 A 
ATOM      4  C   UNL     1      46.545   8.452  13.269  0.00  0.00    +0.000 A 
ATOM      5  C   UNL     1      47.833   7.980  13.552  0.00  0.00    +0.000 A 
ATOM      6  C   UNL     1      48.121   6.646  13.230  0.00  0.00    +0.000 A 
ATOM      7  C   UNL     1      47.108   5.755  12.846  0.00  0.00    +0.000 A 
BRANCH   2   8
ATOM      8  C   UNL     1      44.645   5.214  12.608  0.00  0.00    +0.000 C 
BRANCH   8   9
ATOM      9  S   UNL     1      45.082   3.520  12.132  0.00  0.00    +0.000 S 
BRANCH   9  10
ATOM     10  C   UNL     1      44.166   3.367  10.565  0.00  0.00    +0.000 C 
BRANCH  10  17
ATOM     11  C   UNL     1      45.711   5.486   9.024  0.00  0.00    +0.000 C 
ATOM     12  C   UNL     1      45.800   4.024   8.684  0.00  0.00    +0.000 A 
ATOM     13  C   UNL     1      46.652   3.638   7.630  0.00  0.00    +0.000 A 
ATOM     14  C   UNL     1      46.776   2.302   7.256  0.00  0.00    +0.000 A 
ATOM     15  C   UNL     1      46.047   1.329   7.929  0.00  0.00    +0.000 A 
ATOM     16  C   UNL     1      45.204   1.695   8.984  0.00  0.00    +0.000 A 
ATOM     17  C   UNL     1      45.068   3.039   9.384  0.00  0.00    +0.000 A 
ENDBRANCH  10  17
ENDBRANCH   9  10
ENDBRANCH   8   9
ENDBRANCH   2   8
ENDBRANCH   1   5
BRANCH   1  18
ATOM     18  N   UNL     1      49.080   8.634  15.657  0.00  0.00    +0.000 N 
ATOM     19  C   UNL     1      50.107   7.708  16.017  0.00  0.00    +0.000 C 
ATOM     20  O   UNL     1      50.825   7.205  15.150  0.00  0.00    +0.000 OA
BRANCH  19  21
ATOM     21  C   UNL     1      50.317   7.319  17.442  0.00  0.00    +0.000 A 
ATOM     22  C   UNL     1      51.051   8.063  18.359  0.00  0.00    +0.000 A 
ATOM     23  S   UNL     1      51.242   7.343  19.884  0.00  0.00    +0.000 S 
ATOM     24  C   UNL     1      50.111   6.149  19.489  0.00  0.00    +0.000 A 
ATOM     25  N   UNL     1      49.744   5.283  20.451  0.00  0.00    +0.000 NA
ATOM     26  C   UNL     1      48.818   4.417  20.049  0.00  0.00    +0.000 A 
ATOM     27  N   UNL     1      48.291   4.332  18.827  0.00  0.00    +0.000 NA
ATOM     28  C   UNL     1      48.721   5.210  17.901  0.00  0.00    +0.000 A 
ATOM     29 CL   UNL     1      48.029   5.018  16.368  0.00  0.00    +0.000 Cl
ATOM     30  C   UNL     1      49.659   6.210  18.172  0.00  0.00    +0.000 A 
ENDBRANCH  19  21
BRANCH  18  31
ATOM     31  C   UNL     1      48.029   8.981  16.614  0.00  0.00    +0.000 C 
BRANCH  31  32
ATOM     32  C   UNL     1      48.134  10.125  17.620  0.00  0.00    +0.000 C 
BRANCH  32  33
ATOM     33  O   UNL     1      47.672  11.340  17.036  0.00  0.00    +0.000 OA
ATOM     34  H   UNL     1      47.015  11.102  16.360  0.00  0.00    +0.000 HD
ENDBRANCH  32  33
ENDBRANCH  31  32
ENDBRANCH  18  31
ENDBRANCH   1  18
TORSDOF 10
ENDMDL
