MODEL 1
REMARK VINA RESULT:    -8.744      0.000      0.000
REMARK INTER + INTRA:         -14.044
REMARK INTER:                 -12.833
REMARK INTRA:                  -1.212
REMARK UNBOUND:                -1.212
REMARK  Name = 
REMARK  10 active torsions:
REMARK  status: ('A' for Active; 'I' for Inactive)
REMARK    1  A    between atoms: C_1  and  C_2
REMARK    2  A    between atoms: C_8  and  C_9
REMARK    3  A    between atoms: C_9  and  O_11
REMARK    4  A    between atoms: O_11  and  C_12
REMARK    5  A    between atoms: C_12  and  C_13
REMARK    6  A    between atoms: C_16  and  O_17
REMARK    7  A    between atoms: O_17  and  C_18
REMARK    8  A    between atoms: C_18  and  C_19
REMARK    9  A    between atoms: C_19  and  C_20
REMARK   10  A    between atoms: C_30  and  C_31
REMARK                            x       y       z     vdW  Elec       q    Type
REMARK                         _______ _______ _______ _____ _____    ______ ____
ROOT
ATOM      1  C   UNL     1      46.461   4.803  13.724  0.00  0.00    +0.000 A 
ATOM      2  C   UNL     1      45.903   3.627  13.215  0.00  0.00    +0.000 A 
ATOM      3  C   UNL     1      45.065   3.664  12.101  0.00  0.00    +0.000 A 
ATOM      4  C   UNL     1      44.769   4.876  11.474  0.00  0.00    +0.000 A 
ATOM      5  C   UNL     1      45.330   6.053  11.974  0.00  0.00    +0.000 A 
ATOM      6  C   UNL     1      46.172   6.019  13.091  0.00  0.00    +0.000 A 
ENDROOT
BRANCH   1   7
ATOM      7  C   UNL     1      47.391   4.745  14.908  0.00  0.00    +0.000 C 
BRANCH   7   8
ATOM      8  O   UNL     1      47.611   3.378  15.279  0.00  0.00    +0.000 OA
BRANCH   8   9
ATOM      9  C   UNL     1      47.607   3.153  16.619  0.00  0.00    +0.000 C 
ATOM     10  O   UNL     1      46.611   3.084  17.325  0.00  0.00    +0.000 OA
BRANCH   9  18
ATOM     11  C   UNL     1      50.383   7.227  19.865  0.00  0.00    +0.000 C 
ATOM     12  C   UNL     1      50.353   5.924  19.129  0.00  0.00    +0.000 A 
ATOM     13  S   UNL     1      51.760   4.977  19.037  0.00  0.00    +0.000 S 
ATOM     14  C   UNL     1      50.969   3.776  18.137  0.00  0.00    +0.000 A 
ATOM     15  N   UNL     1      51.669   2.693  17.759  0.00  0.00    +0.000 NA
ATOM     16  C   UNL     1      50.949   1.817  17.069  0.00  0.00    +0.000 A 
ATOM     17  N   UNL     1      49.663   1.927  16.740  0.00  0.00    +0.000 NA
ATOM     18  C   UNL     1      48.990   3.047  17.127  0.00  0.00    +0.000 A 
ATOM     19  C   UNL     1      49.632   4.058  17.874  0.00  0.00    +0.000 A 
ATOM     20  C   UNL     1      49.269   5.344  18.478  0.00  0.00    +0.000 A 
ATOM     21  C   UNL     1      47.942   6.045  18.479  0.00  0.00    +0.000 C 
ENDBRANCH   9  18
ENDBRANCH   8   9
ENDBRANCH   7   8
ENDBRANCH   1   7
BRANCH   4  22
ATOM     22  O   UNL     1      43.955   5.022  10.379  0.00  0.00    +0.000 OA
BRANCH  22  23
ATOM     23  C   UNL     1      44.067   3.987   9.396  0.00  0.00    +0.000 C 
BRANCH  23  24
ATOM     24  C   UNL     1      45.123   4.358   8.359  0.00  0.00    +0.000 C 
BRANCH  24  25
ATOM     25  C   UNL     1      45.833   3.129   7.847  0.00  0.00    +0.000 A 
ATOM     26  C   UNL     1      45.726   1.900   8.512  0.00  0.00    +0.000 A 
ATOM     27  C   UNL     1      46.414   0.779   8.039  0.00  0.00    +0.000 A 
ATOM     28  C   UNL     1      47.222   0.876   6.904  0.00  0.00    +0.000 A 
ATOM     29  C   UNL     1      47.351   2.098   6.250  0.00  0.00    +0.000 A 
ATOM     30  C   UNL     1      46.663   3.210   6.725  0.00  0.00    +0.000 A 
ATOM     31  F   UNL     1      46.816   4.382   6.094  0.00  0.00    +0.000 F 
ENDBRANCH  24  25
ENDBRANCH  23  24
ENDBRANCH  22  23
ENDBRANCH   4  22
TORSDOF 8
ENDMDL
MODEL 2
REMARK VINA RESULT:    -8.212      2.258      2.874
REMARK INTER + INTRA:         -13.264
REMARK INTER:                 -11.931
REMARK INTRA:                  -1.333
REMARK UNBOUND:                -1.212
REMARK  Name = 
REMARK  10 active torsions:
REMARK  status: ('A' for Active; 'I' for Inactive)
REMARK    1  A    between atoms: C_1  and  C_2
REMARK    2  A    between atoms: C_8  and  C_9
REMARK    3  A    between atoms: C_9  and  O_11
REMARK    4  A    between atoms: O_11  and  C_12
REMARK    5  A    between atoms: C_12  and  C_13
REMARK    6  A    between atoms: C_16  and  O_17
REMARK    7  A    between atoms: O_17  and  C_18
REMARK    8  A    between atoms: C_18  and  C_19
REMARK    9  A    between atoms: C_19  and  C_20
REMARK   10  A    between atoms: C_30  and  C_31
REMARK                            x       y       z     vdW  Elec       q    Type
REMARK                         _______ _______ _______ _____ _____    ______ ____
ROOT
ATOM      1  C   UNL     1      47.221   6.085  12.809  0.00  0.00    +0.000 A 
ATOM      2  C   UNL     1      46.675   5.000  13.498  0.00  0.00    +0.000 A 
ATOM      3  C   UNL     1      45.572   4.317  12.987  0.00  0.00    +0.000 A 
ATOM      4  C   UNL     1      44.995   4.703  11.775  0.00  0.00    +0.000 A 
ATOM      5  C   UNL     1      45.543   5.783  11.078  0.00  0.00    +0.000 A 
ATOM      6  C   UNL     1      46.649   6.469  11.588  0.00  0.00    +0.000 A 
ENDROOT
BRANCH   1   7
ATOM      7  C   UNL     1      48.432   6.794  13.357  0.00  0.00    +0.000 C 
BRANCH   7   8
ATOM      8  O   UNL     1      48.268   7.006  14.765  0.00  0.00    +0.000 OA
BRANCH   8   9
ATOM      9  C   UNL     1      49.344   6.649  15.514  0.00  0.00    +0.000 C 
ATOM     10  O   UNL     1      50.511   6.899  15.247  0.00  0.00    +0.000 OA
BRANCH   9  18
ATOM     11  C   UNL     1      47.237   8.907  20.545  0.00  0.00    +0.000 C 
ATOM     12  C   UNL     1      47.671   7.750  19.699  0.00  0.00    +0.000 A 
ATOM     13  S   UNL     1      47.647   6.180  20.344  0.00  0.00    +0.000 S 
ATOM     14  C   UNL     1      48.214   5.507  18.893  0.00  0.00    +0.000 A 
ATOM     15  N   UNL     1      48.394   4.177  18.831  0.00  0.00    +0.000 NA
ATOM     16  C   UNL     1      48.831   3.761  17.649  0.00  0.00    +0.000 A 
ATOM     17  N   UNL     1      49.093   4.519  16.586  0.00  0.00    +0.000 NA
ATOM     18  C   UNL     1      48.914   5.866  16.691  0.00  0.00    +0.000 A 
ATOM     19  C   UNL     1      48.446   6.443  17.891  0.00  0.00    +0.000 A 
ATOM     20  C   UNL     1      48.112   7.785  18.380  0.00  0.00    +0.000 A 
ATOM     21  C   UNL     1      48.177   9.097  17.654  0.00  0.00    +0.000 C 
ENDBRANCH   9  18
ENDBRANCH   8   9
ENDBRANCH   7   8
ENDBRANCH   1   7
BRANCH   4  22
ATOM     22  O   UNL     1      43.910   4.102  11.189  0.00  0.00    +0.000 OA
BRANCH  22  23
ATOM     23  C   UNL     1      44.008   3.919   9.773  0.00  0.00    +0.000 C 
BRANCH  23  24
ATOM     24  C   UNL     1      44.545   2.526   9.458  0.00  0.00    +0.000 C 
BRANCH  24  25
ATOM     25  C   UNL     1      45.629   2.590   8.412  0.00  0.00    +0.000 A 
ATOM     26  C   UNL     1      46.049   3.814   7.875  0.00  0.00    +0.000 A 
ATOM     27  C   UNL     1      47.034   3.850   6.884  0.00  0.00    +0.000 A 
ATOM     28  C   UNL     1      47.604   2.665   6.414  0.00  0.00    +0.000 A 
ATOM     29  C   UNL     1      47.178   1.442   6.926  0.00  0.00    +0.000 A 
ATOM     30  C   UNL     1      46.197   1.413   7.913  0.00  0.00    +0.000 A 
ATOM     31  F   UNL     1      45.785   0.226   8.378  0.00  0.00    +0.000 F 
ENDBRANCH  24  25
ENDBRANCH  23  24
ENDBRANCH  22  23
ENDBRANCH   4  22
TORSDOF 8
ENDMDL
MODEL 3
REMARK VINA RESULT:    -8.189      1.621      2.716
REMARK INTER + INTRA:         -13.230
REMARK INTER:                 -12.819
REMARK INTRA:                  -0.411
REMARK UNBOUND:                -1.212
REMARK  Name = 
REMARK  10 active torsions:
REMARK  status: ('A' for Active; 'I' for Inactive)
REMARK    1  A    between atoms: C_1  and  C_2
REMARK    2  A    between atoms: C_8  and  C_9
REMARK    3  A    between atoms: C_9  and  O_11
REMARK    4  A    between atoms: O_11  and  C_12
REMARK    5  A    between atoms: C_12  and  C_13
REMARK    6  A    between atoms: C_16  and  O_17
REMARK    7  A    between atoms: O_17  and  C_18
REMARK    8  A    between atoms: C_18  and  C_19
REMARK    9  A    between atoms: C_19  and  C_20
REMARK   10  A    between atoms: C_30  and  C_31
REMARK                            x       y       z     vdW  Elec       q    Type
REMARK                         _______ _______ _______ _____ _____    ______ ____
ROOT
ATOM      1  C   UNL     1      46.876   5.264  13.780  0.00  0.00    +0.000 A 
ATOM      2  C   UNL     1      46.471   6.451  13.164  0.00  0.00    +0.000 A 
ATOM      3  C   UNL     1      45.551   6.429  12.117  0.00  0.00    +0.000 A 
ATOM      4  C   UNL     1      45.015   5.220  11.667  0.00  0.00    +0.000 A 
ATOM      5  C   UNL     1      45.410   4.032  12.285  0.00  0.00    +0.000 A 
ATOM      6  C   UNL     1      46.332   4.052  13.337  0.00  0.00    +0.000 A 
ENDROOT
BRANCH   1   7
ATOM      7  C   UNL     1      47.846   5.306  14.932  0.00  0.00    +0.000 C 
BRANCH   7   8
ATOM      8  O   UNL     1      47.938   4.008  15.530  0.00  0.00    +0.000 OA
BRANCH   8   9
ATOM      9  C   UNL     1      47.610   3.973  16.848  0.00  0.00    +0.000 C 
ATOM     10  O   UNL     1      46.646   3.391  17.326  0.00  0.00    +0.000 OA
BRANCH   9  18
ATOM     11  C   UNL     1      53.105   2.359  18.281  0.00  0.00    +0.000 C 
ATOM     12  C   UNL     1      51.955   3.317  18.336  0.00  0.00    +0.000 A 
ATOM     13  S   UNL     1      52.083   4.733  19.264  0.00  0.00    +0.000 S 
ATOM     14  C   UNL     1      50.521   5.234  18.832  0.00  0.00    +0.000 A 
ATOM     15  N   UNL     1      50.062   6.397  19.323  0.00  0.00    +0.000 NA
ATOM     16  C   UNL     1      48.835   6.692  18.913  0.00  0.00    +0.000 A 
ATOM     17  N   UNL     1      48.069   5.963  18.103  0.00  0.00    +0.000 NA
ATOM     18  C   UNL     1      48.562   4.781  17.637  0.00  0.00    +0.000 A 
ATOM     19  C   UNL     1      49.859   4.347  17.989  0.00  0.00    +0.000 A 
ATOM     20  C   UNL     1      50.728   3.204  17.691  0.00  0.00    +0.000 A 
ATOM     21  C   UNL     1      50.457   2.016  16.814  0.00  0.00    +0.000 C 
ENDBRANCH   9  18
ENDBRANCH   8   9
ENDBRANCH   7   8
ENDBRANCH   1   7
BRANCH   4  22
ATOM     22  O   UNL     1      44.109   5.089  10.645  0.00  0.00    +0.000 OA
BRANCH  22  23
ATOM     23  C   UNL     1      44.170   3.848   9.934  0.00  0.00    +0.000 C 
BRANCH  23  24
ATOM     24  C   UNL     1      44.499   4.098   8.465  0.00  0.00    +0.000 C 
BRANCH  24  25
ATOM     25  C   UNL     1      45.589   3.169   7.991  0.00  0.00    +0.000 A 
ATOM     26  C   UNL     1      46.602   3.618   7.134  0.00  0.00    +0.000 A 
ATOM     27  C   UNL     1      47.587   2.735   6.681  0.00  0.00    +0.000 A 
ATOM     28  C   UNL     1      47.565   1.395   7.073  0.00  0.00    +0.000 A 
ATOM     29  C   UNL     1      46.550   0.935   7.907  0.00  0.00    +0.000 A 
ATOM     30  C   UNL     1      45.572   1.819   8.355  0.00  0.00    +0.000 A 
ATOM     31  F   UNL     1      44.592   1.354   9.140  0.00  0.00    +0.000 F 
ENDBRANCH  24  25
ENDBRANCH  23  24
ENDBRANCH  22  23
ENDBRANCH   4  22
TORSDOF 8
ENDMDL
MODEL 4
REMARK VINA RESULT:    -8.071      2.168      2.805
REMARK INTER + INTRA:         -13.057
REMARK INTER:                 -11.844
REMARK INTRA:                  -1.213
REMARK UNBOUND:                -1.212
REMARK  Name = 
REMARK  10 active torsions:
REMARK  status: ('A' for Active; 'I' for Inactive)
REMARK    1  A    between atoms: C_1  and  C_2
REMARK    2  A    between atoms: C_8  and  C_9
REMARK    3  A    between atoms: C_9  and  O_11
REMARK    4  A    between atoms: O_11  and  C_12
REMARK    5  A    between atoms: C_12  and  C_13
REMARK    6  A    between atoms: C_16  and  O_17
REMARK    7  A    between atoms: O_17  and  C_18
REMARK    8  A    between atoms: C_18  and  C_19
REMARK    9  A    between atoms: C_19  and  C_20
REMARK   10  A    between atoms: C_30  and  C_31
REMARK                            x       y       z     vdW  Elec       q    Type
REMARK                         _______ _______ _______ _____ _____    ______ ____
ROOT
ATOM      1  C   UNL     1      46.939   6.051  12.741  0.00  0.00    +0.000 A 
ATOM      2  C   UNL     1      46.520   4.914  13.436  0.00  0.00    +0.000 A 
ATOM      3  C   UNL     1      45.563   4.061  12.889  0.00  0.00    +0.000 A 
ATOM      4  C   UNL     1      45.007   4.326  11.636  0.00  0.00    +0.000 A 
ATOM      5  C   UNL     1      45.428   5.458  10.933  0.00  0.00    +0.000 A 
ATOM      6  C   UNL     1      46.389   6.315  11.480  0.00  0.00    +0.000 A 
ENDROOT
BRANCH   1   7
ATOM      7  C   UNL     1      47.998   6.947  13.330  0.00  0.00    +0.000 C 
BRANCH   7   8
ATOM      8  O   UNL     1      48.766   6.214  14.292  0.00  0.00    +0.000 OA
BRANCH   8   9
ATOM      9  C   UNL     1      48.820   6.789  15.522  0.00  0.00    +0.000 C 
ATOM     10  O   UNL     1      48.730   7.986  15.752  0.00  0.00    +0.000 OA
BRANCH   9  18
ATOM     11  C   UNL     1      54.078   5.302  17.756  0.00  0.00    +0.000 C 
ATOM     12  C   UNL     1      52.594   5.130  17.649  0.00  0.00    +0.000 A 
ATOM     13  S   UNL     1      51.824   3.902  18.533  0.00  0.00    +0.000 S 
ATOM     14  C   UNL     1      50.298   4.339  17.933  0.00  0.00    +0.000 A 
ATOM     15  N   UNL     1      49.225   3.641  18.339  0.00  0.00    +0.000 NA
ATOM     16  C   UNL     1      48.086   4.074  17.815  0.00  0.00    +0.000 A 
ATOM     17  N   UNL     1      47.938   5.088  16.963  0.00  0.00    +0.000 NA
ATOM     18  C   UNL     1      49.051   5.763  16.560  0.00  0.00    +0.000 A 
ATOM     19  C   UNL     1      50.329   5.411  17.047  0.00  0.00    +0.000 A 
ATOM     20  C   UNL     1      51.708   5.883  16.887  0.00  0.00    +0.000 A 
ATOM     21  C   UNL     1      52.225   7.022  16.057  0.00  0.00    +0.000 C 
ENDBRANCH   9  18
ENDBRANCH   8   9
ENDBRANCH   7   8
ENDBRANCH   1   7
BRANCH   4  22
ATOM     22  O   UNL     1      44.058   3.555  11.012  0.00  0.00    +0.000 OA
BRANCH  22  23
ATOM     23  C   UNL     1      44.221   3.418   9.597  0.00  0.00    +0.000 C 
BRANCH  23  24
ATOM     24  C   UNL     1      44.943   2.112   9.275  0.00  0.00    +0.000 C 
BRANCH  24  25
ATOM     25  C   UNL     1      45.900   2.295   8.123  0.00  0.00    +0.000 A 
ATOM     26  C   UNL     1      46.056   3.540   7.500  0.00  0.00    +0.000 A 
ATOM     27  C   UNL     1      46.925   3.682   6.414  0.00  0.00    +0.000 A 
ATOM     28  C   UNL     1      47.640   2.583   5.936  0.00  0.00    +0.000 A 
ATOM     29  C   UNL     1      47.476   1.337   6.535  0.00  0.00    +0.000 A 
ATOM     30  C   UNL     1      46.609   1.202   7.616  0.00  0.00    +0.000 A 
ATOM     31  F   UNL     1      46.448  -0.009   8.166  0.00  0.00    +0.000 F 
ENDBRANCH  24  25
ENDBRANCH  23  24
ENDBRANCH  22  23
ENDBRANCH   4  22
TORSDOF 8
ENDMDL
MODEL 5
REMARK VINA RESULT:    -7.733      2.191      3.041
REMARK INTER + INTRA:         -12.561
REMARK INTER:                 -11.597
REMARK INTRA:                  -0.964
REMARK UNBOUND:                -1.212
REMARK  Name = 
REMARK  10 active torsions:
REMARK  status: ('A' for Active; 'I' for Inactive)
REMARK    1  A    between atoms: C_1  and  C_2
REMARK    2  A    between atoms: C_8  and  C_9
REMARK    3  A    between atoms: C_9  and  O_11
REMARK    4  A    between atoms: O_11  and  C_12
REMARK    5  A    between atoms: C_12  and  C_13
REMARK    6  A    between atoms: C_16  and  O_17
REMARK    7  A    between atoms: O_17  and  C_18
REMARK    8  A    between atoms: C_18  and  C_19
REMARK    9  A    between atoms: C_19  and  C_20
REMARK   10  A    between atoms: C_30  and  C_31
REMARK                            x       y       z     vdW  Elec       q    Type
REMARK                         _______ _______ _______ _____ _____    ______ ____
ROOT
ATOM      1  C   UNL     1      48.152   7.029  14.114  0.00  0.00    +0.000 A 
ATOM      2  C   UNL     1      47.192   6.016  14.183  0.00  0.00    +0.000 A 
ATOM      3  C   UNL     1      46.477   5.638  13.048  0.00  0.00    +0.000 A 
ATOM      4  C   UNL     1      46.707   6.263  11.821  0.00  0.00    +0.000 A 
ATOM      5  C   UNL     1      47.671   7.271  11.744  0.00  0.00    +0.000 A 
ATOM      6  C   UNL     1      48.391   7.651  12.882  0.00  0.00    +0.000 A 
ENDROOT
BRANCH   1   7
ATOM      7  C   UNL     1      48.941   7.405  15.341  0.00  0.00    +0.000 C 
BRANCH   7   8
ATOM      8  O   UNL     1      49.769   6.304  15.736  0.00  0.00    +0.000 OA
BRANCH   8   9
ATOM      9  C   UNL     1      49.463   5.780  16.952  0.00  0.00    +0.000 C 
ATOM     10  O   UNL     1      49.214   6.425  17.961  0.00  0.00    +0.000 OA
BRANCH   9  18
ATOM     11  C   UNL     1      54.015   2.463  18.719  0.00  0.00    +0.000 C 
ATOM     12  C   UNL     1      52.656   2.620  18.109  0.00  0.00    +0.000 A 
ATOM     13  S   UNL     1      51.827   1.254  17.538  0.00  0.00    +0.000 S 
ATOM     14  C   UNL     1      50.492   2.185  17.060  0.00  0.00    +0.000 A 
ATOM     15  N   UNL     1      49.444   1.561  16.496  0.00  0.00    +0.000 NA
ATOM     16  C   UNL     1      48.456   2.384  16.170  0.00  0.00    +0.000 A 
ATOM     17  N   UNL     1      48.429   3.704  16.346  0.00  0.00    +0.000 NA
ATOM     18  C   UNL     1      49.517   4.305  16.906  0.00  0.00    +0.000 A 
ATOM     19  C   UNL     1      50.638   3.546  17.307  0.00  0.00    +0.000 A 
ATOM     20  C   UNL     1      51.935   3.798  17.943  0.00  0.00    +0.000 A 
ATOM     21  C   UNL     1      52.519   5.099  18.411  0.00  0.00    +0.000 C 
ENDBRANCH   9  18
ENDBRANCH   8   9
ENDBRANCH   7   8
ENDBRANCH   1   7
BRANCH   4  22
ATOM     22  O   UNL     1      46.056   5.970  10.649  0.00  0.00    +0.000 OA
BRANCH  22  23
ATOM     23  C   UNL     1      45.258   4.783  10.678  0.00  0.00    +0.000 C 
BRANCH  23  24
ATOM     24  C   UNL     1      44.701   4.488   9.288  0.00  0.00    +0.000 C 
BRANCH  24  25
ATOM     25  C   UNL     1      45.571   3.497   8.557  0.00  0.00    +0.000 A 
ATOM     26  C   UNL     1      46.522   3.919   7.619  0.00  0.00    +0.000 A 
ATOM     27  C   UNL     1      47.299   2.983   6.930  0.00  0.00    +0.000 A 
ATOM     28  C   UNL     1      47.129   1.618   7.165  0.00  0.00    +0.000 A 
ATOM     29  C   UNL     1      46.171   1.187   8.079  0.00  0.00    +0.000 A 
ATOM     30  C   UNL     1      45.401   2.124   8.763  0.00  0.00    +0.000 A 
ATOM     31  F   UNL     1      44.471   1.690   9.623  0.00  0.00    +0.000 F 
ENDBRANCH  24  25
ENDBRANCH  23  24
ENDBRANCH  22  23
ENDBRANCH   4  22
TORSDOF 8
ENDMDL
MODEL 6
REMARK VINA RESULT:    -7.288      3.073      3.977
REMARK INTER + INTRA:         -11.908
REMARK INTER:                 -10.718
REMARK INTRA:                  -1.190
REMARK UNBOUND:                -1.212
REMARK  Name = 
REMARK  10 active torsions:
REMARK  status: ('A' for Active; 'I' for Inactive)
REMARK    1  A    between atoms: C_1  and  C_2
REMARK    2  A    between atoms: C_8  and  C_9
REMARK    3  A    between atoms: C_9  and  O_11
REMARK    4  A    between atoms: O_11  and  C_12
REMARK    5  A    between atoms: C_12  and  C_13
REMARK    6  A    between atoms: C_16  and  O_17
REMARK    7  A    between atoms: O_17  and  C_18
REMARK    8  A    between atoms: C_18  and  C_19
REMARK    9  A    between atoms: C_19  and  C_20
REMARK   10  A    between atoms: C_30  and  C_31
REMARK                            x       y       z     vdW  Elec       q    Type
REMARK                         _______ _______ _______ _____ _____    ______ ____
ROOT
ATOM      1  C   UNL     1      47.574   6.277  13.222  0.00  0.00    +0.000 A 
ATOM      2  C   UNL     1      47.089   6.772  12.008  0.00  0.00    +0.000 A 
ATOM      3  C   UNL     1      46.038   6.133  11.351  0.00  0.00    +0.000 A 
ATOM      4  C   UNL     1      45.450   4.989  11.895  0.00  0.00    +0.000 A 
ATOM      5  C   UNL     1      45.926   4.495  13.111  0.00  0.00    +0.000 A 
ATOM      6  C   UNL     1      46.980   5.135  13.773  0.00  0.00    +0.000 A 
ENDROOT
BRANCH   1   7
ATOM      7  C   UNL     1      48.688   6.996  13.937  0.00  0.00    +0.000 C 
BRANCH   7   8
ATOM      8  O   UNL     1      48.138   7.844  14.952  0.00  0.00    +0.000 OA
BRANCH   8   9
ATOM      9  C   UNL     1      49.067   8.484  15.712  0.00  0.00    +0.000 C 
ATOM     10  O   UNL     1      50.184   8.815  15.340  0.00  0.00    +0.000 OA
BRANCH   9  18
ATOM     11  C   UNL     1      48.735   4.339  19.902  0.00  0.00    +0.000 C 
ATOM     12  C   UNL     1      48.501   5.731  19.403  0.00  0.00    +0.000 A 
ATOM     13  S   UNL     1      47.720   6.862  20.400  0.00  0.00    +0.000 S 
ATOM     14  C   UNL     1      47.842   8.079  19.224  0.00  0.00    +0.000 A 
ATOM     15  N   UNL     1      47.344   9.294  19.505  0.00  0.00    +0.000 NA
ATOM     16  C   UNL     1      47.502  10.168  18.518  0.00  0.00    +0.000 A 
ATOM     17  N   UNL     1      48.078   9.941  17.339  0.00  0.00    +0.000 NA
ATOM     18  C   UNL     1      48.557   8.690  17.083  0.00  0.00    +0.000 A 
ATOM     19  C   UNL     1      48.462   7.665  18.049  0.00  0.00    +0.000 A 
ATOM     20  C   UNL     1      48.860   6.259  18.167  0.00  0.00    +0.000 A 
ATOM     21  C   UNL     1      49.575   5.394  17.170  0.00  0.00    +0.000 C 
ENDBRANCH   9  18
ENDBRANCH   8   9
ENDBRANCH   7   8
ENDBRANCH   1   7
BRANCH   4  22
ATOM     22  O   UNL     1      44.417   4.285  11.328  0.00  0.00    +0.000 OA
BRANCH  22  23
ATOM     23  C   UNL     1      44.791   3.049  10.712  0.00  0.00    +0.000 C 
BRANCH  23  24
ATOM     24  C   UNL     1      44.422   3.066   9.231  0.00  0.00    +0.000 C 
BRANCH  24  25
ATOM     25  C   UNL     1      45.562   2.558   8.385  0.00  0.00    +0.000 A 
ATOM     26  C   UNL     1      45.846   1.189   8.296  0.00  0.00    +0.000 A 
ATOM     27  C   UNL     1      46.926   0.739   7.530  0.00  0.00    +0.000 A 
ATOM     28  C   UNL     1      47.737   1.651   6.853  0.00  0.00    +0.000 A 
ATOM     29  C   UNL     1      47.476   3.015   6.952  0.00  0.00    +0.000 A 
ATOM     30  C   UNL     1      46.399   3.457   7.716  0.00  0.00    +0.000 A 
ATOM     31  F   UNL     1      46.176   4.774   7.816  0.00  0.00    +0.000 F 
ENDBRANCH  24  25
ENDBRANCH  23  24
ENDBRANCH  22  23
ENDBRANCH   4  22
TORSDOF 8
ENDMDL
MODEL 7
REMARK VINA RESULT:    -7.073      3.021      3.638
REMARK INTER + INTRA:         -11.593
REMARK INTER:                 -11.135
REMARK INTRA:                  -0.458
REMARK UNBOUND:                -1.212
REMARK  Name = 
REMARK  10 active torsions:
REMARK  status: ('A' for Active; 'I' for Inactive)
REMARK    1  A    between atoms: C_1  and  C_2
REMARK    2  A    between atoms: C_8  and  C_9
REMARK    3  A    between atoms: C_9  and  O_11
REMARK    4  A    between atoms: O_11  and  C_12
REMARK    5  A    between atoms: C_12  and  C_13
REMARK    6  A    between atoms: C_16  and  O_17
REMARK    7  A    between atoms: O_17  and  C_18
REMARK    8  A    between atoms: C_18  and  C_19
REMARK    9  A    between atoms: C_19  and  C_20
REMARK   10  A    between atoms: C_30  and  C_31
REMARK                            x       y       z     vdW  Elec       q    Type
REMARK                         _______ _______ _______ _____ _____    ______ ____
ROOT
ATOM      1  C   UNL     1      47.255   6.130  13.004  0.00  0.00    +0.000 A 
ATOM      2  C   UNL     1      46.970   6.593  11.717  0.00  0.00    +0.000 A 
ATOM      3  C   UNL     1      45.854   6.125  11.025  0.00  0.00    +0.000 A 
ATOM      4  C   UNL     1      44.999   5.186  11.608  0.00  0.00    +0.000 A 
ATOM      5  C   UNL     1      45.275   4.726  12.897  0.00  0.00    +0.000 A 
ATOM      6  C   UNL     1      46.394   5.195  13.593  0.00  0.00    +0.000 A 
ENDROOT
BRANCH   1   7
ATOM      7  C   UNL     1      48.447   6.669  13.752  0.00  0.00    +0.000 C 
BRANCH   7   8
ATOM      8  O   UNL     1      48.191   8.020  14.153  0.00  0.00    +0.000 OA
BRANCH   8   9
ATOM      9  C   UNL     1      48.723   8.358  15.357  0.00  0.00    +0.000 C 
ATOM     10  O   UNL     1      48.111   8.861  16.288  0.00  0.00    +0.000 OA
BRANCH   9  18
ATOM     11  C   UNL     1      51.302   3.894  18.232  0.00  0.00    +0.000 C 
ATOM     12  C   UNL     1      51.363   5.129  17.388  0.00  0.00    +0.000 A 
ATOM     13  S   UNL     1      52.871   5.759  16.926  0.00  0.00    +0.000 S 
ATOM     14  C   UNL     1      52.148   7.026  16.060  0.00  0.00    +0.000 A 
ATOM     15  N   UNL     1      52.942   7.909  15.432  0.00  0.00    +0.000 NA
ATOM     16  C   UNL     1      52.271   8.850  14.782  0.00  0.00    +0.000 A 
ATOM     17  N   UNL     1      50.947   8.980  14.713  0.00  0.00    +0.000 NA
ATOM     18  C   UNL     1      50.173   8.076  15.377  0.00  0.00    +0.000 A 
ATOM     19  C   UNL     1      50.757   7.016  16.104  0.00  0.00    +0.000 A 
ATOM     20  C   UNL     1      50.294   5.872  16.896  0.00  0.00    +0.000 A 
ATOM     21  C   UNL     1      48.889   5.441  17.199  0.00  0.00    +0.000 C 
ENDBRANCH   9  18
ENDBRANCH   8   9
ENDBRANCH   7   8
ENDBRANCH   1   7
BRANCH   4  22
ATOM     22  O   UNL     1      43.880   4.660  11.013  0.00  0.00    +0.000 OA
BRANCH  22  23
ATOM     23  C   UNL     1      44.114   3.523  10.176  0.00  0.00    +0.000 C 
BRANCH  23  24
ATOM     24  C   UNL     1      44.435   3.972   8.754  0.00  0.00    +0.000 C 
BRANCH  24  25
ATOM     25  C   UNL     1      45.561   3.155   8.171  0.00  0.00    +0.000 A 
ATOM     26  C   UNL     1      46.559   3.749   7.387  0.00  0.00    +0.000 A 
ATOM     27  C   UNL     1      47.577   2.970   6.831  0.00  0.00    +0.000 A 
ATOM     28  C   UNL     1      47.606   1.591   7.045  0.00  0.00    +0.000 A 
ATOM     29  C   UNL     1      46.607   0.989   7.805  0.00  0.00    +0.000 A 
ATOM     30  C   UNL     1      45.596   1.769   8.357  0.00  0.00    +0.000 A 
ATOM     31  F   UNL     1      44.632   1.169   9.068  0.00  0.00    +0.000 F 
ENDBRANCH  24  25
ENDBRANCH  23  24
ENDBRANCH  22  23
ENDBRANCH   4  22
TORSDOF 8
ENDMDL
MODEL 8
REMARK VINA RESULT:    -6.906      2.336      3.167
REMARK INTER + INTRA:         -11.347
REMARK INTER:                 -10.370
REMARK INTRA:                  -0.977
REMARK UNBOUND:                -1.212
REMARK  Name = 
REMARK  10 active torsions:
REMARK  status: ('A' for Active; 'I' for Inactive)
REMARK    1  A    between atoms: C_1  and  C_2
REMARK    2  A    between atoms: C_8  and  C_9
REMARK    3  A    between atoms: C_9  and  O_11
REMARK    4  A    between atoms: O_11  and  C_12
REMARK    5  A    between atoms: C_12  and  C_13
REMARK    6  A    between atoms: C_16  and  O_17
REMARK    7  A    between atoms: O_17  and  C_18
REMARK    8  A    between atoms: C_18  and  C_19
REMARK    9  A    between atoms: C_19  and  C_20
REMARK   10  A    between atoms: C_30  and  C_31
REMARK                            x       y       z     vdW  Elec       q    Type
REMARK                         _______ _______ _______ _____ _____    ______ ____
ROOT
ATOM      1  C   UNL     1      48.111   7.377  13.260  0.00  0.00    +0.000 A 
ATOM      2  C   UNL     1      47.122   8.349  13.085  0.00  0.00    +0.000 A 
ATOM      3  C   UNL     1      45.904   8.023  12.489  0.00  0.00    +0.000 A 
ATOM      4  C   UNL     1      45.651   6.719  12.058  0.00  0.00    +0.000 A 
ATOM      5  C   UNL     1      46.633   5.742  12.238  0.00  0.00    +0.000 A 
ATOM      6  C   UNL     1      47.854   6.067  12.837  0.00  0.00    +0.000 A 
ENDROOT
BRANCH   1   7
ATOM      7  C   UNL     1      49.409   7.737  13.935  0.00  0.00    +0.000 C 
BRANCH   7   8
ATOM      8  O   UNL     1      49.636   6.854  15.040  0.00  0.00    +0.000 OA
BRANCH   8   9
ATOM      9  C   UNL     1      48.913   7.150  16.153  0.00  0.00    +0.000 C 
ATOM     10  O   UNL     1      48.576   8.272  16.503  0.00  0.00    +0.000 OA
BRANCH   9  18
ATOM     11  C   UNL     1      49.701   6.473  21.963  0.00  0.00    +0.000 C 
ATOM     12  C   UNL     1      49.323   5.946  20.614  0.00  0.00    +0.000 A 
ATOM     13  S   UNL     1      48.882   4.315  20.440  0.00  0.00    +0.000 S 
ATOM     14  C   UNL     1      48.612   4.499  18.776  0.00  0.00    +0.000 A 
ATOM     15  N   UNL     1      48.207   3.430  18.070  0.00  0.00    +0.000 NA
ATOM     16  C   UNL     1      48.019   3.691  16.783  0.00  0.00    +0.000 A 
ATOM     17  N   UNL     1      48.194   4.863  16.174  0.00  0.00    +0.000 NA
ATOM     18  C   UNL     1      48.622   5.921  16.919  0.00  0.00    +0.000 A 
ATOM     19  C   UNL     1      48.855   5.786  18.305  0.00  0.00    +0.000 A 
ATOM     20  C   UNL     1      49.274   6.649  19.414  0.00  0.00    +0.000 A 
ATOM     21  C   UNL     1      49.619   8.109  19.395  0.00  0.00    +0.000 C 
ENDBRANCH   9  18
ENDBRANCH   8   9
ENDBRANCH   7   8
ENDBRANCH   1   7
BRANCH   4  22
ATOM     22  O   UNL     1      44.491   6.296  11.458  0.00  0.00    +0.000 OA
BRANCH  22  23
ATOM     23  C   UNL     1      44.306   4.877  11.426  0.00  0.00    +0.000 C 
BRANCH  23  24
ATOM     24  C   UNL     1      43.714   4.454  10.085  0.00  0.00    +0.000 C 
BRANCH  24  25
ATOM     25  C   UNL     1      44.751   3.768   9.230  0.00  0.00    +0.000 A 
ATOM     26  C   UNL     1      45.592   4.501   8.382  0.00  0.00    +0.000 A 
ATOM     27  C   UNL     1      46.527   3.845   7.576  0.00  0.00    +0.000 A 
ATOM     28  C   UNL     1      46.626   2.452   7.602  0.00  0.00    +0.000 A 
ATOM     29  C   UNL     1      45.780   1.715   8.426  0.00  0.00    +0.000 A 
ATOM     30  C   UNL     1      44.851   2.373   9.227  0.00  0.00    +0.000 A 
ATOM     31  F   UNL     1      44.032   1.646   9.997  0.00  0.00    +0.000 F 
ENDBRANCH  24  25
ENDBRANCH  23  24
ENDBRANCH  22  23
ENDBRANCH   4  22
TORSDOF 8
ENDMDL
MODEL 9
REMARK VINA RESULT:    -6.725      5.187      6.549
REMARK INTER + INTRA:         -11.081
REMARK INTER:                 -10.187
REMARK INTRA:                  -0.894
REMARK UNBOUND:                -1.212
REMARK  Name = 
REMARK  10 active torsions:
REMARK  status: ('A' for Active; 'I' for Inactive)
REMARK    1  A    between atoms: C_1  and  C_2
REMARK    2  A    between atoms: C_8  and  C_9
REMARK    3  A    between atoms: C_9  and  O_11
REMARK    4  A    between atoms: O_11  and  C_12
REMARK    5  A    between atoms: C_12  and  C_13
REMARK    6  A    between atoms: C_16  and  O_17
REMARK    7  A    between atoms: O_17  and  C_18
REMARK    8  A    between atoms: C_18  and  C_19
REMARK    9  A    between atoms: C_19  and  C_20
REMARK   10  A    between atoms: C_30  and  C_31
REMARK                            x       y       z     vdW  Elec       q    Type
REMARK                         _______ _______ _______ _____ _____    ______ ____
ROOT
ATOM      1  C   UNL     1      46.780   7.153  12.651  0.00  0.00    +0.000 A 
ATOM      2  C   UNL     1      45.772   7.809  11.940  0.00  0.00    +0.000 A 
ATOM      3  C   UNL     1      44.773   7.083  11.293  0.00  0.00    +0.000 A 
ATOM      4  C   UNL     1      44.760   5.688  11.345  0.00  0.00    +0.000 A 
ATOM      5  C   UNL     1      45.761   5.027  12.060  0.00  0.00    +0.000 A 
ATOM      6  C   UNL     1      46.764   5.753  12.711  0.00  0.00    +0.000 A 
ENDROOT
BRANCH   1   7
ATOM      7  C   UNL     1      47.835   7.950  13.372  0.00  0.00    +0.000 C 
BRANCH   7   8
ATOM      8  O   UNL     1      49.053   7.928  12.619  0.00  0.00    +0.000 OA
BRANCH   8   9
ATOM      9  C   UNL     1      50.082   8.605  13.195  0.00  0.00    +0.000 C 
ATOM     10  O   UNL     1      50.251   8.751  14.397  0.00  0.00    +0.000 OA
BRANCH   9  18
ATOM     11  C   UNL     1      48.559  12.904   9.447  0.00  0.00    +0.000 C 
ATOM     12  C   UNL     1      49.533  11.893   9.969  0.00  0.00    +0.000 A 
ATOM     13  S   UNL     1      51.040  11.706   9.209  0.00  0.00    +0.000 S 
ATOM     14  C   UNL     1      51.512  10.497  10.301  0.00  0.00    +0.000 A 
ATOM     15  N   UNL     1      52.727   9.943  10.159  0.00  0.00    +0.000 NA
ATOM     16  C   UNL     1      52.993   9.017  11.071  0.00  0.00    +0.000 A 
ATOM     17  N   UNL     1      52.191   8.616  12.055  0.00  0.00    +0.000 NA
ATOM     18  C   UNL     1      50.958   9.189  12.159  0.00  0.00    +0.000 A 
ATOM     19  C   UNL     1      50.547  10.194  11.257  0.00  0.00    +0.000 A 
ATOM     20  C   UNL     1      49.367  11.040  11.055  0.00  0.00    +0.000 A 
ATOM     21  C   UNL     1      48.094  11.089  11.849  0.00  0.00    +0.000 C 
ENDBRANCH   9  18
ENDBRANCH   8   9
ENDBRANCH   7   8
ENDBRANCH   1   7
BRANCH   4  22
ATOM     22  O   UNL     1      43.828   4.882  10.741  0.00  0.00    +0.000 OA
BRANCH  22  23
ATOM     23  C   UNL     1      44.347   3.684  10.157  0.00  0.00    +0.000 C 
BRANCH  23  24
ATOM     24  C   UNL     1      44.433   3.831   8.641  0.00  0.00    +0.000 C 
BRANCH  24  25
ATOM     25  C   UNL     1      45.603   3.055   8.089  0.00  0.00    +0.000 A 
ATOM     26  C   UNL     1      46.610   3.689   7.350  0.00  0.00    +0.000 A 
ATOM     27  C   UNL     1      47.671   2.948   6.821  0.00  0.00    +0.000 A 
ATOM     28  C   UNL     1      47.733   1.567   7.018  0.00  0.00    +0.000 A 
ATOM     29  C   UNL     1      46.725   0.925   7.733  0.00  0.00    +0.000 A 
ATOM     30  C   UNL     1      45.672   1.668   8.257  0.00  0.00    +0.000 A 
ATOM     31  F   UNL     1      44.701   1.030   8.925  0.00  0.00    +0.000 F 
ENDBRANCH  24  25
ENDBRANCH  23  24
ENDBRANCH  22  23
ENDBRANCH   4  22
TORSDOF 8
ENDMDL
