MODEL 1
REMARK VINA RESULT:    -8.109      0.000      0.000
REMARK INTER + INTRA:         -12.743
REMARK INTER:                 -11.428
REMARK INTRA:                  -1.315
REMARK UNBOUND:                -1.315
REMARK  Name = 
REMARK  8 active torsions:
REMARK  status: ('A' for Active; 'I' for Inactive)
REMARK    1  A    between atoms: C_1  and  N_2
REMARK    2  A    between atoms: C_4  and  C_5
REMARK    3  A    between atoms: N_7  and  C_8
REMARK    4  A    between atoms: C_8  and  C_9
REMARK    5  A    between atoms: C_12  and  C_13
REMARK    6  A    between atoms: C_13  and  C_14
REMARK    7  A    between atoms: C_14  and  N_15
REMARK    8  A    between atoms: N_15  and  C_16
REMARK                            x       y       z     vdW  Elec       q    Type
REMARK                         _______ _______ _______ _____ _____    ______ ____
ROOT
ATOM      1  C   UNL     1      47.082   8.211  13.038  0.00  0.00    +0.000 C 
ENDROOT
BRANCH   1   2
ATOM      2  C   UNL     1      46.221   7.177  12.379  0.00  0.00    +0.000 A 
ATOM      3  C   UNL     1      44.968   6.867  12.913  0.00  0.00    +0.000 A 
ATOM      4  C   UNL     1      44.139   5.940  12.280  0.00  0.00    +0.000 A 
ATOM      5  C   UNL     1      44.549   5.296  11.102  0.00  0.00    +0.000 A 
ATOM      6  C   UNL     1      45.811   5.602  10.578  0.00  0.00    +0.000 A 
ATOM      7  C   UNL     1      46.642   6.529  11.212  0.00  0.00    +0.000 A 
BRANCH   5   8
ATOM      8  C   UNL     1      43.694   4.288  10.358  0.00  0.00    +0.000 C 
BRANCH   8   9
ATOM      9  C   UNL     1      44.299   2.889  10.267  0.00  0.00    +0.000 C 
BRANCH   9  10
ATOM     10  N   UNL     1      44.234   2.355   8.908  0.00  0.00    +0.000 N 
ATOM     11  H   UNL     1      43.491   2.781   8.356  0.00  0.00    +0.000 HD
BRANCH  10  12
ATOM     12  C   UNL     1      45.452   2.363   8.200  0.00  0.00    +0.000 A 
ATOM     13  C   UNL     1      46.248   1.218   8.041  0.00  0.00    +0.000 A 
ATOM     14  C   UNL     1      47.420   1.243   7.287  0.00  0.00    +0.000 A 
ATOM     15  C   UNL     1      47.804   2.415   6.646  0.00  0.00    +0.000 A 
ATOM     16  C   UNL     1      47.009   3.553   6.754  0.00  0.00    +0.000 A 
ATOM     17  C   UNL     1      45.834   3.520   7.513  0.00  0.00    +0.000 A 
ENDBRANCH  10  12
ENDBRANCH   9  10
ENDBRANCH   8   9
ENDBRANCH   5   8
ENDBRANCH   1   2
BRANCH   1  20
ATOM     18  C   UNL     1      48.770   7.191  14.449  0.00  0.00    +0.000 C 
ATOM     19  O   UNL     1      49.459   6.970  13.462  0.00  0.00    +0.000 OA
ATOM     20  N   UNL     1      47.547   7.817  14.340  0.00  0.00    +0.000 N 
ATOM     21  H   UNL     1      47.010   7.980  15.185  0.00  0.00    +0.000 HD
BRANCH  18  25
ATOM     22  C   UNL     1      51.086   7.433  18.703  0.00  0.00    +0.000 C 
ATOM     23  N   UNL     1      50.193   6.936  17.684  0.00  0.00    +0.000 N 
ATOM     24  N   UNL     1      50.079   7.565  16.495  0.00  0.00    +0.000 NA
ATOM     25  C   UNL     1      49.170   6.821  15.818  0.00  0.00    +0.000 A 
ATOM     26  C   UNL     1      48.713   5.713  16.602  0.00  0.00    +0.000 A 
ATOM     27  C   UNL     1      47.855   4.623  16.549  0.00  0.00    +0.000 A 
ATOM     28 CL   UNL     1      46.914   4.269  15.189  0.00  0.00    +0.000 Cl
ATOM     29  N   UNL     1      47.720   3.772  17.584  0.00  0.00    +0.000 NA
ATOM     30  C   UNL     1      48.451   4.017  18.678  0.00  0.00    +0.000 A 
ATOM     31  N   UNL     1      49.318   5.022  18.871  0.00  0.00    +0.000 NA
ATOM     32  C   UNL     1      49.402   5.831  17.799  0.00  0.00    +0.000 A 
ENDBRANCH  18  25
ENDBRANCH   1  20
TORSDOF 7
ENDMDL
MODEL 2
REMARK VINA RESULT:    -7.971      1.640      1.870
REMARK INTER + INTRA:         -12.548
REMARK INTER:                 -11.516
REMARK INTRA:                  -1.032
REMARK UNBOUND:                -1.315
REMARK  Name = 
REMARK  8 active torsions:
REMARK  status: ('A' for Active; 'I' for Inactive)
REMARK    1  A    between atoms: C_1  and  N_2
REMARK    2  A    between atoms: C_4  and  C_5
REMARK    3  A    between atoms: N_7  and  C_8
REMARK    4  A    between atoms: C_8  and  C_9
REMARK    5  A    between atoms: C_12  and  C_13
REMARK    6  A    between atoms: C_13  and  C_14
REMARK    7  A    between atoms: C_14  and  N_15
REMARK    8  A    between atoms: N_15  and  C_16
REMARK                            x       y       z     vdW  Elec       q    Type
REMARK                         _______ _______ _______ _____ _____    ______ ____
ROOT
ATOM      1  C   UNL     1      48.014   7.122  13.467  0.00  0.00    +0.000 C 
ENDROOT
BRANCH   1   2
ATOM      2  C   UNL     1      46.952   6.232  12.894  0.00  0.00    +0.000 A 
ATOM      3  C   UNL     1      46.487   6.447  11.595  0.00  0.00    +0.000 A 
ATOM      4  C   UNL     1      45.534   5.595  11.035  0.00  0.00    +0.000 A 
ATOM      5  C   UNL     1      45.018   4.514  11.766  0.00  0.00    +0.000 A 
ATOM      6  C   UNL     1      45.480   4.312  13.074  0.00  0.00    +0.000 A 
ATOM      7  C   UNL     1      46.433   5.165  13.635  0.00  0.00    +0.000 A 
BRANCH   5   8
ATOM      8  C   UNL     1      43.990   3.545  11.216  0.00  0.00    +0.000 C 
BRANCH   8   9
ATOM      9  C   UNL     1      44.155   3.222   9.732  0.00  0.00    +0.000 C 
BRANCH   9  10
ATOM     10  N   UNL     1      45.071   2.104   9.517  0.00  0.00    +0.000 N 
ATOM     11  H   UNL     1      44.600   1.201   9.547  0.00  0.00    +0.000 HD
BRANCH  10  12
ATOM     12  C   UNL     1      45.886   2.207   8.373  0.00  0.00    +0.000 A 
ATOM     13  C   UNL     1      46.634   1.131   7.870  0.00  0.00    +0.000 A 
ATOM     14  C   UNL     1      47.386   1.248   6.702  0.00  0.00    +0.000 A 
ATOM     15  C   UNL     1      47.380   2.442   5.992  0.00  0.00    +0.000 A 
ATOM     16  C   UNL     1      46.612   3.511   6.448  0.00  0.00    +0.000 A 
ATOM     17  C   UNL     1      45.860   3.387   7.621  0.00  0.00    +0.000 A 
ENDBRANCH  10  12
ENDBRANCH   9  10
ENDBRANCH   8   9
ENDBRANCH   5   8
ENDBRANCH   1   2
BRANCH   1  20
ATOM     18  C   UNL     1      48.943   7.010  15.705  0.00  0.00    +0.000 C 
ATOM     19  O   UNL     1      49.988   6.568  15.247  0.00  0.00    +0.000 OA
ATOM     20  N   UNL     1      47.880   7.323  14.885  0.00  0.00    +0.000 N 
ATOM     21  H   UNL     1      47.034   7.688  15.308  0.00  0.00    +0.000 HD
BRANCH  18  25
ATOM     22  C   UNL     1      48.157   9.463  19.814  0.00  0.00    +0.000 C 
ATOM     23  N   UNL     1      48.377   8.334  18.943  0.00  0.00    +0.000 N 
ATOM     24  N   UNL     1      48.544   8.505  17.615  0.00  0.00    +0.000 NA
ATOM     25  C   UNL     1      48.722   7.246  17.142  0.00  0.00    +0.000 A 
ATOM     26  C   UNL     1      48.662   6.280  18.197  0.00  0.00    +0.000 A 
ATOM     27  C   UNL     1      48.755   4.914  18.428  0.00  0.00    +0.000 A 
ATOM     28 CL   UNL     1      49.034   3.797  17.188  0.00  0.00    +0.000 Cl
ATOM     29  N   UNL     1      48.630   4.390  19.662  0.00  0.00    +0.000 NA
ATOM     30  C   UNL     1      48.411   5.242  20.670  0.00  0.00    +0.000 A 
ATOM     31  N   UNL     1      48.302   6.577  20.601  0.00  0.00    +0.000 NA
ATOM     32  C   UNL     1      48.436   7.030  19.341  0.00  0.00    +0.000 A 
ENDBRANCH  18  25
ENDBRANCH   1  20
TORSDOF 7
ENDMDL
MODEL 3
REMARK VINA RESULT:    -7.892      2.231      2.993
REMARK INTER + INTRA:         -12.436
REMARK INTER:                 -11.565
REMARK INTRA:                  -0.872
REMARK UNBOUND:                -1.315
REMARK  Name = 
REMARK  8 active torsions:
REMARK  status: ('A' for Active; 'I' for Inactive)
REMARK    1  A    between atoms: C_1  and  N_2
REMARK    2  A    between atoms: C_4  and  C_5
REMARK    3  A    between atoms: N_7  and  C_8
REMARK    4  A    between atoms: C_8  and  C_9
REMARK    5  A    between atoms: C_12  and  C_13
REMARK    6  A    between atoms: C_13  and  C_14
REMARK    7  A    between atoms: C_14  and  N_15
REMARK    8  A    between atoms: N_15  and  C_16
REMARK                            x       y       z     vdW  Elec       q    Type
REMARK                         _______ _______ _______ _____ _____    ______ ____
ROOT
ATOM      1  C   UNL     1      48.370   6.372  14.162  0.00  0.00    +0.000 C 
ENDROOT
BRANCH   1   2
ATOM      2  C   UNL     1      47.162   6.072  13.327  0.00  0.00    +0.000 A 
ATOM      3  C   UNL     1      46.918   6.802  12.163  0.00  0.00    +0.000 A 
ATOM      4  C   UNL     1      45.823   6.498  11.354  0.00  0.00    +0.000 A 
ATOM      5  C   UNL     1      44.941   5.461  11.697  0.00  0.00    +0.000 A 
ATOM      6  C   UNL     1      45.185   4.740  12.873  0.00  0.00    +0.000 A 
ATOM      7  C   UNL     1      46.281   5.045  13.684  0.00  0.00    +0.000 A 
BRANCH   5   8
ATOM      8  C   UNL     1      43.740   5.072  10.859  0.00  0.00    +0.000 C 
BRANCH   8   9
ATOM      9  C   UNL     1      43.936   3.814  10.014  0.00  0.00    +0.000 C 
BRANCH   9  10
ATOM     10  N   UNL     1      44.317   4.135   8.640  0.00  0.00    +0.000 N 
ATOM     11  H   UNL     1      44.571   5.115   8.524  0.00  0.00    +0.000 HD
BRANCH  10  12
ATOM     12  C   UNL     1      45.295   3.292   8.077  0.00  0.00    +0.000 A 
ATOM     13  C   UNL     1      46.250   3.744   7.152  0.00  0.00    +0.000 A 
ATOM     14  C   UNL     1      47.241   2.899   6.655  0.00  0.00    +0.000 A 
ATOM     15  C   UNL     1      47.318   1.586   7.101  0.00  0.00    +0.000 A 
ATOM     16  C   UNL     1      46.408   1.125   8.050  0.00  0.00    +0.000 A 
ATOM     17  C   UNL     1      45.415   1.979   8.544  0.00  0.00    +0.000 A 
ENDBRANCH  10  12
ENDBRANCH   9  10
ENDBRANCH   8   9
ENDBRANCH   5   8
ENDBRANCH   1   2
BRANCH   1  20
ATOM     18  C   UNL     1      49.150   6.286  16.458  0.00  0.00    +0.000 C 
ATOM     19  O   UNL     1      50.304   6.194  16.060  0.00  0.00    +0.000 OA
ATOM     20  N   UNL     1      48.096   6.381  15.574  0.00  0.00    +0.000 N 
ATOM     21  H   UNL     1      47.157   6.456  15.948  0.00  0.00    +0.000 HD
BRANCH  18  25
ATOM     22  C   UNL     1      48.547   4.667  20.989  0.00  0.00    +0.000 C 
ATOM     23  N   UNL     1      48.521   5.581  19.873  0.00  0.00    +0.000 N 
ATOM     24  N   UNL     1      48.961   5.201  18.655  0.00  0.00    +0.000 NA
ATOM     25  C   UNL     1      48.782   6.303  17.884  0.00  0.00    +0.000 A 
ATOM     26  C   UNL     1      48.222   7.383  18.639  0.00  0.00    +0.000 A 
ATOM     27  C   UNL     1      47.803   8.700  18.508  0.00  0.00    +0.000 A 
ATOM     28 CL   UNL     1      47.882   9.539  17.041  0.00  0.00    +0.000 Cl
ATOM     29  N   UNL     1      47.302   9.395  19.546  0.00  0.00    +0.000 NA
ATOM     30  C   UNL     1      47.221   8.764  20.723  0.00  0.00    +0.000 A 
ATOM     31  N   UNL     1      47.581   7.502  20.999  0.00  0.00    +0.000 NA
ATOM     32  C   UNL     1      48.072   6.869  19.917  0.00  0.00    +0.000 A 
ENDBRANCH  18  25
ENDBRANCH   1  20
TORSDOF 7
ENDMDL
MODEL 4
REMARK VINA RESULT:    -7.590      1.688      1.775
REMARK INTER + INTRA:         -12.011
REMARK INTER:                 -10.911
REMARK INTRA:                  -1.100
REMARK UNBOUND:                -1.315
REMARK  Name = 
REMARK  8 active torsions:
REMARK  status: ('A' for Active; 'I' for Inactive)
REMARK    1  A    between atoms: C_1  and  N_2
REMARK    2  A    between atoms: C_4  and  C_5
REMARK    3  A    between atoms: N_7  and  C_8
REMARK    4  A    between atoms: C_8  and  C_9
REMARK    5  A    between atoms: C_12  and  C_13
REMARK    6  A    between atoms: C_13  and  C_14
REMARK    7  A    between atoms: C_14  and  N_15
REMARK    8  A    between atoms: N_15  and  C_16
REMARK                            x       y       z     vdW  Elec       q    Type
REMARK                         _______ _______ _______ _____ _____    ______ ____
ROOT
ATOM      1  C   UNL     1      47.554   7.428  13.426  0.00  0.00    +0.000 C 
ENDROOT
BRANCH   1   2
ATOM      2  C   UNL     1      46.664   6.358  12.871  0.00  0.00    +0.000 A 
ATOM      3  C   UNL     1      46.596   5.111  13.496  0.00  0.00    +0.000 A 
ATOM      4  C   UNL     1      45.735   4.125  13.015  0.00  0.00    +0.000 A 
ATOM      5  C   UNL     1      44.928   4.361  11.892  0.00  0.00    +0.000 A 
ATOM      6  C   UNL     1      45.010   5.610  11.261  0.00  0.00    +0.000 A 
ATOM      7  C   UNL     1      45.873   6.597  11.742  0.00  0.00    +0.000 A 
BRANCH   5   8
ATOM      8  C   UNL     1      43.963   3.338  11.324  0.00  0.00    +0.000 C 
BRANCH   8   9
ATOM      9  C   UNL     1      44.059   3.148   9.811  0.00  0.00    +0.000 C 
BRANCH   9  10
ATOM     10  N   UNL     1      44.831   1.958   9.461  0.00  0.00    +0.000 N 
ATOM     11  H   UNL     1      44.240   1.148   9.280  0.00  0.00    +0.000 HD
BRANCH  10  12
ATOM     12  C   UNL     1      45.771   2.135   8.427  0.00  0.00    +0.000 A 
ATOM     13  C   UNL     1      46.573   1.092   7.938  0.00  0.00    +0.000 A 
ATOM     14  C   UNL     1      47.454   1.285   6.875  0.00  0.00    +0.000 A 
ATOM     15  C   UNL     1      47.526   2.526   6.254  0.00  0.00    +0.000 A 
ATOM     16  C   UNL     1      46.710   3.566   6.693  0.00  0.00    +0.000 A 
ATOM     17  C   UNL     1      45.828   3.365   7.761  0.00  0.00    +0.000 A 
ENDBRANCH  10  12
ENDBRANCH   9  10
ENDBRANCH   8   9
ENDBRANCH   5   8
ENDBRANCH   1   2
BRANCH   1  20
ATOM     18  C   UNL     1      49.167   7.611  15.229  0.00  0.00    +0.000 C 
ATOM     19  O   UNL     1      48.648   8.660  15.585  0.00  0.00    +0.000 OA
ATOM     20  N   UNL     1      48.687   6.909  14.144  0.00  0.00    +0.000 N 
ATOM     21  H   UNL     1      49.149   6.044  13.885  0.00  0.00    +0.000 HD
BRANCH  18  25
ATOM     22  C   UNL     1      53.768   7.020  16.643  0.00  0.00    +0.000 C 
ATOM     23  N   UNL     1      52.355   6.759  16.522  0.00  0.00    +0.000 N 
ATOM     24  N   UNL     1      51.561   7.563  15.783  0.00  0.00    +0.000 NA
ATOM     25  C   UNL     1      50.329   7.009  15.906  0.00  0.00    +0.000 A 
ATOM     26  C   UNL     1      50.361   5.843  16.736  0.00  0.00    +0.000 A 
ATOM     27  C   UNL     1      49.537   4.852  17.253  0.00  0.00    +0.000 A 
ATOM     28 CL   UNL     1      47.878   4.786  16.929  0.00  0.00    +0.000 Cl
ATOM     29  N   UNL     1      50.012   3.873  18.047  0.00  0.00    +0.000 NA
ATOM     30  C   UNL     1      51.321   3.890  18.323  0.00  0.00    +0.000 A 
ATOM     31  N   UNL     1      52.234   4.775  17.897  0.00  0.00    +0.000 NA
ATOM     32  C   UNL     1      51.690   5.722  17.111  0.00  0.00    +0.000 A 
ENDBRANCH  18  25
ENDBRANCH   1  20
TORSDOF 7
ENDMDL
MODEL 5
REMARK VINA RESULT:    -7.254      2.194      3.123
REMARK INTER + INTRA:         -11.538
REMARK INTER:                 -10.630
REMARK INTRA:                  -0.908
REMARK UNBOUND:                -1.315
REMARK  Name = 
REMARK  8 active torsions:
REMARK  status: ('A' for Active; 'I' for Inactive)
REMARK    1  A    between atoms: C_1  and  N_2
REMARK    2  A    between atoms: C_4  and  C_5
REMARK    3  A    between atoms: N_7  and  C_8
REMARK    4  A    between atoms: C_8  and  C_9
REMARK    5  A    between atoms: C_12  and  C_13
REMARK    6  A    between atoms: C_13  and  C_14
REMARK    7  A    between atoms: C_14  and  N_15
REMARK    8  A    between atoms: N_15  and  C_16
REMARK                            x       y       z     vdW  Elec       q    Type
REMARK                         _______ _______ _______ _____ _____    ______ ____
ROOT
ATOM      1  C   UNL     1      47.392   4.162  14.934  0.00  0.00    +0.000 C 
ENDROOT
BRANCH   1   2
ATOM      2  C   UNL     1      46.394   4.310  13.825  0.00  0.00    +0.000 A 
ATOM      3  C   UNL     1      45.886   5.571  13.506  0.00  0.00    +0.000 A 
ATOM      4  C   UNL     1      44.994   5.726  12.445  0.00  0.00    +0.000 A 
ATOM      5  C   UNL     1      44.582   4.620  11.684  0.00  0.00    +0.000 A 
ATOM      6  C   UNL     1      45.085   3.356  12.018  0.00  0.00    +0.000 A 
ATOM      7  C   UNL     1      45.978   3.201  13.081  0.00  0.00    +0.000 A 
BRANCH   5   8
ATOM      8  C   UNL     1      43.624   4.720  10.513  0.00  0.00    +0.000 C 
BRANCH   8   9
ATOM      9  C   UNL     1      44.270   4.501   9.146  0.00  0.00    +0.000 C 
BRANCH   9  10
ATOM     10  N   UNL     1      44.275   3.090   8.765  0.00  0.00    +0.000 N 
ATOM     11  H   UNL     1      43.454   2.830   8.221  0.00  0.00    +0.000 HD
BRANCH  10  12
ATOM     12  C   UNL     1      45.455   2.641   8.142  0.00  0.00    +0.000 A 
ATOM     13  C   UNL     1      45.901   1.312   8.222  0.00  0.00    +0.000 A 
ATOM     14  C   UNL     1      47.043   0.884   7.546  0.00  0.00    +0.000 A 
ATOM     15  C   UNL     1      47.747   1.774   6.746  0.00  0.00    +0.000 A 
ATOM     16  C   UNL     1      47.301   3.087   6.617  0.00  0.00    +0.000 A 
ATOM     17  C   UNL     1      46.155   3.511   7.298  0.00  0.00    +0.000 A 
ENDBRANCH  10  12
ENDBRANCH   9  10
ENDBRANCH   8   9
ENDBRANCH   5   8
ENDBRANCH   1   2
BRANCH   1  20
ATOM     18  C   UNL     1      48.620   5.455  16.578  0.00  0.00    +0.000 C 
ATOM     19  O   UNL     1      49.444   4.555  16.667  0.00  0.00    +0.000 OA
ATOM     20  N   UNL     1      47.541   5.353  15.726  0.00  0.00    +0.000 N 
ATOM     21  H   UNL     1      46.883   6.123  15.684  0.00  0.00    +0.000 HD
BRANCH  18  25
ATOM     22  C   UNL     1      48.847   8.368  20.448  0.00  0.00    +0.000 C 
ATOM     23  N   UNL     1      48.796   7.977  19.060  0.00  0.00    +0.000 N 
ATOM     24  N   UNL     1      48.729   6.676  18.707  0.00  0.00    +0.000 NA
ATOM     25  C   UNL     1      48.697   6.706  17.352  0.00  0.00    +0.000 A 
ATOM     26  C   UNL     1      48.748   8.049  16.858  0.00  0.00    +0.000 A 
ATOM     27  C   UNL     1      48.750   8.773  15.673  0.00  0.00    +0.000 A 
ATOM     28 CL   UNL     1      48.671   8.035  14.153  0.00  0.00    +0.000 Cl
ATOM     29  N   UNL     1      48.812  10.118  15.660  0.00  0.00    +0.000 NA
ATOM     30  C   UNL     1      48.872  10.739  16.844  0.00  0.00    +0.000 A 
ATOM     31  N   UNL     1      48.875  10.177  18.062  0.00  0.00    +0.000 NA
ATOM     32  C   UNL     1      48.812   8.834  17.998  0.00  0.00    +0.000 A 
ENDBRANCH  18  25
ENDBRANCH   1  20
TORSDOF 7
ENDMDL
MODEL 6
REMARK VINA RESULT:    -7.208      2.507      3.200
REMARK INTER + INTRA:         -11.473
REMARK INTER:                 -10.634
REMARK INTRA:                  -0.839
REMARK UNBOUND:                -1.315
REMARK  Name = 
REMARK  8 active torsions:
REMARK  status: ('A' for Active; 'I' for Inactive)
REMARK    1  A    between atoms: C_1  and  N_2
REMARK    2  A    between atoms: C_4  and  C_5
REMARK    3  A    between atoms: N_7  and  C_8
REMARK    4  A    between atoms: C_8  and  C_9
REMARK    5  A    between atoms: C_12  and  C_13
REMARK    6  A    between atoms: C_13  and  C_14
REMARK    7  A    between atoms: C_14  and  N_15
REMARK    8  A    between atoms: N_15  and  C_16
REMARK                            x       y       z     vdW  Elec       q    Type
REMARK                         _______ _______ _______ _____ _____    ______ ____
ROOT
ATOM      1  C   UNL     1      47.427   4.221  15.590  0.00  0.00    +0.000 C 
ENDROOT
BRANCH   1   2
ATOM      2  C   UNL     1      46.862   4.488  14.228  0.00  0.00    +0.000 A 
ATOM      3  C   UNL     1      46.247   3.458  13.512  0.00  0.00    +0.000 A 
ATOM      4  C   UNL     1      45.676   3.708  12.264  0.00  0.00    +0.000 A 
ATOM      5  C   UNL     1      45.713   4.992  11.700  0.00  0.00    +0.000 A 
ATOM      6  C   UNL     1      46.342   6.018  12.417  0.00  0.00    +0.000 A 
ATOM      7  C   UNL     1      46.916   5.768  13.666  0.00  0.00    +0.000 A 
BRANCH   5   8
ATOM      8  C   UNL     1      45.103   5.334  10.355  0.00  0.00    +0.000 C 
BRANCH   8   9
ATOM      9  C   UNL     1      44.084   4.318   9.844  0.00  0.00    +0.000 C 
BRANCH   9  10
ATOM     10  N   UNL     1      44.220   4.084   8.408  0.00  0.00    +0.000 N 
ATOM     11  H   UNL     1      44.230   4.949   7.871  0.00  0.00    +0.000 HD
BRANCH  10  12
ATOM     12  C   UNL     1      45.290   3.248   8.035  0.00  0.00    +0.000 A 
ATOM     13  C   UNL     1      45.402   1.916   8.463  0.00  0.00    +0.000 A 
ATOM     14  C   UNL     1      46.443   1.095   8.030  0.00  0.00    +0.000 A 
ATOM     15  C   UNL     1      47.380   1.584   7.129  0.00  0.00    +0.000 A 
ATOM     16  C   UNL     1      47.267   2.890   6.656  0.00  0.00    +0.000 A 
ATOM     17  C   UNL     1      46.220   3.708   7.095  0.00  0.00    +0.000 A 
ENDBRANCH  10  12
ENDBRANCH   9  10
ENDBRANCH   8   9
ENDBRANCH   5   8
ENDBRANCH   1   2
BRANCH   1  20
ATOM     18  C   UNL     1      48.500   5.365  17.441  0.00  0.00    +0.000 C 
ATOM     19  O   UNL     1      49.057   4.323  17.759  0.00  0.00    +0.000 OA
ATOM     20  N   UNL     1      47.652   5.418  16.355  0.00  0.00    +0.000 N 
ATOM     21  H   UNL     1      47.212   6.303  16.128  0.00  0.00    +0.000 HD
BRANCH  18  25
ATOM     22  C   UNL     1      49.027  10.133  18.150  0.00  0.00    +0.000 C 
ATOM     23  N   UNL     1      48.906   8.731  18.469  0.00  0.00    +0.000 N 
ATOM     24  N   UNL     1      48.749   7.809  17.496  0.00  0.00    +0.000 NA
ATOM     25  C   UNL     1      48.674   6.633  18.169  0.00  0.00    +0.000 A 
ATOM     26  C   UNL     1      48.786   6.833  19.582  0.00  0.00    +0.000 A 
ATOM     27  C   UNL     1      48.797   6.134  20.782  0.00  0.00    +0.000 A 
ATOM     28 CL   UNL     1      48.640   4.452  20.859  0.00  0.00    +0.000 Cl
ATOM     29  N   UNL     1      48.936   6.757  21.968  0.00  0.00    +0.000 NA
ATOM     30  C   UNL     1      49.066   8.089  21.948  0.00  0.00    +0.000 A 
ATOM     31  N   UNL     1      49.077   8.892  20.874  0.00  0.00    +0.000 NA
ATOM     32  C   UNL     1      48.933   8.203  19.727  0.00  0.00    +0.000 A 
ENDBRANCH  18  25
ENDBRANCH   1  20
TORSDOF 7
ENDMDL
MODEL 7
REMARK VINA RESULT:    -7.101      2.689      3.303
REMARK INTER + INTRA:         -11.322
REMARK INTER:                 -10.487
REMARK INTRA:                  -0.835
REMARK UNBOUND:                -1.315
REMARK  Name = 
REMARK  8 active torsions:
REMARK  status: ('A' for Active; 'I' for Inactive)
REMARK    1  A    between atoms: C_1  and  N_2
REMARK    2  A    between atoms: C_4  and  C_5
REMARK    3  A    between atoms: N_7  and  C_8
REMARK    4  A    between atoms: C_8  and  C_9
REMARK    5  A    between atoms: C_12  and  C_13
REMARK    6  A    between atoms: C_13  and  C_14
REMARK    7  A    between atoms: C_14  and  N_15
REMARK    8  A    between atoms: N_15  and  C_16
REMARK                            x       y       z     vdW  Elec       q    Type
REMARK                         _______ _______ _______ _____ _____    ______ ____
ROOT
ATOM      1  C   UNL     1      48.093   5.742  14.256  0.00  0.00    +0.000 C 
ENDROOT
BRANCH   1   2
ATOM      2  C   UNL     1      46.983   5.446  13.293  0.00  0.00    +0.000 A 
ATOM      3  C   UNL     1      46.278   4.245  13.387  0.00  0.00    +0.000 A 
ATOM      4  C   UNL     1      45.212   3.981  12.527  0.00  0.00    +0.000 A 
ATOM      5  C   UNL     1      44.832   4.911  11.547  0.00  0.00    +0.000 A 
ATOM      6  C   UNL     1      45.552   6.109  11.449  0.00  0.00    +0.000 A 
ATOM      7  C   UNL     1      46.620   6.373  12.309  0.00  0.00    +0.000 A 
BRANCH   5   8
ATOM      8  C   UNL     1      43.678   4.692  10.588  0.00  0.00    +0.000 C 
BRANCH   8   9
ATOM      9  C   UNL     1      44.092   4.226   9.193  0.00  0.00    +0.000 C 
BRANCH   9  10
ATOM     10  N   UNL     1      44.618   2.862   9.209  0.00  0.00    +0.000 N 
ATOM     11  H   UNL     1      43.881   2.159   9.219  0.00  0.00    +0.000 HD
BRANCH  10  12
ATOM     12  C   UNL     1      45.573   2.576   8.214  0.00  0.00    +0.000 A 
ATOM     13  C   UNL     1      46.015   3.530   7.284  0.00  0.00    +0.000 A 
ATOM     14  C   UNL     1      47.004   3.232   6.347  0.00  0.00    +0.000 A 
ATOM     15  C   UNL     1      47.597   1.976   6.344  0.00  0.00    +0.000 A 
ATOM     16  C   UNL     1      47.207   1.026   7.284  0.00  0.00    +0.000 A 
ATOM     17  C   UNL     1      46.213   1.331   8.221  0.00  0.00    +0.000 A 
ENDBRANCH  10  12
ENDBRANCH   9  10
ENDBRANCH   8   9
ENDBRANCH   5   8
ENDBRANCH   1   2
BRANCH   1  20
ATOM     18  C   UNL     1      48.850   7.365  15.892  0.00  0.00    +0.000 C 
ATOM     19  O   UNL     1      49.728   6.591  16.250  0.00  0.00    +0.000 OA
ATOM     20  N   UNL     1      47.969   7.029  14.887  0.00  0.00    +0.000 N 
ATOM     21  H   UNL     1      47.257   7.701  14.623  0.00  0.00    +0.000 HD
BRANCH  18  25
ATOM     22  C   UNL     1      48.971  12.196  16.290  0.00  0.00    +0.000 C 
ATOM     23  N   UNL     1      48.711  10.824  16.650  0.00  0.00    +0.000 N 
ATOM     24  N   UNL     1      49.041   9.814  15.817  0.00  0.00    +0.000 NA
ATOM     25  C   UNL     1      48.653   8.699  16.485  0.00  0.00    +0.000 A 
ATOM     26  C   UNL     1      48.071   9.026  17.752  0.00  0.00    +0.000 A 
ATOM     27  C   UNL     1      47.503   8.435  18.873  0.00  0.00    +0.000 A 
ATOM     28 CL   UNL     1      47.330   6.760  19.032  0.00  0.00    +0.000 Cl
ATOM     29  N   UNL     1      47.055   9.164  19.913  0.00  0.00    +0.000 NA
ATOM     30  C   UNL     1      47.178  10.494  19.826  0.00  0.00    +0.000 A 
ATOM     31  N   UNL     1      47.704  11.200  18.814  0.00  0.00    +0.000 NA
ATOM     32  C   UNL     1      48.130  10.409  17.813  0.00  0.00    +0.000 A 
ENDBRANCH  18  25
ENDBRANCH   1  20
TORSDOF 7
ENDMDL
MODEL 8
REMARK VINA RESULT:    -6.753      2.817      3.936
REMARK INTER + INTRA:         -10.832
REMARK INTER:                  -9.959
REMARK INTRA:                  -0.873
REMARK UNBOUND:                -1.315
REMARK  Name = 
REMARK  8 active torsions:
REMARK  status: ('A' for Active; 'I' for Inactive)
REMARK    1  A    between atoms: C_1  and  N_2
REMARK    2  A    between atoms: C_4  and  C_5
REMARK    3  A    between atoms: N_7  and  C_8
REMARK    4  A    between atoms: C_8  and  C_9
REMARK    5  A    between atoms: C_12  and  C_13
REMARK    6  A    between atoms: C_13  and  C_14
REMARK    7  A    between atoms: C_14  and  N_15
REMARK    8  A    between atoms: N_15  and  C_16
REMARK                            x       y       z     vdW  Elec       q    Type
REMARK                         _______ _______ _______ _____ _____    ______ ____
ROOT
ATOM      1  C   UNL     1      48.038   5.735  14.267  0.00  0.00    +0.000 C 
ENDROOT
BRANCH   1   2
ATOM      2  C   UNL     1      46.944   5.444  13.284  0.00  0.00    +0.000 A 
ATOM      3  C   UNL     1      46.231   4.246  13.367  0.00  0.00    +0.000 A 
ATOM      4  C   UNL     1      45.179   3.987  12.487  0.00  0.00    +0.000 A 
ATOM      5  C   UNL     1      44.823   4.917  11.498  0.00  0.00    +0.000 A 
ATOM      6  C   UNL     1      45.551   6.111  11.413  0.00  0.00    +0.000 A 
ATOM      7  C   UNL     1      46.605   6.371  12.293  0.00  0.00    +0.000 A 
BRANCH   5   8
ATOM      8  C   UNL     1      43.687   4.704  10.518  0.00  0.00    +0.000 C 
BRANCH   8   9
ATOM      9  C   UNL     1      44.124   4.229   9.134  0.00  0.00    +0.000 C 
BRANCH   9  10
ATOM     10  N   UNL     1      44.690   2.882   9.174  0.00  0.00    +0.000 N 
ATOM     11  H   UNL     1      43.975   2.160   9.248  0.00  0.00    +0.000 HD
BRANCH  10  12
ATOM     12  C   UNL     1      45.603   2.583   8.144  0.00  0.00    +0.000 A 
ATOM     13  C   UNL     1      45.975   3.515   7.162  0.00  0.00    +0.000 A 
ATOM     14  C   UNL     1      46.924   3.208   6.188  0.00  0.00    +0.000 A 
ATOM     15  C   UNL     1      47.549   1.967   6.198  0.00  0.00    +0.000 A 
ATOM     16  C   UNL     1      47.228   1.041   7.188  0.00  0.00    +0.000 A 
ATOM     17  C   UNL     1      46.273   1.355   8.161  0.00  0.00    +0.000 A 
ENDBRANCH  10  12
ENDBRANCH   9  10
ENDBRANCH   8   9
ENDBRANCH   5   8
ENDBRANCH   1   2
BRANCH   1  20
ATOM     18  C   UNL     1      48.763   7.354  15.921  0.00  0.00    +0.000 C 
ATOM     19  O   UNL     1      49.602   6.561  16.327  0.00  0.00    +0.000 OA
ATOM     20  N   UNL     1      47.919   7.031  14.880  0.00  0.00    +0.000 N 
ATOM     21  H   UNL     1      47.239   7.719  14.577  0.00  0.00    +0.000 HD
BRANCH  18  25
ATOM     22  C   UNL     1      47.532  10.767  19.139  0.00  0.00    +0.000 C 
ATOM     23  N   UNL     1      48.030  10.191  17.913  0.00  0.00    +0.000 N 
ATOM     24  N   UNL     1      48.054   8.854  17.735  0.00  0.00    +0.000 NA
ATOM     25  C   UNL     1      48.575   8.699  16.492  0.00  0.00    +0.000 A 
ATOM     26  C   UNL     1      48.879   9.963  15.892  0.00  0.00    +0.000 A 
ATOM     27  C   UNL     1      49.392  10.520  14.728  0.00  0.00    +0.000 A 
ATOM     28 CL   UNL     1      49.902   9.582  13.417  0.00  0.00    +0.000 Cl
ATOM     29  N   UNL     1      49.512  11.852  14.568  0.00  0.00    +0.000 NA
ATOM     30  C   UNL     1      49.116  12.628  15.584  0.00  0.00    +0.000 A 
ATOM     31  N   UNL     1      48.602  12.236  16.759  0.00  0.00    +0.000 NA
ATOM     32  C   UNL     1      48.511  10.897  16.849  0.00  0.00    +0.000 A 
ENDBRANCH  18  25
ENDBRANCH   1  20
TORSDOF 7
ENDMDL
MODEL 9
REMARK VINA RESULT:    -6.723      3.688      9.400
REMARK INTER + INTRA:         -10.790
REMARK INTER:                  -8.855
REMARK INTRA:                  -1.935
REMARK UNBOUND:                -1.315
REMARK  Name = 
REMARK  8 active torsions:
REMARK  status: ('A' for Active; 'I' for Inactive)
REMARK    1  A    between atoms: C_1  and  N_2
REMARK    2  A    between atoms: C_4  and  C_5
REMARK    3  A    between atoms: N_7  and  C_8
REMARK    4  A    between atoms: C_8  and  C_9
REMARK    5  A    between atoms: C_12  and  C_13
REMARK    6  A    between atoms: C_13  and  C_14
REMARK    7  A    between atoms: C_14  and  N_15
REMARK    8  A    between atoms: N_15  and  C_16
REMARK                            x       y       z     vdW  Elec       q    Type
REMARK                         _______ _______ _______ _____ _____    ______ ____
ROOT
ATOM      1  C   UNL     1      47.795   3.733  16.725  0.00  0.00    +0.000 C 
ENDROOT
BRANCH   1   2
ATOM      2  C   UNL     1      47.939   4.462  18.027  0.00  0.00    +0.000 A 
ATOM      3  C   UNL     1      46.971   5.389  18.420  0.00  0.00    +0.000 A 
ATOM      4  C   UNL     1      47.072   6.037  19.651  0.00  0.00    +0.000 A 
ATOM      5  C   UNL     1      48.148   5.779  20.514  0.00  0.00    +0.000 A 
ATOM      6  C   UNL     1      49.122   4.857  20.108  0.00  0.00    +0.000 A 
ATOM      7  C   UNL     1      49.022   4.209  18.875  0.00  0.00    +0.000 A 
BRANCH   5   8
ATOM      8  C   UNL     1      48.312   6.439  21.868  0.00  0.00    +0.000 C 
BRANCH   8   9
ATOM      9  C   UNL     1      48.058   7.945  21.875  0.00  0.00    +0.000 C 
BRANCH   9  10
ATOM     10  N   UNL     1      49.166   8.687  21.277  0.00  0.00    +0.000 N 
ATOM     11  H   UNL     1      50.075   8.321  21.554  0.00  0.00    +0.000 HD
BRANCH  10  12
ATOM     12  C   UNL     1      49.094   8.852  19.880  0.00  0.00    +0.000 A 
ATOM     13  C   UNL     1      50.043   8.310  18.999  0.00  0.00    +0.000 A 
ATOM     14  C   UNL     1      49.914   8.441  17.617  0.00  0.00    +0.000 A 
ATOM     15  C   UNL     1      48.808   9.093  17.085  0.00  0.00    +0.000 A 
ATOM     16  C   UNL     1      47.831   9.601  17.937  0.00  0.00    +0.000 A 
ATOM     17  C   UNL     1      47.967   9.467  19.323  0.00  0.00    +0.000 A 
ENDBRANCH  10  12
ENDBRANCH   9  10
ENDBRANCH   8   9
ENDBRANCH   5   8
ENDBRANCH   1   2
BRANCH   1  20
ATOM     18  C   UNL     1      46.886   4.002  14.492  0.00  0.00    +0.000 C 
ATOM     19  O   UNL     1      47.676   3.168  14.072  0.00  0.00    +0.000 OA
ATOM     20  N   UNL     1      46.866   4.360  15.823  0.00  0.00    +0.000 N 
ATOM     21  H   UNL     1      46.194   5.056  16.127  0.00  0.00    +0.000 HD
BRANCH  18  25
ATOM     22  C   UNL     1      42.861   4.679  11.875  0.00  0.00    +0.000 C 
ATOM     23  N   UNL     1      44.130   4.978  12.490  0.00  0.00    +0.000 N 
ATOM     24  N   UNL     1      44.771   4.059  13.242  0.00  0.00    +0.000 NA
ATOM     25  C   UNL     1      45.903   4.691  13.638  0.00  0.00    +0.000 A 
ATOM     26  C   UNL     1      45.963   6.026  13.123  0.00  0.00    +0.000 A 
ATOM     27  C   UNL     1      46.769   7.158  13.122  0.00  0.00    +0.000 A 
ATOM     28 CL   UNL     1      48.246   7.224  13.942  0.00  0.00    +0.000 Cl
ATOM     29  N   UNL     1      46.423   8.278  12.460  0.00  0.00    +0.000 NA
ATOM     30  C   UNL     1      45.261   8.262  11.796  0.00  0.00    +0.000 A 
ATOM     31  N   UNL     1      44.386   7.249  11.705  0.00  0.00    +0.000 NA
ATOM     32  C   UNL     1      44.796   6.166  12.389  0.00  0.00    +0.000 A 
ENDBRANCH  18  25
ENDBRANCH   1  20
TORSDOF 7
ENDMDL
