MODEL 1
REMARK VINA RESULT:    -7.957      0.000      0.000
REMARK INTER + INTRA:         -12.507
REMARK INTER:                 -11.446
REMARK INTRA:                  -1.060
REMARK UNBOUND:                -1.060
REMARK  Name = 
REMARK  8 active torsions:
REMARK  status: ('A' for Active; 'I' for Inactive)
REMARK    1  A    between atoms: C_2  and  C_20
REMARK    2  A    between atoms: N_3  and  C_4
REMARK    3  A    between atoms: C_4  and  C_5
REMARK    4  A    between atoms: C_8  and  C_9
REMARK    5  A    between atoms: C_9  and  C_10
REMARK    6  A    between atoms: C_10  and  N_11
REMARK    7  A    between atoms: N_11  and  C_12
REMARK    8  A    between atoms: C_27  and  O_28
REMARK                            x       y       z     vdW  Elec       q    Type
REMARK                         _______ _______ _______ _____ _____    ______ ____
ROOT
ATOM      1  C   UNL     1      48.669   6.860  14.185  0.00  0.00    +0.000 C 
ENDROOT
BRANCH   1   2
ATOM      2  C   UNL     1      47.518   6.374  13.348  0.00  0.00    +0.000 A 
ATOM      3  C   UNL     1      46.837   5.203  13.699  0.00  0.00    +0.000 A 
ATOM      4  C   UNL     1      45.735   4.773  12.956  0.00  0.00    +0.000 A 
ATOM      5  C   UNL     1      45.283   5.501  11.850  0.00  0.00    +0.000 A 
ATOM      6  C   UNL     1      46.007   6.640  11.464  0.00  0.00    +0.000 A 
ATOM      7  C   UNL     1      47.112   7.073  12.205  0.00  0.00    +0.000 A 
BRANCH   5   8
ATOM      8  C   UNL     1      44.075   5.087  11.034  0.00  0.00    +0.000 C 
BRANCH   8   9
ATOM      9  C   UNL     1      44.258   3.906  10.059  0.00  0.00    +0.000 C 
BRANCH   9  10
ATOM     10  N   UNL     1      44.629   4.344   8.710  0.00  0.00    +0.000 NA
ATOM     11  H   UNL     1      45.279   5.127   8.770  0.00  0.00    +0.000 HD
BRANCH  10  12
ATOM     12  C   UNL     1      45.190   3.285   7.862  0.00  0.00    +0.000 C 
ATOM     13  C   UNL     1      45.590   2.104   8.769  0.00  0.00    +0.000 C 
ATOM     14  C   UNL     1      46.278   0.984   7.989  0.00  0.00    +0.000 C 
ATOM     15  C   UNL     1      47.479   1.501   7.205  0.00  0.00    +0.000 C 
ATOM     16  C   UNL     1      47.075   2.640   6.281  0.00  0.00    +0.000 C 
ATOM     17  C   UNL     1      46.405   3.773   7.053  0.00  0.00    +0.000 C 
ENDBRANCH  10  12
ENDBRANCH   9  10
ENDBRANCH   8   9
ENDBRANCH   5   8
ENDBRANCH   1   2
BRANCH   1  20
ATOM     18  O   UNL     1      49.845   5.587  16.350  0.00  0.00    +0.000 OA
ATOM     19  C   UNL     1      48.964   6.414  16.567  0.00  0.00    +0.000 C 
ATOM     20  N   UNL     1      48.285   7.051  15.558  0.00  0.00    +0.000 N 
ATOM     21  H   UNL     1      47.674   7.828  15.781  0.00  0.00    +0.000 HD
BRANCH  19  22
ATOM     22  C   UNL     1      48.548   6.754  17.924  0.00  0.00    +0.000 A 
ATOM     23  C   UNL     1      48.023   7.994  18.269  0.00  0.00    +0.000 A 
ATOM     24  N   UNL     1      47.746   8.001  19.609  0.00  0.00    +0.000 N 
ATOM     25  C   UNL     1      48.051   6.780  20.142  0.00  0.00    +0.000 A 
ATOM     26  N   UNL     1      47.877   6.444  21.429  0.00  0.00    +0.000 NA
ATOM     27  C   UNL     1      48.246   5.172  21.664  0.00  0.00    +0.000 A 
ATOM     28  N   UNL     1      48.736   4.274  20.789  0.00  0.00    +0.000 NA
ATOM     29  C   UNL     1      48.886   4.688  19.524  0.00  0.00    +0.000 A 
ATOM     30  C   UNL     1      48.550   5.977  19.127  0.00  0.00    +0.000 A 
ATOM     31  H   UNL     1      47.365   8.772  20.140  0.00  0.00    +0.000 HD
BRANCH  29  32
ATOM     32  O   UNL     1      49.389   3.748  18.671  0.00  0.00    +0.000 OA
ATOM     33  H   UNL     1      50.322   4.025  18.632  0.00  0.00    +0.000 HD
ENDBRANCH  29  32
ENDBRANCH  19  22
ENDBRANCH   1  20
TORSDOF 8
ENDMDL
MODEL 2
REMARK VINA RESULT:    -7.877      1.198      1.775
REMARK INTER + INTRA:         -12.390
REMARK INTER:                 -11.418
REMARK INTRA:                  -0.972
REMARK UNBOUND:                -1.060
REMARK  Name = 
REMARK  8 active torsions:
REMARK  status: ('A' for Active; 'I' for Inactive)
REMARK    1  A    between atoms: C_2  and  C_20
REMARK    2  A    between atoms: N_3  and  C_4
REMARK    3  A    between atoms: C_4  and  C_5
REMARK    4  A    between atoms: C_8  and  C_9
REMARK    5  A    between atoms: C_9  and  C_10
REMARK    6  A    between atoms: C_10  and  N_11
REMARK    7  A    between atoms: N_11  and  C_12
REMARK    8  A    between atoms: C_27  and  O_28
REMARK                            x       y       z     vdW  Elec       q    Type
REMARK                         _______ _______ _______ _____ _____    ______ ____
ROOT
ATOM      1  C   UNL     1      48.133   6.535  14.410  0.00  0.00    +0.000 C 
ENDROOT
BRANCH   1   2
ATOM      2  C   UNL     1      47.090   6.021  13.456  0.00  0.00    +0.000 A 
ATOM      3  C   UNL     1      46.415   4.826  13.728  0.00  0.00    +0.000 A 
ATOM      4  C   UNL     1      45.409   4.369  12.873  0.00  0.00    +0.000 A 
ATOM      5  C   UNL     1      45.049   5.094  11.731  0.00  0.00    +0.000 A 
ATOM      6  C   UNL     1      45.770   6.259  11.430  0.00  0.00    +0.000 A 
ATOM      7  C   UNL     1      46.780   6.719  12.282  0.00  0.00    +0.000 A 
BRANCH   5   8
ATOM      8  C   UNL     1      43.944   4.649  10.793  0.00  0.00    +0.000 C 
BRANCH   8   9
ATOM      9  C   UNL     1      44.258   3.474   9.846  0.00  0.00    +0.000 C 
BRANCH   9  10
ATOM     10  N   UNL     1      44.432   3.905   8.455  0.00  0.00    +0.000 NA
ATOM     11  H   UNL     1      44.881   4.820   8.433  0.00  0.00    +0.000 HD
BRANCH  10  12
ATOM     12  C   UNL     1      45.175   2.957   7.616  0.00  0.00    +0.000 C 
ATOM     13  C   UNL     1      45.725   1.839   8.525  0.00  0.00    +0.000 C 
ATOM     14  C   UNL     1      46.601   0.849   7.757  0.00  0.00    +0.000 C 
ATOM     15  C   UNL     1      47.731   1.556   7.017  0.00  0.00    +0.000 C 
ATOM     16  C   UNL     1      47.186   2.633   6.092  0.00  0.00    +0.000 C 
ATOM     17  C   UNL     1      46.325   3.638   6.852  0.00  0.00    +0.000 C 
ENDBRANCH  10  12
ENDBRANCH   9  10
ENDBRANCH   8   9
ENDBRANCH   5   8
ENDBRANCH   1   2
BRANCH   1  20
ATOM     18  O   UNL     1      49.147   7.408  16.839  0.00  0.00    +0.000 OA
ATOM     19  C   UNL     1      48.671   6.278  16.777  0.00  0.00    +0.000 C 
ATOM     20  N   UNL     1      48.199   5.739  15.606  0.00  0.00    +0.000 N 
ATOM     21  H   UNL     1      47.683   4.867  15.630  0.00  0.00    +0.000 HD
BRANCH  19  22
ATOM     22  C   UNL     1      48.605   5.408  17.947  0.00  0.00    +0.000 A 
ATOM     23  C   UNL     1      48.539   4.022  17.860  0.00  0.00    +0.000 A 
ATOM     24  N   UNL     1      48.475   3.502  19.124  0.00  0.00    +0.000 N 
ATOM     25  C   UNL     1      48.529   4.518  20.037  0.00  0.00    +0.000 A 
ATOM     26  N   UNL     1      48.510   4.349  21.368  0.00  0.00    +0.000 NA
ATOM     27  C   UNL     1      48.595   5.524  22.017  0.00  0.00    +0.000 A 
ATOM     28  N   UNL     1      48.688   6.760  21.491  0.00  0.00    +0.000 NA
ATOM     29  C   UNL     1      48.693   6.844  20.154  0.00  0.00    +0.000 A 
ATOM     30  C   UNL     1      48.612   5.717  19.346  0.00  0.00    +0.000 A 
ATOM     31  H   UNL     1      48.409   2.523  19.368  0.00  0.00    +0.000 HD
BRANCH  29  32
ATOM     32  O   UNL     1      48.786   8.115  19.663  0.00  0.00    +0.000 OA
ATOM     33  H   UNL     1      49.681   8.090  19.278  0.00  0.00    +0.000 HD
ENDBRANCH  29  32
ENDBRANCH  19  22
ENDBRANCH   1  20
TORSDOF 8
ENDMDL
MODEL 3
REMARK VINA RESULT:    -7.740      1.043      1.706
REMARK INTER + INTRA:         -12.194
REMARK INTER:                 -11.234
REMARK INTRA:                  -0.960
REMARK UNBOUND:                -1.060
REMARK  Name = 
REMARK  8 active torsions:
REMARK  status: ('A' for Active; 'I' for Inactive)
REMARK    1  A    between atoms: C_2  and  C_20
REMARK    2  A    between atoms: N_3  and  C_4
REMARK    3  A    between atoms: C_4  and  C_5
REMARK    4  A    between atoms: C_8  and  C_9
REMARK    5  A    between atoms: C_9  and  C_10
REMARK    6  A    between atoms: C_10  and  N_11
REMARK    7  A    between atoms: N_11  and  C_12
REMARK    8  A    between atoms: C_27  and  O_28
REMARK                            x       y       z     vdW  Elec       q    Type
REMARK                         _______ _______ _______ _____ _____    ______ ____
ROOT
ATOM      1  C   UNL     1      48.108   7.140  13.405  0.00  0.00    +0.000 C 
ENDROOT
BRANCH   1   2
ATOM      2  C   UNL     1      46.969   6.432  12.724  0.00  0.00    +0.000 A 
ATOM      3  C   UNL     1      46.573   6.811  11.436  0.00  0.00    +0.000 A 
ATOM      4  C   UNL     1      45.550   6.125  10.777  0.00  0.00    +0.000 A 
ATOM      5  C   UNL     1      44.901   5.043  11.383  0.00  0.00    +0.000 A 
ATOM      6  C   UNL     1      45.259   4.706  12.698  0.00  0.00    +0.000 A 
ATOM      7  C   UNL     1      46.282   5.392  13.362  0.00  0.00    +0.000 A 
BRANCH   5   8
ATOM      8  C   UNL     1      43.807   4.252  10.693  0.00  0.00    +0.000 C 
BRANCH   8   9
ATOM      9  C   UNL     1      43.973   2.720  10.647  0.00  0.00    +0.000 C 
BRANCH   9  10
ATOM     10  N   UNL     1      44.112   2.211   9.279  0.00  0.00    +0.000 NA
ATOM     11  H   UNL     1      43.421   2.656   8.675  0.00  0.00    +0.000 HD
BRANCH  10  12
ATOM     12  C   UNL     1      45.456   2.366   8.709  0.00  0.00    +0.000 C 
ATOM     13  C   UNL     1      45.395   3.462   7.626  0.00  0.00    +0.000 C 
ATOM     14  C   UNL     1      46.729   3.632   6.899  0.00  0.00    +0.000 C 
ATOM     15  C   UNL     1      47.222   2.313   6.314  0.00  0.00    +0.000 C 
ATOM     16  C   UNL     1      47.319   1.243   7.391  0.00  0.00    +0.000 C 
ATOM     17  C   UNL     1      45.987   1.052   8.109  0.00  0.00    +0.000 C 
ENDBRANCH  10  12
ENDBRANCH   9  10
ENDBRANCH   8   9
ENDBRANCH   5   8
ENDBRANCH   1   2
BRANCH   1  20
ATOM     18  O   UNL     1      50.250   6.794  15.132  0.00  0.00    +0.000 OA
ATOM     19  C   UNL     1      49.130   6.942  15.613  0.00  0.00    +0.000 C 
ATOM     20  N   UNL     1      48.003   7.063  14.838  0.00  0.00    +0.000 N 
ATOM     21  H   UNL     1      47.127   7.330  15.269  0.00  0.00    +0.000 HD
BRANCH  19  22
ATOM     22  C   UNL     1      48.911   6.967  17.056  0.00  0.00    +0.000 A 
ATOM     23  C   UNL     1      48.655   8.135  17.766  0.00  0.00    +0.000 A 
ATOM     24  N   UNL     1      48.510   7.825  19.091  0.00  0.00    +0.000 N 
ATOM     25  C   UNL     1      48.635   6.474  19.257  0.00  0.00    +0.000 A 
ATOM     26  N   UNL     1      48.523   5.837  20.433  0.00  0.00    +0.000 NA
ATOM     27  C   UNL     1      48.673   4.508  20.293  0.00  0.00    +0.000 A 
ATOM     28  N   UNL     1      48.908   3.812  19.164  0.00  0.00    +0.000 NA
ATOM     29  C   UNL     1      49.013   4.522  18.033  0.00  0.00    +0.000 A 
ATOM     30  C   UNL     1      48.882   5.905  18.017  0.00  0.00    +0.000 A 
ATOM     31  H   UNL     1      48.327   8.474  19.843  0.00  0.00    +0.000 HD
BRANCH  29  32
ATOM     32  O   UNL     1      49.254   3.779  16.913  0.00  0.00    +0.000 OA
ATOM     33  H   UNL     1      50.013   4.263  16.540  0.00  0.00    +0.000 HD
ENDBRANCH  29  32
ENDBRANCH  19  22
ENDBRANCH   1  20
TORSDOF 8
ENDMDL
MODEL 4
REMARK VINA RESULT:    -7.622      1.209      2.239
REMARK INTER + INTRA:         -12.024
REMARK INTER:                 -10.952
REMARK INTRA:                  -1.071
REMARK UNBOUND:                -1.060
REMARK  Name = 
REMARK  8 active torsions:
REMARK  status: ('A' for Active; 'I' for Inactive)
REMARK    1  A    between atoms: C_2  and  C_20
REMARK    2  A    between atoms: N_3  and  C_4
REMARK    3  A    between atoms: C_4  and  C_5
REMARK    4  A    between atoms: C_8  and  C_9
REMARK    5  A    between atoms: C_9  and  C_10
REMARK    6  A    between atoms: C_10  and  N_11
REMARK    7  A    between atoms: N_11  and  C_12
REMARK    8  A    between atoms: C_27  and  O_28
REMARK                            x       y       z     vdW  Elec       q    Type
REMARK                         _______ _______ _______ _____ _____    ______ ____
ROOT
ATOM      1  C   UNL     1      48.372   7.126  13.955  0.00  0.00    +0.000 C 
ENDROOT
BRANCH   1   2
ATOM      2  C   UNL     1      47.200   6.620  13.158  0.00  0.00    +0.000 A 
ATOM      3  C   UNL     1      46.747   5.307  13.328  0.00  0.00    +0.000 A 
ATOM      4  C   UNL     1      45.628   4.846  12.630  0.00  0.00    +0.000 A 
ATOM      5  C   UNL     1      44.932   5.684  11.752  0.00  0.00    +0.000 A 
ATOM      6  C   UNL     1      45.426   6.980  11.538  0.00  0.00    +0.000 A 
ATOM      7  C   UNL     1      46.548   7.444  12.234  0.00  0.00    +0.000 A 
BRANCH   5   8
ATOM      8  C   UNL     1      43.696   5.234  10.997  0.00  0.00    +0.000 C 
BRANCH   8   9
ATOM      9  C   UNL     1      43.894   4.172   9.898  0.00  0.00    +0.000 C 
BRANCH   9  10
ATOM     10  N   UNL     1      44.924   4.552   8.927  0.00  0.00    +0.000 NA
ATOM     11  H   UNL     1      45.737   4.924   9.418  0.00  0.00    +0.000 HD
BRANCH  10  12
ATOM     12  C   UNL     1      45.332   3.471   8.021  0.00  0.00    +0.000 C 
ATOM     13  C   UNL     1      45.696   2.240   8.875  0.00  0.00    +0.000 C 
ATOM     14  C   UNL     1      46.230   1.086   8.027  0.00  0.00    +0.000 C 
ATOM     15  C   UNL     1      47.410   1.521   7.165  0.00  0.00    +0.000 C 
ATOM     16  C   UNL     1      47.039   2.712   6.295  0.00  0.00    +0.000 C 
ATOM     17  C   UNL     1      46.523   3.877   7.134  0.00  0.00    +0.000 C 
ENDBRANCH  10  12
ENDBRANCH   9  10
ENDBRANCH   8   9
ENDBRANCH   5   8
ENDBRANCH   1   2
BRANCH   1  20
ATOM     18  O   UNL     1      49.818   5.780  15.901  0.00  0.00    +0.000 OA
ATOM     19  C   UNL     1      48.891   6.502  16.256  0.00  0.00    +0.000 C 
ATOM     20  N   UNL     1      48.083   7.161  15.363  0.00  0.00    +0.000 N 
ATOM     21  H   UNL     1      47.429   7.857  15.701  0.00  0.00    +0.000 HD
BRANCH  19  22
ATOM     22  C   UNL     1      48.557   6.684  17.666  0.00  0.00    +0.000 A 
ATOM     23  C   UNL     1      48.694   5.678  18.616  0.00  0.00    +0.000 A 
ATOM     24  N   UNL     1      48.288   6.157  19.831  0.00  0.00    +0.000 N 
ATOM     25  C   UNL     1      47.917   7.466  19.702  0.00  0.00    +0.000 A 
ATOM     26  N   UNL     1      47.489   8.241  20.710  0.00  0.00    +0.000 NA
ATOM     27  C   UNL     1      47.213   9.489  20.293  0.00  0.00    +0.000 A 
ATOM     28  N   UNL     1      47.318   9.993  19.049  0.00  0.00    +0.000 NA
ATOM     29  C   UNL     1      47.746   9.154  18.096  0.00  0.00    +0.000 A 
ATOM     30  C   UNL     1      48.071   7.831  18.373  0.00  0.00    +0.000 A 
ATOM     31  H   UNL     1      48.269   5.646  20.702  0.00  0.00    +0.000 HD
BRANCH  29  32
ATOM     32  O   UNL     1      47.836   9.704  16.850  0.00  0.00    +0.000 OA
ATOM     33  H   UNL     1      47.010   9.372  16.451  0.00  0.00    +0.000 HD
ENDBRANCH  29  32
ENDBRANCH  19  22
ENDBRANCH   1  20
TORSDOF 8
ENDMDL
MODEL 5
REMARK VINA RESULT:    -7.423      2.803      9.084
REMARK INTER + INTRA:         -11.738
REMARK INTER:                 -10.112
REMARK INTRA:                  -1.626
REMARK UNBOUND:                -1.060
REMARK  Name = 
REMARK  8 active torsions:
REMARK  status: ('A' for Active; 'I' for Inactive)
REMARK    1  A    between atoms: C_2  and  C_20
REMARK    2  A    between atoms: N_3  and  C_4
REMARK    3  A    between atoms: C_4  and  C_5
REMARK    4  A    between atoms: C_8  and  C_9
REMARK    5  A    between atoms: C_9  and  C_10
REMARK    6  A    between atoms: C_10  and  N_11
REMARK    7  A    between atoms: N_11  and  C_12
REMARK    8  A    between atoms: C_27  and  O_28
REMARK                            x       y       z     vdW  Elec       q    Type
REMARK                         _______ _______ _______ _____ _____    ______ ____
ROOT
ATOM      1  C   UNL     1      47.336   7.760  12.143  0.00  0.00    +0.000 C 
ENDROOT
BRANCH   1   2
ATOM      2  C   UNL     1      47.909   7.810  13.533  0.00  0.00    +0.000 A 
ATOM      3  C   UNL     1      47.849   8.995  14.276  0.00  0.00    +0.000 A 
ATOM      4  C   UNL     1      48.332   9.036  15.586  0.00  0.00    +0.000 A 
ATOM      5  C   UNL     1      48.881   7.898  16.188  0.00  0.00    +0.000 A 
ATOM      6  C   UNL     1      48.995   6.730  15.419  0.00  0.00    +0.000 A 
ATOM      7  C   UNL     1      48.514   6.686  14.106  0.00  0.00    +0.000 A 
BRANCH   5   8
ATOM      8  C   UNL     1      49.390   7.890  17.616  0.00  0.00    +0.000 C 
BRANCH   8   9
ATOM      9  C   UNL     1      48.713   6.910  18.596  0.00  0.00    +0.000 C 
BRANCH   9  10
ATOM     10  N   UNL     1      49.612   5.834  19.025  0.00  0.00    +0.000 NA
ATOM     11  H   UNL     1      49.761   5.893  20.032  0.00  0.00    +0.000 HD
BRANCH  10  12
ATOM     12  C   UNL     1      49.163   4.486  18.658  0.00  0.00    +0.000 C 
ATOM     13  C   UNL     1      50.223   3.862  17.729  0.00  0.00    +0.000 C 
ATOM     14  C   UNL     1      49.800   2.488  17.209  0.00  0.00    +0.000 C 
ATOM     15  C   UNL     1      48.438   2.542  16.525  0.00  0.00    +0.000 C 
ATOM     16  C   UNL     1      47.384   3.122  17.456  0.00  0.00    +0.000 C 
ATOM     17  C   UNL     1      47.788   4.502  17.965  0.00  0.00    +0.000 C 
ENDBRANCH  10  12
ENDBRANCH   9  10
ENDBRANCH   8   9
ENDBRANCH   5   8
ENDBRANCH   1   2
BRANCH   1  20
ATOM     18  O   UNL     1      44.805   6.922  12.906  0.00  0.00    +0.000 OA
ATOM     19  C   UNL     1      45.489   6.166  12.222  0.00  0.00    +0.000 C 
ATOM     20  N   UNL     1      46.774   6.470  11.846  0.00  0.00    +0.000 N 
ATOM     21  H   UNL     1      47.244   5.888  11.162  0.00  0.00    +0.000 HD
BRANCH  19  22
ATOM     22  C   UNL     1      44.993   4.865  11.786  0.00  0.00    +0.000 A 
ATOM     23  C   UNL     1      44.400   3.949  12.648  0.00  0.00    +0.000 A 
ATOM     24  N   UNL     1      44.057   2.830  11.939  0.00  0.00    +0.000 N 
ATOM     25  C   UNL     1      44.384   3.008  10.624  0.00  0.00    +0.000 A 
ATOM     26  N   UNL     1      44.161   2.108   9.655  0.00  0.00    +0.000 NA
ATOM     27  C   UNL     1      44.568   2.560   8.455  0.00  0.00    +0.000 A 
ATOM     28  N   UNL     1      45.138   3.744   8.163  0.00  0.00    +0.000 NA
ATOM     29  C   UNL     1      45.334   4.585   9.188  0.00  0.00    +0.000 A 
ATOM     30  C   UNL     1      44.966   4.259  10.487  0.00  0.00    +0.000 A 
ATOM     31  H   UNL     1      43.619   1.997  12.307  0.00  0.00    +0.000 HD
BRANCH  29  32
ATOM     32  O   UNL     1      45.917   5.773   8.849  0.00  0.00    +0.000 OA
ATOM     33  H   UNL     1      46.793   5.663   9.261  0.00  0.00    +0.000 HD
ENDBRANCH  29  32
ENDBRANCH  19  22
ENDBRANCH   1  20
TORSDOF 8
ENDMDL
MODEL 6
REMARK VINA RESULT:    -7.286      3.109      8.327
REMARK INTER + INTRA:         -11.541
REMARK INTER:                  -9.514
REMARK INTRA:                  -2.027
REMARK UNBOUND:                -1.060
REMARK  Name = 
REMARK  8 active torsions:
REMARK  status: ('A' for Active; 'I' for Inactive)
REMARK    1  A    between atoms: C_2  and  C_20
REMARK    2  A    between atoms: N_3  and  C_4
REMARK    3  A    between atoms: C_4  and  C_5
REMARK    4  A    between atoms: C_8  and  C_9
REMARK    5  A    between atoms: C_9  and  C_10
REMARK    6  A    between atoms: C_10  and  N_11
REMARK    7  A    between atoms: N_11  and  C_12
REMARK    8  A    between atoms: C_27  and  O_28
REMARK                            x       y       z     vdW  Elec       q    Type
REMARK                         _______ _______ _______ _____ _____    ______ ____
ROOT
ATOM      1  C   UNL     1      49.524   7.676  13.143  0.00  0.00    +0.000 C 
ENDROOT
BRANCH   1   2
ATOM      2  C   UNL     1      49.394   7.853  14.631  0.00  0.00    +0.000 A 
ATOM      3  C   UNL     1      48.479   8.776  15.153  0.00  0.00    +0.000 A 
ATOM      4  C   UNL     1      48.316   8.910  16.533  0.00  0.00    +0.000 A 
ATOM      5  C   UNL     1      49.055   8.125  17.426  0.00  0.00    +0.000 A 
ATOM      6  C   UNL     1      50.015   7.247  16.900  0.00  0.00    +0.000 A 
ATOM      7  C   UNL     1      50.182   7.111  15.518  0.00  0.00    +0.000 A 
BRANCH   5   8
ATOM      8  C   UNL     1      48.888   8.218  18.930  0.00  0.00    +0.000 C 
BRANCH   8   9
ATOM      9  C   UNL     1      48.205   7.028  19.634  0.00  0.00    +0.000 C 
BRANCH   9  10
ATOM     10  N   UNL     1      47.095   6.475  18.852  0.00  0.00    +0.000 NA
ATOM     11  H   UNL     1      46.938   7.050  18.025  0.00  0.00    +0.000 HD
BRANCH  10  12
ATOM     12  C   UNL     1      47.267   5.069  18.465  0.00  0.00    +0.000 C 
ATOM     13  C   UNL     1      48.562   4.546  19.118  0.00  0.00    +0.000 C 
ATOM     14  C   UNL     1      48.885   3.113  18.694  0.00  0.00    +0.000 C 
ATOM     15  C   UNL     1      48.944   2.976  17.177  0.00  0.00    +0.000 C 
ATOM     16  C   UNL     1      47.650   3.456  16.536  0.00  0.00    +0.000 C 
ATOM     17  C   UNL     1      47.329   4.893  16.937  0.00  0.00    +0.000 C 
ENDBRANCH  10  12
ENDBRANCH   9  10
ENDBRANCH   8   9
ENDBRANCH   5   8
ENDBRANCH   1   2
BRANCH   1  20
ATOM     18  O   UNL     1      48.117   5.295  13.347  0.00  0.00    +0.000 OA
ATOM     19  C   UNL     1      47.607   6.224  12.727  0.00  0.00    +0.000 C 
ATOM     20  N   UNL     1      48.251   7.418  12.524  0.00  0.00    +0.000 N 
ATOM     21  H   UNL     1      47.739   8.203  12.139  0.00  0.00    +0.000 HD
BRANCH  19  22
ATOM     22  C   UNL     1      46.281   6.110  12.127  0.00  0.00    +0.000 A 
ATOM     23  C   UNL     1      45.684   7.135  11.401  0.00  0.00    +0.000 A 
ATOM     24  N   UNL     1      44.447   6.722  10.986  0.00  0.00    +0.000 N 
ATOM     25  C   UNL     1      44.235   5.437  11.400  0.00  0.00    +0.000 A 
ATOM     26  N   UNL     1      43.128   4.725  11.139  0.00  0.00    +0.000 NA
ATOM     27  C   UNL     1      43.204   3.484  11.654  0.00  0.00    +0.000 A 
ATOM     28  N   UNL     1      44.215   2.935  12.354  0.00  0.00    +0.000 NA
ATOM     29  C   UNL     1      45.282   3.713  12.578  0.00  0.00    +0.000 A 
ATOM     30  C   UNL     1      45.351   5.020  12.109  0.00  0.00    +0.000 A 
ATOM     31  H   UNL     1      43.783   7.261  10.449  0.00  0.00    +0.000 HD
BRANCH  29  32
ATOM     32  O   UNL     1      46.282   3.119  13.293  0.00  0.00    +0.000 OA
ATOM     33  H   UNL     1      46.950   3.828  13.285  0.00  0.00    +0.000 HD
ENDBRANCH  29  32
ENDBRANCH  19  22
ENDBRANCH   1  20
TORSDOF 8
ENDMDL
MODEL 7
REMARK VINA RESULT:    -7.031      3.524      9.982
REMARK INTER + INTRA:         -11.173
REMARK INTER:                  -9.332
REMARK INTRA:                  -1.841
REMARK UNBOUND:                -1.060
REMARK  Name = 
REMARK  8 active torsions:
REMARK  status: ('A' for Active; 'I' for Inactive)
REMARK    1  A    between atoms: C_2  and  C_20
REMARK    2  A    between atoms: N_3  and  C_4
REMARK    3  A    between atoms: C_4  and  C_5
REMARK    4  A    between atoms: C_8  and  C_9
REMARK    5  A    between atoms: C_9  and  C_10
REMARK    6  A    between atoms: C_10  and  N_11
REMARK    7  A    between atoms: N_11  and  C_12
REMARK    8  A    between atoms: C_27  and  O_28
REMARK                            x       y       z     vdW  Elec       q    Type
REMARK                         _______ _______ _______ _____ _____    ______ ____
ROOT
ATOM      1  C   UNL     1      47.464   3.495  16.743  0.00  0.00    +0.000 C 
ENDROOT
BRANCH   1   2
ATOM      2  C   UNL     1      48.898   3.833  17.047  0.00  0.00    +0.000 A 
ATOM      3  C   UNL     1      49.333   5.163  16.997  0.00  0.00    +0.000 A 
ATOM      4  C   UNL     1      50.650   5.491  17.329  0.00  0.00    +0.000 A 
ATOM      5  C   UNL     1      51.562   4.505  17.723  0.00  0.00    +0.000 A 
ATOM      6  C   UNL     1      51.138   3.167  17.712  0.00  0.00    +0.000 A 
ATOM      7  C   UNL     1      49.820   2.834  17.379  0.00  0.00    +0.000 A 
BRANCH   5   8
ATOM      8  C   UNL     1      52.990   4.821  18.119  0.00  0.00    +0.000 C 
BRANCH   8   9
ATOM      9  C   UNL     1      53.194   5.660  19.396  0.00  0.00    +0.000 C 
BRANCH   9  10
ATOM     10  N   UNL     1      52.589   5.040  20.579  0.00  0.00    +0.000 NA
ATOM     11  H   UNL     1      53.299   4.916  21.301  0.00  0.00    +0.000 HD
BRANCH  10  12
ATOM     12  C   UNL     1      51.436   5.768  21.123  0.00  0.00    +0.000 C 
ATOM     13  C   UNL     1      50.186   4.882  20.954  0.00  0.00    +0.000 C 
ATOM     14  C   UNL     1      48.909   5.594  21.402  0.00  0.00    +0.000 C 
ATOM     15  C   UNL     1      48.732   6.931  20.692  0.00  0.00    +0.000 C 
ATOM     16  C   UNL     1      49.951   7.819  20.892  0.00  0.00    +0.000 C 
ATOM     17  C   UNL     1      51.228   7.125  20.429  0.00  0.00    +0.000 C 
ENDBRANCH  10  12
ENDBRANCH   9  10
ENDBRANCH   8   9
ENDBRANCH   5   8
ENDBRANCH   1   2
BRANCH   1  20
ATOM     18  O   UNL     1      47.312   3.056  14.009  0.00  0.00    +0.000 OA
ATOM     19  C   UNL     1      46.814   4.081  14.464  0.00  0.00    +0.000 C 
ATOM     20  N   UNL     1      46.891   4.412  15.794  0.00  0.00    +0.000 N 
ATOM     21  H   UNL     1      46.342   5.186  16.148  0.00  0.00    +0.000 HD
BRANCH  19  22
ATOM     22  C   UNL     1      46.129   5.046  13.610  0.00  0.00    +0.000 A 
ATOM     23  C   UNL     1      46.529   6.373  13.490  0.00  0.00    +0.000 A 
ATOM     24  N   UNL     1      45.680   7.015  12.630  0.00  0.00    +0.000 N 
ATOM     25  C   UNL     1      44.752   6.128  12.161  0.00  0.00    +0.000 A 
ATOM     26  N   UNL     1      43.785   6.430  11.281  0.00  0.00    +0.000 NA
ATOM     27  C   UNL     1      43.030   5.357  10.986  0.00  0.00    +0.000 A 
ATOM     28  N   UNL     1      43.148   4.102  11.460  0.00  0.00    +0.000 NA
ATOM     29  C   UNL     1      44.134   3.883  12.341  0.00  0.00    +0.000 A 
ATOM     30  C   UNL     1      44.998   4.894  12.744  0.00  0.00    +0.000 A 
ATOM     31  H   UNL     1      45.721   7.988  12.361  0.00  0.00    +0.000 HD
BRANCH  29  32
ATOM     32  O   UNL     1      44.217   2.599  12.798  0.00  0.00    +0.000 OA
ATOM     33  H   UNL     1      43.991   2.108  11.987  0.00  0.00    +0.000 HD
ENDBRANCH  29  32
ENDBRANCH  19  22
ENDBRANCH   1  20
TORSDOF 8
ENDMDL
MODEL 8
REMARK VINA RESULT:    -7.006      3.115      9.566
REMARK INTER + INTRA:         -11.138
REMARK INTER:                  -9.174
REMARK INTRA:                  -1.963
REMARK UNBOUND:                -1.060
REMARK  Name = 
REMARK  8 active torsions:
REMARK  status: ('A' for Active; 'I' for Inactive)
REMARK    1  A    between atoms: C_2  and  C_20
REMARK    2  A    between atoms: N_3  and  C_4
REMARK    3  A    between atoms: C_4  and  C_5
REMARK    4  A    between atoms: C_8  and  C_9
REMARK    5  A    between atoms: C_9  and  C_10
REMARK    6  A    between atoms: C_10  and  N_11
REMARK    7  A    between atoms: N_11  and  C_12
REMARK    8  A    between atoms: C_27  and  O_28
REMARK                            x       y       z     vdW  Elec       q    Type
REMARK                         _______ _______ _______ _____ _____    ______ ____
ROOT
ATOM      1  C   UNL     1      48.474   6.647  14.664  0.00  0.00    +0.000 C 
ENDROOT
BRANCH   1   2
ATOM      2  C   UNL     1      48.609   5.878  15.949  0.00  0.00    +0.000 A 
ATOM      3  C   UNL     1      49.646   6.174  16.842  0.00  0.00    +0.000 A 
ATOM      4  C   UNL     1      49.747   5.499  18.061  0.00  0.00    +0.000 A 
ATOM      5  C   UNL     1      48.816   4.519  18.422  0.00  0.00    +0.000 A 
ATOM      6  C   UNL     1      47.814   4.182  17.498  0.00  0.00    +0.000 A 
ATOM      7  C   UNL     1      47.711   4.854  16.275  0.00  0.00    +0.000 A 
BRANCH   5   8
ATOM      8  C   UNL     1      48.871   3.784  19.746  0.00  0.00    +0.000 C 
BRANCH   8   9
ATOM      9  C   UNL     1      48.800   4.640  21.026  0.00  0.00    +0.000 C 
BRANCH   9  10
ATOM     10  N   UNL     1      47.525   5.353  21.156  0.00  0.00    +0.000 NA
ATOM     11  H   UNL     1      47.096   5.127  22.053  0.00  0.00    +0.000 HD
BRANCH  10  12
ATOM     12  C   UNL     1      47.626   6.808  20.995  0.00  0.00    +0.000 C 
ATOM     13  C   UNL     1      47.073   7.178  19.604  0.00  0.00    +0.000 C 
ATOM     14  C   UNL     1      47.225   8.668  19.299  0.00  0.00    +0.000 C 
ATOM     15  C   UNL     1      48.670   9.129  19.453  0.00  0.00    +0.000 C 
ATOM     16  C   UNL     1      49.202   8.799  20.840  0.00  0.00    +0.000 C 
ATOM     17  C   UNL     1      49.073   7.310  21.146  0.00  0.00    +0.000 C 
ENDBRANCH  10  12
ENDBRANCH   9  10
ENDBRANCH   8   9
ENDBRANCH   5   8
ENDBRANCH   1   2
BRANCH   1  20
ATOM     18  O   UNL     1      47.948   7.113  11.981  0.00  0.00    +0.000 OA
ATOM     19  C   UNL     1      47.069   6.601  12.669  0.00  0.00    +0.000 C 
ATOM     20  N   UNL     1      47.216   6.386  14.016  0.00  0.00    +0.000 N 
ATOM     21  H   UNL     1      46.529   5.830  14.511  0.00  0.00    +0.000 HD
BRANCH  19  22
ATOM     22  C   UNL     1      45.781   6.214  12.103  0.00  0.00    +0.000 A 
ATOM     23  C   UNL     1      44.985   7.080  11.361  0.00  0.00    +0.000 A 
ATOM     24  N   UNL     1      43.844   6.423  10.987  0.00  0.00    +0.000 N 
ATOM     25  C   UNL     1      43.891   5.136  11.443  0.00  0.00    +0.000 A 
ATOM     26  N   UNL     1      42.938   4.216  11.230  0.00  0.00    +0.000 NA
ATOM     27  C   UNL     1      43.261   3.031  11.779  0.00  0.00    +0.000 A 
ATOM     28  N   UNL     1      44.370   2.710  12.472  0.00  0.00    +0.000 NA
ATOM     29  C   UNL     1      45.271   3.687  12.647  0.00  0.00    +0.000 A 
ATOM     30  C   UNL     1      45.078   4.965  12.139  0.00  0.00    +0.000 A 
ATOM     31  H   UNL     1      43.080   6.806  10.449  0.00  0.00    +0.000 HD
BRANCH  29  32
ATOM     32  O   UNL     1      46.379   3.320  13.357  0.00  0.00    +0.000 OA
ATOM     33  H   UNL     1      45.975   2.734  14.023  0.00  0.00    +0.000 HD
ENDBRANCH  29  32
ENDBRANCH  19  22
ENDBRANCH   1  20
TORSDOF 8
ENDMDL
MODEL 9
REMARK VINA RESULT:    -6.773      3.751      8.328
REMARK INTER + INTRA:         -10.803
REMARK INTER:                  -9.229
REMARK INTRA:                  -1.574
REMARK UNBOUND:                -1.060
REMARK  Name = 
REMARK  8 active torsions:
REMARK  status: ('A' for Active; 'I' for Inactive)
REMARK    1  A    between atoms: C_2  and  C_20
REMARK    2  A    between atoms: N_3  and  C_4
REMARK    3  A    between atoms: C_4  and  C_5
REMARK    4  A    between atoms: C_8  and  C_9
REMARK    5  A    between atoms: C_9  and  C_10
REMARK    6  A    between atoms: C_10  and  N_11
REMARK    7  A    between atoms: N_11  and  C_12
REMARK    8  A    between atoms: C_27  and  O_28
REMARK                            x       y       z     vdW  Elec       q    Type
REMARK                         _______ _______ _______ _____ _____    ______ ____
ROOT
ATOM      1  C   UNL     1      48.897   8.088  12.590  0.00  0.00    +0.000 C 
ENDROOT
BRANCH   1   2
ATOM      2  C   UNL     1      49.472   7.658  13.912  0.00  0.00    +0.000 A 
ATOM      3  C   UNL     1      50.787   7.995  14.251  0.00  0.00    +0.000 A 
ATOM      4  C   UNL     1      51.311   7.643  15.497  0.00  0.00    +0.000 A 
ATOM      5  C   UNL     1      50.535   6.953  16.436  0.00  0.00    +0.000 A 
ATOM      6  C   UNL     1      49.238   6.564  16.069  0.00  0.00    +0.000 A 
ATOM      7  C   UNL     1      48.711   6.913  14.821  0.00  0.00    +0.000 A 
BRANCH   5   8
ATOM      8  C   UNL     1      51.054   6.579  17.811  0.00  0.00    +0.000 C 
BRANCH   8   9
ATOM      9  C   UNL     1      50.005   6.222  18.882  0.00  0.00    +0.000 C 
BRANCH   9  10
ATOM     10  N   UNL     1      50.182   4.867  19.413  0.00  0.00    +0.000 NA
ATOM     11  H   UNL     1      50.012   4.867  20.418  0.00  0.00    +0.000 HD
BRANCH  10  12
ATOM     12  C   UNL     1      49.351   3.847  18.761  0.00  0.00    +0.000 C 
ATOM     13  C   UNL     1      50.160   3.240  17.597  0.00  0.00    +0.000 C 
ATOM     14  C   UNL     1      49.342   2.233  16.789  0.00  0.00    +0.000 C 
ATOM     15  C   UNL     1      48.037   2.841  16.288  0.00  0.00    +0.000 C 
ATOM     16  C   UNL     1      47.221   3.405  17.441  0.00  0.00    +0.000 C 
ATOM     17  C   UNL     1      48.022   4.427  18.243  0.00  0.00    +0.000 C 
ENDBRANCH  10  12
ENDBRANCH   9  10
ENDBRANCH   8   9
ENDBRANCH   5   8
ENDBRANCH   1   2
BRANCH   1  20
ATOM     18  O   UNL     1      46.477   9.434  12.742  0.00  0.00    +0.000 OA
ATOM     19  C   UNL     1      46.470   8.256  12.398  0.00  0.00    +0.000 C 
ATOM     20  N   UNL     1      47.610   7.493  12.349  0.00  0.00    +0.000 N 
ATOM     21  H   UNL     1      47.579   6.576  11.921  0.00  0.00    +0.000 HD
BRANCH  19  22
ATOM     22  C   UNL     1      45.232   7.567  12.046  0.00  0.00    +0.000 A 
ATOM     23  C   UNL     1      44.295   8.092  11.162  0.00  0.00    +0.000 A 
ATOM     24  N   UNL     1      43.249   7.216  11.054  0.00  0.00    +0.000 N 
ATOM     25  C   UNL     1      43.497   6.116  11.826  0.00  0.00    +0.000 A 
ATOM     26  N   UNL     1      42.679   5.057  11.928  0.00  0.00    +0.000 NA
ATOM     27  C   UNL     1      43.188   4.115  12.743  0.00  0.00    +0.000 A 
ATOM     28  N   UNL     1      44.354   4.139  13.415  0.00  0.00    +0.000 NA
ATOM     29  C   UNL     1      45.111   5.235  13.265  0.00  0.00    +0.000 A 
ATOM     30  C   UNL     1      44.719   6.294  12.456  0.00  0.00    +0.000 A 
ATOM     31  H   UNL     1      42.419   7.338  10.491  0.00  0.00    +0.000 HD
BRANCH  29  32
ATOM     32  O   UNL     1      46.283   5.219  13.966  0.00  0.00    +0.000 OA
ATOM     33  H   UNL     1      46.203   6.054  14.462  0.00  0.00    +0.000 HD
ENDBRANCH  29  32
ENDBRANCH  19  22
ENDBRANCH   1  20
TORSDOF 8
ENDMDL
