MODEL 1
REMARK VINA RESULT:    -7.566      0.000      0.000
REMARK INTER + INTRA:         -11.232
REMARK INTER:                 -10.441
REMARK INTRA:                  -0.791
REMARK UNBOUND:                -0.791
REMARK  Name = 
REMARK  8 active torsions:
REMARK  status: ('A' for Active; 'I' for Inactive)
REMARK    1  A    between atoms: C_1  and  C_2
REMARK    2  A    between atoms: C_4  and  C_5
REMARK    3  A    between atoms: C_10  and  C_11
REMARK    4  A    between atoms: C_11  and  C_12
REMARK    5  A    between atoms: C_12  and  N_13
REMARK    6  A    between atoms: N_13  and  C_14
REMARK    7  A    between atoms: C_18  and  C_19
REMARK    8  A    between atoms: C_19  and  N_20
REMARK                            x       y       z     vdW  Elec       q    Type
REMARK                         _______ _______ _______ _____ _____    ______ ____
ROOT
ATOM      1  C   UNL     1      45.529   5.725  10.438  0.00  0.00    +0.000 C 
ENDROOT
BRANCH   1   8
ATOM      2  C   UNL     1      47.681   7.409  11.804  0.00  0.00    +0.000 C 
ATOM      3  C   UNL     1      47.077   6.191  12.442  0.00  0.00    +0.000 A 
ATOM      4  N   UNL     1      47.545   5.910  13.684  0.00  0.00    +0.000 NA
ATOM      5  C   UNL     1      47.029   4.826  14.325  0.00  0.00    +0.000 A 
ATOM      6  C   UNL     1      46.055   4.005  13.786  0.00  0.00    +0.000 A 
ATOM      7  C   UNL     1      45.588   4.307  12.511  0.00  0.00    +0.000 A 
ATOM      8  C   UNL     1      46.100   5.411  11.807  0.00  0.00    +0.000 A 
BRANCH   5   9
ATOM      9  C   UNL     1      47.575   4.545  15.691  0.00  0.00    +0.000 C 
ATOM     10  N   UNL     1      46.891   3.599  16.407  0.00  0.00    +0.000 N 
ATOM     11  O   UNL     1      48.558   5.116  16.145  0.00  0.00    +0.000 OA
ATOM     12  H   UNL     1      46.076   3.160  15.996  0.00  0.00    +0.000 HD
ATOM     13  H   UNL     1      47.187   3.365  17.342  0.00  0.00    +0.000 HD
ENDBRANCH   5   9
ENDBRANCH   1   8
BRANCH   1  14
ATOM     14  C   UNL     1      44.171   5.043  10.234  0.00  0.00    +0.000 C 
BRANCH  14  15
ATOM     15  N   UNL     1      44.001   4.545   8.869  0.00  0.00    +0.000 N 
ATOM     16  H   UNL     1      43.041   4.436   8.556  0.00  0.00    +0.000 HD
BRANCH  15  17
ATOM     17  C   UNL     1      44.807   3.474   8.440  0.00  0.00    +0.000 A 
ATOM     18  C   UNL     1      44.857   2.239   9.098  0.00  0.00    +0.000 A 
ATOM     19  C   UNL     1      45.722   1.223   8.681  0.00  0.00    +0.000 A 
ATOM     20  C   UNL     1      46.585   1.432   7.612  0.00  0.00    +0.000 A 
ATOM     21  C   UNL     1      46.593   2.663   6.950  0.00  0.00    +0.000 A 
ATOM     22  C   UNL     1      45.707   3.676   7.380  0.00  0.00    +0.000 A 
BRANCH  21  23
ATOM     23  C   UNL     1      47.565   2.913   5.824  0.00  0.00    +0.000 C 
BRANCH  23  24
ATOM     24  N   UNL     1      48.517   1.818   5.676  0.00  0.00    +0.000 NA
ATOM     25  H   UNL     1      48.081   1.082   5.121  0.00  0.00    +0.000 HD
ATOM     26  H   UNL     1      48.703   1.416   6.592  0.00  0.00    +0.000 HD
ENDBRANCH  23  24
ENDBRANCH  21  23
ENDBRANCH  15  17
ENDBRANCH  14  15
ENDBRANCH   1  14
TORSDOF 7
ENDMDL
MODEL 2
REMARK VINA RESULT:    -7.069      2.937      6.726
REMARK INTER + INTRA:         -10.547
REMARK INTER:                  -9.589
REMARK INTRA:                  -0.958
REMARK UNBOUND:                -0.791
REMARK  Name = 
REMARK  8 active torsions:
REMARK  status: ('A' for Active; 'I' for Inactive)
REMARK    1  A    between atoms: C_1  and  C_2
REMARK    2  A    between atoms: C_4  and  C_5
REMARK    3  A    between atoms: C_10  and  C_11
REMARK    4  A    between atoms: C_11  and  C_12
REMARK    5  A    between atoms: C_12  and  N_13
REMARK    6  A    between atoms: N_13  and  C_14
REMARK    7  A    between atoms: C_18  and  C_19
REMARK    8  A    between atoms: C_19  and  N_20
REMARK                            x       y       z     vdW  Elec       q    Type
REMARK                         _______ _______ _______ _____ _____    ______ ____
ROOT
ATOM      1  C   UNL     1      43.588   3.780  10.821  0.00  0.00    +0.000 C 
ENDROOT
BRANCH   1   8
ATOM      2  C   UNL     1      45.528   5.711   9.463  0.00  0.00    +0.000 C 
ATOM      3  C   UNL     1      45.453   4.254   9.110  0.00  0.00    +0.000 A 
ATOM      4  N   UNL     1      46.332   3.855   8.155  0.00  0.00    +0.000 NA
ATOM      5  C   UNL     1      46.326   2.542   7.798  0.00  0.00    +0.000 A 
ATOM      6  C   UNL     1      45.483   1.597   8.354  0.00  0.00    +0.000 A 
ATOM      7  C   UNL     1      44.589   2.023   9.330  0.00  0.00    +0.000 A 
ATOM      8  C   UNL     1      44.552   3.372   9.724  0.00  0.00    +0.000 A 
BRANCH   5   9
ATOM      9  C   UNL     1      47.305   2.143   6.736  0.00  0.00    +0.000 C 
ATOM     10  N   UNL     1      47.293   2.925   5.612  0.00  0.00    +0.000 N 
ATOM     11  O   UNL     1      48.060   1.187   6.853  0.00  0.00    +0.000 OA
ATOM     12  H   UNL     1      46.643   3.699   5.553  0.00  0.00    +0.000 HD
ATOM     13  H   UNL     1      47.912   2.710   4.845  0.00  0.00    +0.000 HD
ENDBRANCH   5   9
ENDBRANCH   1   8
BRANCH   1  14
ATOM     14  C   UNL     1      43.844   2.985  12.107  0.00  0.00    +0.000 C 
BRANCH  14  15
ATOM     15  N   UNL     1      44.120   3.856  13.250  0.00  0.00    +0.000 N 
ATOM     16  H   UNL     1      43.304   4.236  13.721  0.00  0.00    +0.000 HD
BRANCH  15  17
ATOM     17  C   UNL     1      45.140   4.818  13.129  0.00  0.00    +0.000 A 
ATOM     18  C   UNL     1      46.494   4.533  13.342  0.00  0.00    +0.000 A 
ATOM     19  C   UNL     1      47.470   5.533  13.280  0.00  0.00    +0.000 A 
ATOM     20  C   UNL     1      47.107   6.851  13.035  0.00  0.00    +0.000 A 
ATOM     21  C   UNL     1      45.762   7.185  12.852  0.00  0.00    +0.000 A 
ATOM     22  C   UNL     1      44.791   6.162  12.911  0.00  0.00    +0.000 A 
BRANCH  21  23
ATOM     23  C   UNL     1      45.359   8.623  12.639  0.00  0.00    +0.000 C 
BRANCH  23  24
ATOM     24  N   UNL     1      44.246   8.742  11.706  0.00  0.00    +0.000 NA
ATOM     25  H   UNL     1      44.253   7.932  11.088  0.00  0.00    +0.000 HD
ATOM     26  H   UNL     1      44.395   9.556  11.115  0.00  0.00    +0.000 HD
ENDBRANCH  23  24
ENDBRANCH  21  23
ENDBRANCH  15  17
ENDBRANCH  14  15
ENDBRANCH   1  14
TORSDOF 7
ENDMDL
MODEL 3
REMARK VINA RESULT:    -6.754      1.596      2.215
REMARK INTER + INTRA:         -10.112
REMARK INTER:                  -9.176
REMARK INTRA:                  -0.936
REMARK UNBOUND:                -0.791
REMARK  Name = 
REMARK  8 active torsions:
REMARK  status: ('A' for Active; 'I' for Inactive)
REMARK    1  A    between atoms: C_1  and  C_2
REMARK    2  A    between atoms: C_4  and  C_5
REMARK    3  A    between atoms: C_10  and  C_11
REMARK    4  A    between atoms: C_11  and  C_12
REMARK    5  A    between atoms: C_12  and  N_13
REMARK    6  A    between atoms: N_13  and  C_14
REMARK    7  A    between atoms: C_18  and  C_19
REMARK    8  A    between atoms: C_19  and  N_20
REMARK                            x       y       z     vdW  Elec       q    Type
REMARK                         _______ _______ _______ _____ _____    ______ ____
ROOT
ATOM      1  C   UNL     1      46.781   6.507  12.029  0.00  0.00    +0.000 C 
ENDROOT
BRANCH   1   8
ATOM      2  C   UNL     1      48.457   7.547  14.362  0.00  0.00    +0.000 C 
ATOM      3  C   UNL     1      47.890   6.157  14.327  0.00  0.00    +0.000 A 
ATOM      4  N   UNL     1      48.159   5.406  15.424  0.00  0.00    +0.000 NA
ATOM      5  C   UNL     1      47.663   4.140  15.462  0.00  0.00    +0.000 A 
ATOM      6  C   UNL     1      46.898   3.583  14.454  0.00  0.00    +0.000 A 
ATOM      7  C   UNL     1      46.632   4.367  13.336  0.00  0.00    +0.000 A 
ATOM      8  C   UNL     1      47.133   5.677  13.248  0.00  0.00    +0.000 A 
BRANCH   5   9
ATOM      9  C   UNL     1      47.988   3.340  16.686  0.00  0.00    +0.000 C 
ATOM     10  N   UNL     1      46.922   3.067  17.502  0.00  0.00    +0.000 N 
ATOM     11  O   UNL     1      49.121   2.957  16.950  0.00  0.00    +0.000 OA
ATOM     12  H   UNL     1      46.005   3.414  17.250  0.00  0.00    +0.000 HD
ATOM     13  H   UNL     1      47.063   2.547  18.355  0.00  0.00    +0.000 HD
ENDBRANCH   5   9
ENDBRANCH   1   8
BRANCH   1  14
ATOM     14  C   UNL     1      45.269   6.745  11.938  0.00  0.00    +0.000 C 
BRANCH  14  15
ATOM     15  N   UNL     1      44.745   6.468  10.601  0.00  0.00    +0.000 N 
ATOM     16  H   UNL     1      43.905   6.978  10.343  0.00  0.00    +0.000 HD
BRANCH  15  17
ATOM     17  C   UNL     1      44.690   5.131  10.165  0.00  0.00    +0.000 A 
ATOM     18  C   UNL     1      43.982   4.131  10.842  0.00  0.00    +0.000 A 
ATOM     19  C   UNL     1      44.008   2.800  10.415  0.00  0.00    +0.000 A 
ATOM     20  C   UNL     1      44.774   2.432   9.316  0.00  0.00    +0.000 A 
ATOM     21  C   UNL     1      45.525   3.393   8.633  0.00  0.00    +0.000 A 
ATOM     22  C   UNL     1      45.480   4.734   9.073  0.00  0.00    +0.000 A 
BRANCH  21  23
ATOM     23  C   UNL     1      46.399   2.988   7.472  0.00  0.00    +0.000 C 
BRANCH  23  24
ATOM     24  N   UNL     1      46.722   4.123   6.615  0.00  0.00    +0.000 NA
ATOM     25  H   UNL     1      46.936   4.925   7.206  0.00  0.00    +0.000 HD
ATOM     26  H   UNL     1      45.897   4.375   6.075  0.00  0.00    +0.000 HD
ENDBRANCH  23  24
ENDBRANCH  21  23
ENDBRANCH  15  17
ENDBRANCH  14  15
ENDBRANCH   1  14
TORSDOF 7
ENDMDL
MODEL 4
REMARK VINA RESULT:    -6.539      2.985      6.718
REMARK INTER + INTRA:          -9.815
REMARK INTER:                  -8.724
REMARK INTRA:                  -1.091
REMARK UNBOUND:                -0.791
REMARK  Name = 
REMARK  8 active torsions:
REMARK  status: ('A' for Active; 'I' for Inactive)
REMARK    1  A    between atoms: C_1  and  C_2
REMARK    2  A    between atoms: C_4  and  C_5
REMARK    3  A    between atoms: C_10  and  C_11
REMARK    4  A    between atoms: C_11  and  C_12
REMARK    5  A    between atoms: C_12  and  N_13
REMARK    6  A    between atoms: N_13  and  C_14
REMARK    7  A    between atoms: C_18  and  C_19
REMARK    8  A    between atoms: C_19  and  N_20
REMARK                            x       y       z     vdW  Elec       q    Type
REMARK                         _______ _______ _______ _____ _____    ______ ____
ROOT
ATOM      1  C   UNL     1      43.811   3.937  10.797  0.00  0.00    +0.000 C 
ENDROOT
BRANCH   1   8
ATOM      2  C   UNL     1      45.838   5.648   9.281  0.00  0.00    +0.000 C 
ATOM      3  C   UNL     1      45.666   4.178   9.027  0.00  0.00    +0.000 A 
ATOM      4  N   UNL     1      46.498   3.663   8.088  0.00  0.00    +0.000 NA
ATOM      5  C   UNL     1      46.404   2.332   7.819  0.00  0.00    +0.000 A 
ATOM      6  C   UNL     1      45.517   1.480   8.452  0.00  0.00    +0.000 A 
ATOM      7  C   UNL     1      44.670   2.025   9.412  0.00  0.00    +0.000 A 
ATOM      8  C   UNL     1      44.725   3.397   9.715  0.00  0.00    +0.000 A 
BRANCH   5   9
ATOM      9  C   UNL     1      47.335   1.803   6.771  0.00  0.00    +0.000 C 
ATOM     10  N   UNL     1      48.404   2.608   6.484  0.00  0.00    +0.000 N 
ATOM     11  O   UNL     1      47.158   0.732   6.204  0.00  0.00    +0.000 OA
ATOM     12  H   UNL     1      48.504   3.491   6.970  0.00  0.00    +0.000 HD
ATOM     13  H   UNL     1      49.067   2.329   5.777  0.00  0.00    +0.000 HD
ENDBRANCH   5   9
ENDBRANCH   1   8
BRANCH   1  14
ATOM     14  C   UNL     1      44.379   3.654  12.193  0.00  0.00    +0.000 C 
BRANCH  14  15
ATOM     15  N   UNL     1      44.244   4.803  13.089  0.00  0.00    +0.000 N 
ATOM     16  H   UNL     1      43.292   5.093  13.292  0.00  0.00    +0.000 HD
BRANCH  15  17
ATOM     17  C   UNL     1      45.090   5.910  12.891  0.00  0.00    +0.000 A 
ATOM     18  C   UNL     1      44.619   7.187  12.563  0.00  0.00    +0.000 A 
ATOM     19  C   UNL     1      45.495   8.246  12.307  0.00  0.00    +0.000 A 
ATOM     20  C   UNL     1      46.869   8.042  12.341  0.00  0.00    +0.000 A 
ATOM     21  C   UNL     1      47.381   6.774  12.627  0.00  0.00    +0.000 A 
ATOM     22  C   UNL     1      46.482   5.717  12.891  0.00  0.00    +0.000 A 
BRANCH  21  23
ATOM     23  C   UNL     1      48.871   6.536  12.612  0.00  0.00    +0.000 C 
BRANCH  23  24
ATOM     24  N   UNL     1      49.486   6.862  13.893  0.00  0.00    +0.000 NA
ATOM     25  H   UNL     1      50.223   7.548  13.733  0.00  0.00    +0.000 HD
ATOM     26  H   UNL     1      49.941   6.031  14.262  0.00  0.00    +0.000 HD
ENDBRANCH  23  24
ENDBRANCH  21  23
ENDBRANCH  15  17
ENDBRANCH  14  15
ENDBRANCH   1  14
TORSDOF 7
ENDMDL
MODEL 5
REMARK VINA RESULT:    -6.385      1.843      3.026
REMARK INTER + INTRA:          -9.602
REMARK INTER:                  -8.772
REMARK INTRA:                  -0.831
REMARK UNBOUND:                -0.791
REMARK  Name = 
REMARK  8 active torsions:
REMARK  status: ('A' for Active; 'I' for Inactive)
REMARK    1  A    between atoms: C_1  and  C_2
REMARK    2  A    between atoms: C_4  and  C_5
REMARK    3  A    between atoms: C_10  and  C_11
REMARK    4  A    between atoms: C_11  and  C_12
REMARK    5  A    between atoms: C_12  and  N_13
REMARK    6  A    between atoms: N_13  and  C_14
REMARK    7  A    between atoms: C_18  and  C_19
REMARK    8  A    between atoms: C_19  and  N_20
REMARK                            x       y       z     vdW  Elec       q    Type
REMARK                         _______ _______ _______ _____ _____    ______ ____
ROOT
ATOM      1  C   UNL     1      44.896   5.422  12.496  0.00  0.00    +0.000 C 
ENDROOT
BRANCH   1   8
ATOM      2  C   UNL     1      46.937   4.534  14.588  0.00  0.00    +0.000 C 
ATOM      3  C   UNL     1      47.231   5.594  13.567  0.00  0.00    +0.000 A 
ATOM      4  N   UNL     1      48.485   6.111  13.629  0.00  0.00    +0.000 NA
ATOM      5  C   UNL     1      48.821   7.068  12.722  0.00  0.00    +0.000 A 
ATOM      6  C   UNL     1      47.964   7.534  11.741  0.00  0.00    +0.000 A 
ATOM      7  C   UNL     1      46.684   6.994  11.692  0.00  0.00    +0.000 A 
ATOM      8  C   UNL     1      46.288   6.011  12.616  0.00  0.00    +0.000 A 
BRANCH   5   9
ATOM      9  C   UNL     1      50.211   7.619  12.828  0.00  0.00    +0.000 C 
ATOM     10  N   UNL     1      50.973   7.493  11.698  0.00  0.00    +0.000 N 
ATOM     11  O   UNL     1      50.643   8.141  13.847  0.00  0.00    +0.000 OA
ATOM     12  H   UNL     1      50.578   7.043  10.881  0.00  0.00    +0.000 HD
ATOM     13  H   UNL     1      51.926   7.825  11.696  0.00  0.00    +0.000 HD
ENDBRANCH   5   9
ENDBRANCH   1   8
BRANCH   1  14
ATOM     14  C   UNL     1      44.105   6.096  11.368  0.00  0.00    +0.000 C 
BRANCH  14  15
ATOM     15  N   UNL     1      43.369   5.128  10.554  0.00  0.00    +0.000 N 
ATOM     16  H   UNL     1      42.541   4.728  10.987  0.00  0.00    +0.000 HD
BRANCH  15  17
ATOM     17  C   UNL     1      44.098   4.156   9.844  0.00  0.00    +0.000 A 
ATOM     18  C   UNL     1      44.047   2.789  10.140  0.00  0.00    +0.000 A 
ATOM     19  C   UNL     1      44.839   1.862   9.455  0.00  0.00    +0.000 A 
ATOM     20  C   UNL     1      45.730   2.289   8.478  0.00  0.00    +0.000 A 
ATOM     21  C   UNL     1      45.839   3.649   8.177  0.00  0.00    +0.000 A 
ATOM     22  C   UNL     1      45.025   4.571   8.873  0.00  0.00    +0.000 A 
BRANCH  21  23
ATOM     23  C   UNL     1      46.843   4.122   7.154  0.00  0.00    +0.000 C 
BRANCH  23  24
ATOM     24  N   UNL     1      46.930   3.213   6.018  0.00  0.00    +0.000 NA
ATOM     25  H   UNL     1      47.492   3.654   5.293  0.00  0.00    +0.000 HD
ATOM     26  H   UNL     1      46.000   3.086   5.625  0.00  0.00    +0.000 HD
ENDBRANCH  23  24
ENDBRANCH  21  23
ENDBRANCH  15  17
ENDBRANCH  14  15
ENDBRANCH   1  14
TORSDOF 7
ENDMDL
MODEL 6
REMARK VINA RESULT:    -6.145      3.883      7.591
REMARK INTER + INTRA:          -9.271
REMARK INTER:                  -8.590
REMARK INTRA:                  -0.681
REMARK UNBOUND:                -0.791
REMARK  Name = 
REMARK  8 active torsions:
REMARK  status: ('A' for Active; 'I' for Inactive)
REMARK    1  A    between atoms: C_1  and  C_2
REMARK    2  A    between atoms: C_4  and  C_5
REMARK    3  A    between atoms: C_10  and  C_11
REMARK    4  A    between atoms: C_11  and  C_12
REMARK    5  A    between atoms: C_12  and  N_13
REMARK    6  A    between atoms: N_13  and  C_14
REMARK    7  A    between atoms: C_18  and  C_19
REMARK    8  A    between atoms: C_19  and  N_20
REMARK                            x       y       z     vdW  Elec       q    Type
REMARK                         _______ _______ _______ _____ _____    ______ ____
ROOT
ATOM      1  C   UNL     1      47.205   7.685  13.325  0.00  0.00    +0.000 C 
ENDROOT
BRANCH   1   8
ATOM      2  C   UNL     1      44.786   8.016  11.489  0.00  0.00    +0.000 C 
ATOM      3  C   UNL     1      45.223   6.683  12.022  0.00  0.00    +0.000 A 
ATOM      4  N   UNL     1      44.473   5.631  11.605  0.00  0.00    +0.000 NA
ATOM      5  C   UNL     1      44.824   4.391  12.041  0.00  0.00    +0.000 A 
ATOM      6  C   UNL     1      45.900   4.144  12.875  0.00  0.00    +0.000 A 
ATOM      7  C   UNL     1      46.657   5.234  13.293  0.00  0.00    +0.000 A 
ATOM      8  C   UNL     1      46.325   6.535  12.877  0.00  0.00    +0.000 A 
BRANCH   5   9
ATOM      9  C   UNL     1      43.969   3.257  11.565  0.00  0.00    +0.000 C 
ATOM     10  N   UNL     1      43.672   2.315  12.515  0.00  0.00    +0.000 N 
ATOM     11  O   UNL     1      43.563   3.167  10.414  0.00  0.00    +0.000 OA
ATOM     12  H   UNL     1      44.039   2.424  13.452  0.00  0.00    +0.000 HD
ATOM     13  H   UNL     1      43.114   1.512  12.267  0.00  0.00    +0.000 HD
ENDBRANCH   5   9
ENDBRANCH   1   8
BRANCH   1  14
ATOM     14  C   UNL     1      48.468   7.175  14.030  0.00  0.00    +0.000 C 
BRANCH  14  15
ATOM     15  N   UNL     1      48.370   7.280  15.485  0.00  0.00    +0.000 N 
ATOM     16  H   UNL     1      48.536   8.204  15.873  0.00  0.00    +0.000 HD
BRANCH  15  17
ATOM     17  C   UNL     1      48.967   6.277  16.272  0.00  0.00    +0.000 A 
ATOM     18  C   UNL     1      50.319   6.288  16.634  0.00  0.00    +0.000 A 
ATOM     19  C   UNL     1      50.890   5.238  17.359  0.00  0.00    +0.000 A 
ATOM     20  C   UNL     1      50.126   4.132  17.711  0.00  0.00    +0.000 A 
ATOM     21  C   UNL     1      48.781   4.064  17.337  0.00  0.00    +0.000 A 
ATOM     22  C   UNL     1      48.218   5.137  16.612  0.00  0.00    +0.000 A 
BRANCH  21  23
ATOM     23  C   UNL     1      47.962   2.841  17.670  0.00  0.00    +0.000 C 
BRANCH  23  24
ATOM     24  N   UNL     1      46.533   3.091  17.528  0.00  0.00    +0.000 NA
ATOM     25  H   UNL     1      46.143   3.278  18.450  0.00  0.00    +0.000 HD
ATOM     26  H   UNL     1      46.081   2.243  17.191  0.00  0.00    +0.000 HD
ENDBRANCH  23  24
ENDBRANCH  21  23
ENDBRANCH  15  17
ENDBRANCH  14  15
ENDBRANCH   1  14
TORSDOF 7
ENDMDL
MODEL 7
REMARK VINA RESULT:    -6.130      3.612      6.937
REMARK INTER + INTRA:          -9.251
REMARK INTER:                  -8.396
REMARK INTRA:                  -0.855
REMARK UNBOUND:                -0.791
REMARK  Name = 
REMARK  8 active torsions:
REMARK  status: ('A' for Active; 'I' for Inactive)
REMARK    1  A    between atoms: C_1  and  C_2
REMARK    2  A    between atoms: C_4  and  C_5
REMARK    3  A    between atoms: C_10  and  C_11
REMARK    4  A    between atoms: C_11  and  C_12
REMARK    5  A    between atoms: C_12  and  N_13
REMARK    6  A    between atoms: N_13  and  C_14
REMARK    7  A    between atoms: C_18  and  C_19
REMARK    8  A    between atoms: C_19  and  N_20
REMARK                            x       y       z     vdW  Elec       q    Type
REMARK                         _______ _______ _______ _____ _____    ______ ____
ROOT
ATOM      1  C   UNL     1      47.508   7.336  12.772  0.00  0.00    +0.000 C 
ENDROOT
BRANCH   1   8
ATOM      2  C   UNL     1      47.067   4.771  14.371  0.00  0.00    +0.000 C 
ATOM      3  C   UNL     1      46.432   5.011  13.033  0.00  0.00    +0.000 A 
ATOM      4  N   UNL     1      45.626   4.009  12.598  0.00  0.00    +0.000 NA
ATOM      5  C   UNL     1      45.008   4.170  11.397  0.00  0.00    +0.000 A 
ATOM      6  C   UNL     1      45.149   5.294  10.603  0.00  0.00    +0.000 A 
ATOM      7  C   UNL     1      45.979   6.310  11.063  0.00  0.00    +0.000 A 
ATOM      8  C   UNL     1      46.647   6.184  12.293  0.00  0.00    +0.000 A 
BRANCH   5   9
ATOM      9  C   UNL     1      44.132   3.040  10.948  0.00  0.00    +0.000 C 
ATOM     10  N   UNL     1      44.660   2.254   9.958  0.00  0.00    +0.000 N 
ATOM     11  O   UNL     1      43.024   2.828  11.422  0.00  0.00    +0.000 OA
ATOM     12  H   UNL     1      45.577   2.474   9.588  0.00  0.00    +0.000 HD
ATOM     13  H   UNL     1      44.125   1.483   9.591  0.00  0.00    +0.000 HD
ENDBRANCH   5   9
ENDBRANCH   1   8
BRANCH   1  14
ATOM     14  C   UNL     1      46.655   8.436  13.415  0.00  0.00    +0.000 C 
BRANCH  14  15
ATOM     15  N   UNL     1      46.981   9.763  12.894  0.00  0.00    +0.000 N 
ATOM     16  H   UNL     1      47.205  10.467  13.592  0.00  0.00    +0.000 HD
BRANCH  15  17
ATOM     17  C   UNL     1      46.182  10.295  11.865  0.00  0.00    +0.000 A 
ATOM     18  C   UNL     1      46.583  11.364  11.055  0.00  0.00    +0.000 A 
ATOM     19  C   UNL     1      45.733  11.909  10.088  0.00  0.00    +0.000 A 
ATOM     20  C   UNL     1      44.444  11.415   9.931  0.00  0.00    +0.000 A 
ATOM     21  C   UNL     1      43.990  10.372  10.743  0.00  0.00    +0.000 A 
ATOM     22  C   UNL     1      44.865   9.828  11.710  0.00  0.00    +0.000 A 
BRANCH  21  23
ATOM     23  C   UNL     1      42.574   9.868  10.612  0.00  0.00    +0.000 C 
BRANCH  23  24
ATOM     24  N   UNL     1      42.476   8.443  10.902  0.00  0.00    +0.000 NA
ATOM     25  H   UNL     1      43.018   8.245  11.741  0.00  0.00    +0.000 HD
ATOM     26  H   UNL     1      42.913   7.921  10.146  0.00  0.00    +0.000 HD
ENDBRANCH  23  24
ENDBRANCH  21  23
ENDBRANCH  15  17
ENDBRANCH  14  15
ENDBRANCH   1  14
TORSDOF 7
ENDMDL
MODEL 8
REMARK VINA RESULT:    -6.053      2.332      4.021
REMARK INTER + INTRA:          -9.145
REMARK INTER:                  -8.089
REMARK INTRA:                  -1.056
REMARK UNBOUND:                -0.791
REMARK  Name = 
REMARK  8 active torsions:
REMARK  status: ('A' for Active; 'I' for Inactive)
REMARK    1  A    between atoms: C_1  and  C_2
REMARK    2  A    between atoms: C_4  and  C_5
REMARK    3  A    between atoms: C_10  and  C_11
REMARK    4  A    between atoms: C_11  and  C_12
REMARK    5  A    between atoms: C_12  and  N_13
REMARK    6  A    between atoms: N_13  and  C_14
REMARK    7  A    between atoms: C_18  and  C_19
REMARK    8  A    between atoms: C_19  and  N_20
REMARK                            x       y       z     vdW  Elec       q    Type
REMARK                         _______ _______ _______ _____ _____    ______ ____
ROOT
ATOM      1  C   UNL     1      47.543   6.375  12.768  0.00  0.00    +0.000 C 
ENDROOT
BRANCH   1   8
ATOM      2  C   UNL     1      46.591   3.553  13.450  0.00  0.00    +0.000 C 
ATOM      3  C   UNL     1      47.257   4.450  14.454  0.00  0.00    +0.000 A 
ATOM      4  N   UNL     1      47.425   3.899  15.683  0.00  0.00    +0.000 NA
ATOM      5  C   UNL     1      48.035   4.654  16.636  0.00  0.00    +0.000 A 
ATOM      6  C   UNL     1      48.497   5.941  16.421  0.00  0.00    +0.000 A 
ATOM      7  C   UNL     1      48.315   6.489  15.156  0.00  0.00    +0.000 A 
ATOM      8  C   UNL     1      47.681   5.750  14.142  0.00  0.00    +0.000 A 
BRANCH   5   9
ATOM      9  C   UNL     1      48.196   4.015  17.982  0.00  0.00    +0.000 C 
ATOM     10  N   UNL     1      47.592   4.680  19.016  0.00  0.00    +0.000 N 
ATOM     11  O   UNL     1      48.823   2.978  18.155  0.00  0.00    +0.000 OA
ATOM     12  H   UNL     1      47.094   5.541  18.828  0.00  0.00    +0.000 HD
ATOM     13  H   UNL     1      47.669   4.321  19.956  0.00  0.00    +0.000 HD
ENDBRANCH   5   9
ENDBRANCH   1   8
BRANCH   1  14
ATOM     14  C   UNL     1      46.406   7.403  12.738  0.00  0.00    +0.000 C 
BRANCH  14  15
ATOM     15  N   UNL     1      45.502   7.195  11.606  0.00  0.00    +0.000 N 
ATOM     16  H   UNL     1      44.981   8.013  11.303  0.00  0.00    +0.000 HD
BRANCH  15  17
ATOM     17  C   UNL     1      44.701   6.038  11.590  0.00  0.00    +0.000 A 
ATOM     18  C   UNL     1      43.805   5.711  12.615  0.00  0.00    +0.000 A 
ATOM     19  C   UNL     1      43.077   4.517  12.595  0.00  0.00    +0.000 A 
ATOM     20  C   UNL     1      43.255   3.605  11.563  0.00  0.00    +0.000 A 
ATOM     21  C   UNL     1      44.167   3.876  10.539  0.00  0.00    +0.000 A 
ATOM     22  C   UNL     1      44.888   5.090  10.570  0.00  0.00    +0.000 A 
BRANCH  21  23
ATOM     23  C   UNL     1      44.402   2.864   9.444  0.00  0.00    +0.000 C 
BRANCH  23  24
ATOM     24  N   UNL     1      44.382   3.480   8.123  0.00  0.00    +0.000 NA
ATOM     25  H   UNL     1      44.858   4.380   8.178  0.00  0.00    +0.000 HD
ATOM     26  H   UNL     1      43.419   3.679   7.865  0.00  0.00    +0.000 HD
ENDBRANCH  23  24
ENDBRANCH  21  23
ENDBRANCH  15  17
ENDBRANCH  14  15
ENDBRANCH   1  14
TORSDOF 7
ENDMDL
MODEL 9
REMARK VINA RESULT:    -5.781      4.385      7.936
REMARK INTER + INTRA:          -8.770
REMARK INTER:                  -7.954
REMARK INTRA:                  -0.815
REMARK UNBOUND:                -0.791
REMARK  Name = 
REMARK  8 active torsions:
REMARK  status: ('A' for Active; 'I' for Inactive)
REMARK    1  A    between atoms: C_1  and  C_2
REMARK    2  A    between atoms: C_4  and  C_5
REMARK    3  A    between atoms: C_10  and  C_11
REMARK    4  A    between atoms: C_11  and  C_12
REMARK    5  A    between atoms: C_12  and  N_13
REMARK    6  A    between atoms: N_13  and  C_14
REMARK    7  A    between atoms: C_18  and  C_19
REMARK    8  A    between atoms: C_19  and  N_20
REMARK                            x       y       z     vdW  Elec       q    Type
REMARK                         _______ _______ _______ _____ _____    ______ ____
ROOT
ATOM      1  C   UNL     1      48.453   6.459  13.110  0.00  0.00    +0.000 C 
ENDROOT
BRANCH   1   8
ATOM      2  C   UNL     1      47.117   3.860  14.000  0.00  0.00    +0.000 C 
ATOM      3  C   UNL     1      46.414   4.888  13.162  0.00  0.00    +0.000 A 
ATOM      4  N   UNL     1      45.129   4.584  12.850  0.00  0.00    +0.000 NA
ATOM      5  C   UNL     1      44.429   5.481  12.104  0.00  0.00    +0.000 A 
ATOM      6  C   UNL     1      44.950   6.681  11.654  0.00  0.00    +0.000 A 
ATOM      7  C   UNL     1      46.269   6.976  11.982  0.00  0.00    +0.000 A 
ATOM      8  C   UNL     1      47.034   6.075  12.743  0.00  0.00    +0.000 A 
BRANCH   5   9
ATOM      9  C   UNL     1      43.016   5.106  11.774  0.00  0.00    +0.000 C 
ATOM     10  N   UNL     1      42.830   3.794  11.427  0.00  0.00    +0.000 N 
ATOM     11  O   UNL     1      42.091   5.906  11.805  0.00  0.00    +0.000 OA
ATOM     12  H   UNL     1      43.627   3.170  11.404  0.00  0.00    +0.000 HD
ATOM     13  H   UNL     1      41.909   3.468  11.175  0.00  0.00    +0.000 HD
ENDBRANCH   5   9
ENDBRANCH   1   8
BRANCH   1  14
ATOM     14  C   UNL     1      48.474   7.687  14.030  0.00  0.00    +0.000 C 
BRANCH  14  15
ATOM     15  N   UNL     1      48.103   7.354  15.405  0.00  0.00    +0.000 N 
ATOM     16  H   UNL     1      47.748   8.124  15.964  0.00  0.00    +0.000 HD
BRANCH  15  17
ATOM     17  C   UNL     1      48.965   6.530  16.152  0.00  0.00    +0.000 A 
ATOM     18  C   UNL     1      50.348   6.736  16.230  0.00  0.00    +0.000 A 
ATOM     19  C   UNL     1      51.180   5.855  16.928  0.00  0.00    +0.000 A 
ATOM     20  C   UNL     1      50.650   4.725  17.537  0.00  0.00    +0.000 A 
ATOM     21  C   UNL     1      49.280   4.462  17.452  0.00  0.00    +0.000 A 
ATOM     22  C   UNL     1      48.453   5.367  16.751  0.00  0.00    +0.000 A 
BRANCH  21  23
ATOM     23  C   UNL     1      48.708   3.208  18.067  0.00  0.00    +0.000 C 
BRANCH  23  24
ATOM     24  N   UNL     1      48.495   3.355  19.501  0.00  0.00    +0.000 NA
ATOM     25  H   UNL     1      47.696   3.970  19.649  0.00  0.00    +0.000 HD
ATOM     26  H   UNL     1      49.300   3.826  19.908  0.00  0.00    +0.000 HD
ENDBRANCH  23  24
ENDBRANCH  21  23
ENDBRANCH  15  17
ENDBRANCH  14  15
ENDBRANCH   1  14
TORSDOF 7
ENDMDL
