MODEL 1
REMARK VINA RESULT:    -7.980      0.000      0.000
REMARK INTER + INTRA:         -10.116
REMARK INTER:                  -9.379
REMARK INTRA:                  -0.737
REMARK UNBOUND:                -0.737
REMARK  Name = 
REMARK  3 active torsions:
REMARK  status: ('A' for Active; 'I' for Inactive)
REMARK    1  A    between atoms: C_4  and  C_5
REMARK    2  A    between atoms: C_9  and  C_10
REMARK    3  A    between atoms: C_10  and  N_11
REMARK                            x       y       z     vdW  Elec       q    Type
REMARK                         _______ _______ _______ _____ _____    ______ ____
ROOT
ATOM      1  C   UNL     1      44.824   3.299   9.548  0.00  0.00    +0.000 A 
ATOM      2  C   UNL     1      44.088   2.402  10.342  0.00  0.00    +0.000 A 
ATOM      3  C   UNL     1      43.323   2.840  11.429  0.00  0.00    +0.000 A 
ATOM      4  C   UNL     1      43.303   4.188  11.773  0.00  0.00    +0.000 A 
ATOM      5  C   UNL     1      44.045   5.109  11.029  0.00  0.00    +0.000 A 
ATOM      6  C   UNL     1      44.762   4.660   9.905  0.00  0.00    +0.000 A 
ENDROOT
BRANCH   1  10
ATOM      7  C   UNL     1      47.252   1.964   6.230  0.00  0.00    +0.000 A 
ATOM      8  C   UNL     1      46.944   1.091   7.268  0.00  0.00    +0.000 A 
ATOM      9  C   UNL     1      46.149   1.520   8.336  0.00  0.00    +0.000 A 
ATOM     10  C   UNL     1      45.653   2.835   8.406  0.00  0.00    +0.000 A 
ATOM     11  C   UNL     1      45.991   3.698   7.344  0.00  0.00    +0.000 A 
ATOM     12  C   UNL     1      46.773   3.268   6.267  0.00  0.00    +0.000 A 
ENDBRANCH   1  10
BRANCH   5  13
ATOM     13  C   UNL     1      44.125   6.559  11.442  0.00  0.00    +0.000 C 
BRANCH  13  14
ATOM     14  N   UNL     1      44.690   6.687  12.767  0.00  0.00    +0.000 N 
ATOM     15  C   UNL     1      46.079   6.771  12.742  0.00  0.00    +0.000 A 
ATOM     16  N   UNL     1      46.691   7.395  11.724  0.00  0.00    +0.000 NA
ATOM     17  C   UNL     1      48.035   7.436  11.745  0.00  0.00    +0.000 A 
ATOM     18  C   UNL     1      48.791   6.874  12.740  0.00  0.00    +0.000 A 
ATOM     19  C   UNL     1      48.075   6.258  13.736  0.00  0.00    +0.000 A 
ATOM     20  N   UNL     1      46.729   6.187  13.755  0.00  0.00    +0.000 NA
ATOM     21  H   UNL     1      44.455   5.941  13.410  0.00  0.00    +0.000 HD
ENDBRANCH  13  14
ENDBRANCH   5  13
TORSDOF 3
ENDMDL
MODEL 2
REMARK VINA RESULT:    -7.791      2.498      6.251
REMARK INTER + INTRA:          -9.895
REMARK INTER:                  -9.327
REMARK INTRA:                  -0.568
REMARK UNBOUND:                -0.737
REMARK  Name = 
REMARK  3 active torsions:
REMARK  status: ('A' for Active; 'I' for Inactive)
REMARK    1  A    between atoms: C_4  and  C_5
REMARK    2  A    between atoms: C_9  and  C_10
REMARK    3  A    between atoms: C_10  and  N_11
REMARK                            x       y       z     vdW  Elec       q    Type
REMARK                         _______ _______ _______ _____ _____    ______ ____
ROOT
ATOM      1  C   UNL     1      46.626   6.325  12.221  0.00  0.00    +0.000 A 
ATOM      2  C   UNL     1      46.988   5.441  13.253  0.00  0.00    +0.000 A 
ATOM      3  C   UNL     1      46.387   4.184  13.388  0.00  0.00    +0.000 A 
ATOM      4  C   UNL     1      45.379   3.792  12.512  0.00  0.00    +0.000 A 
ATOM      5  C   UNL     1      44.968   4.653  11.492  0.00  0.00    +0.000 A 
ATOM      6  C   UNL     1      45.623   5.889  11.335  0.00  0.00    +0.000 A 
ENDROOT
BRANCH   1  10
ATOM      7  C   UNL     1      48.441  10.227  11.809  0.00  0.00    +0.000 A 
ATOM      8  C   UNL     1      47.092  10.112  12.128  0.00  0.00    +0.000 A 
ATOM      9  C   UNL     1      46.508   8.849  12.272  0.00  0.00    +0.000 A 
ATOM     10  C   UNL     1      47.248   7.667  12.087  0.00  0.00    +0.000 A 
ATOM     11  C   UNL     1      48.610   7.817  11.756  0.00  0.00    +0.000 A 
ATOM     12  C   UNL     1      49.201   9.078  11.626  0.00  0.00    +0.000 A 
ENDBRANCH   1  10
BRANCH   5  13
ATOM     13  C   UNL     1      43.807   4.299  10.593  0.00  0.00    +0.000 C 
BRANCH  13  14
ATOM     14  N   UNL     1      44.099   4.635   9.218  0.00  0.00    +0.000 N 
ATOM     15  C   UNL     1      44.987   3.736   8.633  0.00  0.00    +0.000 A 
ATOM     16  N   UNL     1      44.949   2.440   8.980  0.00  0.00    +0.000 NA
ATOM     17  C   UNL     1      45.838   1.620   8.392  0.00  0.00    +0.000 A 
ATOM     18  C   UNL     1      46.764   2.043   7.476  0.00  0.00    +0.000 A 
ATOM     19  C   UNL     1      46.724   3.385   7.187  0.00  0.00    +0.000 A 
ATOM     20  N   UNL     1      45.857   4.247   7.754  0.00  0.00    +0.000 NA
ATOM     21  H   UNL     1      44.483   5.560   9.071  0.00  0.00    +0.000 HD
ENDBRANCH  13  14
ENDBRANCH   5  13
TORSDOF 3
ENDMDL
MODEL 3
REMARK VINA RESULT:    -7.172      2.737      7.023
REMARK INTER + INTRA:          -9.167
REMARK INTER:                  -8.579
REMARK INTRA:                  -0.588
REMARK UNBOUND:                -0.737
REMARK  Name = 
REMARK  3 active torsions:
REMARK  status: ('A' for Active; 'I' for Inactive)
REMARK    1  A    between atoms: C_4  and  C_5
REMARK    2  A    between atoms: C_9  and  C_10
REMARK    3  A    between atoms: C_10  and  N_11
REMARK                            x       y       z     vdW  Elec       q    Type
REMARK                         _______ _______ _______ _____ _____    ______ ____
ROOT
ATOM      1  C   UNL     1      47.284   5.542  14.027  0.00  0.00    +0.000 A 
ATOM      2  C   UNL     1      48.057   6.513  13.367  0.00  0.00    +0.000 A 
ATOM      3  C   UNL     1      47.694   7.011  12.110  0.00  0.00    +0.000 A 
ATOM      4  C   UNL     1      46.563   6.522  11.463  0.00  0.00    +0.000 A 
ATOM      5  C   UNL     1      45.785   5.534  12.071  0.00  0.00    +0.000 A 
ATOM      6  C   UNL     1      46.131   5.087  13.359  0.00  0.00    +0.000 A 
ENDROOT
BRANCH   1  10
ATOM      7  C   UNL     1      48.441   3.941  17.873  0.00  0.00    +0.000 A 
ATOM      8  C   UNL     1      48.835   5.222  17.501  0.00  0.00    +0.000 A 
ATOM      9  C   UNL     1      48.451   5.744  16.261  0.00  0.00    +0.000 A 
ATOM     10  C   UNL     1      47.678   4.998  15.352  0.00  0.00    +0.000 A 
ATOM     11  C   UNL     1      47.303   3.700  15.755  0.00  0.00    +0.000 A 
ATOM     12  C   UNL     1      47.672   3.181  17.000  0.00  0.00    +0.000 A 
ENDBRANCH   1  10
BRANCH   5  13
ATOM     13  C   UNL     1      44.614   4.911  11.349  0.00  0.00    +0.000 C 
BRANCH  13  14
ATOM     14  N   UNL     1      44.648   5.233   9.940  0.00  0.00    +0.000 N 
ATOM     15  C   UNL     1      45.190   4.203   9.177  0.00  0.00    +0.000 A 
ATOM     16  N   UNL     1      44.981   2.927   9.536  0.00  0.00    +0.000 NA
ATOM     17  C   UNL     1      45.539   1.973   8.769  0.00  0.00    +0.000 A 
ATOM     18  C   UNL     1      46.298   2.243   7.662  0.00  0.00    +0.000 A 
ATOM     19  C   UNL     1      46.455   3.577   7.376  0.00  0.00    +0.000 A 
ATOM     20  N   UNL     1      45.921   4.569   8.118  0.00  0.00    +0.000 NA
ATOM     21  H   UNL     1      45.160   6.073   9.701  0.00  0.00    +0.000 HD
ENDBRANCH  13  14
ENDBRANCH   5  13
TORSDOF 3
ENDMDL
MODEL 4
REMARK VINA RESULT:    -6.682      2.539      4.260
REMARK INTER + INTRA:          -8.591
REMARK INTER:                  -8.052
REMARK INTRA:                  -0.539
REMARK UNBOUND:                -0.737
REMARK  Name = 
REMARK  3 active torsions:
REMARK  status: ('A' for Active; 'I' for Inactive)
REMARK    1  A    between atoms: C_4  and  C_5
REMARK    2  A    between atoms: C_9  and  C_10
REMARK    3  A    between atoms: C_10  and  N_11
REMARK                            x       y       z     vdW  Elec       q    Type
REMARK                         _______ _______ _______ _____ _____    ______ ____
ROOT
ATOM      1  C   UNL     1      45.579   5.694  11.138  0.00  0.00    +0.000 A 
ATOM      2  C   UNL     1      44.953   6.952  11.072  0.00  0.00    +0.000 A 
ATOM      3  C   UNL     1      45.206   7.948  12.021  0.00  0.00    +0.000 A 
ATOM      4  C   UNL     1      46.067   7.700  13.086  0.00  0.00    +0.000 A 
ATOM      5  C   UNL     1      46.686   6.453  13.205  0.00  0.00    +0.000 A 
ATOM      6  C   UNL     1      46.466   5.482  12.211  0.00  0.00    +0.000 A 
ENDROOT
BRANCH   1  10
ATOM      7  C   UNL     1      44.783   2.587   8.239  0.00  0.00    +0.000 A 
ATOM      8  C   UNL     1      44.393   2.424   9.564  0.00  0.00    +0.000 A 
ATOM      9  C   UNL     1      44.641   3.435  10.500  0.00  0.00    +0.000 A 
ATOM     10  C   UNL     1      45.297   4.627  10.143  0.00  0.00    +0.000 A 
ATOM     11  C   UNL     1      45.687   4.758   8.795  0.00  0.00    +0.000 A 
ATOM     12  C   UNL     1      45.427   3.756   7.853  0.00  0.00    +0.000 A 
ENDBRANCH   1  10
BRANCH   5  13
ATOM     13  C   UNL     1      47.542   6.119  14.404  0.00  0.00    +0.000 C 
BRANCH  13  14
ATOM     14  N   UNL     1      46.986   5.007  15.140  0.00  0.00    +0.000 N 
ATOM     15  C   UNL     1      47.924   4.403  15.972  0.00  0.00    +0.000 A 
ATOM     16  N   UNL     1      48.870   5.150  16.562  0.00  0.00    +0.000 NA
ATOM     17  C   UNL     1      49.758   4.512  17.345  0.00  0.00    +0.000 A 
ATOM     18  C   UNL     1      49.740   3.159  17.560  0.00  0.00    +0.000 A 
ATOM     19  C   UNL     1      48.735   2.482  16.913  0.00  0.00    +0.000 A 
ATOM     20  N   UNL     1      47.827   3.076  16.114  0.00  0.00    +0.000 NA
ATOM     21  H   UNL     1      46.584   4.271  14.573  0.00  0.00    +0.000 HD
ENDBRANCH  13  14
ENDBRANCH   5  13
TORSDOF 3
ENDMDL
MODEL 5
REMARK VINA RESULT:    -6.661      1.435      2.066
REMARK INTER + INTRA:          -8.567
REMARK INTER:                  -7.928
REMARK INTRA:                  -0.639
REMARK UNBOUND:                -0.737
REMARK  Name = 
REMARK  3 active torsions:
REMARK  status: ('A' for Active; 'I' for Inactive)
REMARK    1  A    between atoms: C_4  and  C_5
REMARK    2  A    between atoms: C_9  and  C_10
REMARK    3  A    between atoms: C_10  and  N_11
REMARK                            x       y       z     vdW  Elec       q    Type
REMARK                         _______ _______ _______ _____ _____    ______ ____
ROOT
ATOM      1  C   UNL     1      44.756   4.309  10.274  0.00  0.00    +0.000 A 
ATOM      2  C   UNL     1      43.464   3.973  10.715  0.00  0.00    +0.000 A 
ATOM      3  C   UNL     1      42.853   4.644  11.780  0.00  0.00    +0.000 A 
ATOM      4  C   UNL     1      43.536   5.649  12.459  0.00  0.00    +0.000 A 
ATOM      5  C   UNL     1      44.835   5.992  12.073  0.00  0.00    +0.000 A 
ATOM      6  C   UNL     1      45.411   5.348  10.963  0.00  0.00    +0.000 A 
ENDROOT
BRANCH   1  10
ATOM      7  C   UNL     1      46.692   2.213   7.027  0.00  0.00    +0.000 A 
ATOM      8  C   UNL     1      46.150   1.503   8.093  0.00  0.00    +0.000 A 
ATOM      9  C   UNL     1      45.514   2.181   9.139  0.00  0.00    +0.000 A 
ATOM     10  C   UNL     1      45.415   3.585   9.157  0.00  0.00    +0.000 A 
ATOM     11  C   UNL     1      45.982   4.275   8.066  0.00  0.00    +0.000 A 
ATOM     12  C   UNL     1      46.605   3.600   7.012  0.00  0.00    +0.000 A 
ENDBRANCH   1  10
BRANCH   5  13
ATOM     13  C   UNL     1      45.638   7.004  12.855  0.00  0.00    +0.000 C 
BRANCH  13  14
ATOM     14  N   UNL     1      45.782   8.234  12.110  0.00  0.00    +0.000 N 
ATOM     15  C   UNL     1      47.116   8.597  11.945  0.00  0.00    +0.000 A 
ATOM     16  N   UNL     1      48.052   7.647  11.798  0.00  0.00    +0.000 NA
ATOM     17  C   UNL     1      49.326   8.054  11.655  0.00  0.00    +0.000 A 
ATOM     18  C   UNL     1      49.701   9.372  11.657  0.00  0.00    +0.000 A 
ATOM     19  C   UNL     1      48.672  10.268  11.814  0.00  0.00    +0.000 A 
ATOM     20  N   UNL     1      47.383   9.908  11.967  0.00  0.00    +0.000 NA
ATOM     21  H   UNL     1      45.309   9.037  12.505  0.00  0.00    +0.000 HD
ENDBRANCH  13  14
ENDBRANCH   5  13
TORSDOF 3
ENDMDL
MODEL 6
REMARK VINA RESULT:    -6.396      3.210      5.865
REMARK INTER + INTRA:          -8.255
REMARK INTER:                  -7.592
REMARK INTRA:                  -0.663
REMARK UNBOUND:                -0.737
REMARK  Name = 
REMARK  3 active torsions:
REMARK  status: ('A' for Active; 'I' for Inactive)
REMARK    1  A    between atoms: C_4  and  C_5
REMARK    2  A    between atoms: C_9  and  C_10
REMARK    3  A    between atoms: C_10  and  N_11
REMARK                            x       y       z     vdW  Elec       q    Type
REMARK                         _______ _______ _______ _____ _____    ______ ____
ROOT
ATOM      1  C   UNL     1      46.730   6.142  12.407  0.00  0.00    +0.000 A 
ATOM      2  C   UNL     1      47.358   7.042  11.527  0.00  0.00    +0.000 A 
ATOM      3  C   UNL     1      48.482   7.782  11.912  0.00  0.00    +0.000 A 
ATOM      4  C   UNL     1      48.987   7.668  13.203  0.00  0.00    +0.000 A 
ATOM      5  C   UNL     1      48.374   6.809  14.118  0.00  0.00    +0.000 A 
ATOM      6  C   UNL     1      47.282   6.029  13.697  0.00  0.00    +0.000 A 
ENDROOT
BRANCH   1  10
ATOM      7  C   UNL     1      43.212   3.909  11.259  0.00  0.00    +0.000 A 
ATOM      8  C   UNL     1      43.964   4.573  10.296  0.00  0.00    +0.000 A 
ATOM      9  C   UNL     1      45.109   5.286  10.666  0.00  0.00    +0.000 A 
ATOM     10  C   UNL     1      45.526   5.370  12.008  0.00  0.00    +0.000 A 
ATOM     11  C   UNL     1      44.737   4.694  12.960  0.00  0.00    +0.000 A 
ATOM     12  C   UNL     1      43.600   3.967  12.592  0.00  0.00    +0.000 A 
ENDBRANCH   1  10
BRANCH   5  13
ATOM     13  C   UNL     1      48.836   6.743  15.555  0.00  0.00    +0.000 C 
BRANCH  13  14
ATOM     14  N   UNL     1      48.122   5.714  16.278  0.00  0.00    +0.000 N 
ATOM     15  C   UNL     1      48.961   4.687  16.698  0.00  0.00    +0.000 A 
ATOM     16  N   UNL     1      50.224   4.962  17.059  0.00  0.00    +0.000 NA
ATOM     17  C   UNL     1      50.994   3.930  17.445  0.00  0.00    +0.000 A 
ATOM     18  C   UNL     1      50.554   2.633  17.479  0.00  0.00    +0.000 A 
ATOM     19  C   UNL     1      49.249   2.451  17.092  0.00  0.00    +0.000 A 
ATOM     20  N   UNL     1      48.442   3.454  16.692  0.00  0.00    +0.000 NA
ATOM     21  H   UNL     1      47.361   5.279  15.772  0.00  0.00    +0.000 HD
ENDBRANCH  13  14
ENDBRANCH   5  13
TORSDOF 3
ENDMDL
MODEL 7
REMARK VINA RESULT:    -6.135      3.576      5.419
REMARK INTER + INTRA:          -7.948
REMARK INTER:                  -7.403
REMARK INTRA:                  -0.544
REMARK UNBOUND:                -0.737
REMARK  Name = 
REMARK  3 active torsions:
REMARK  status: ('A' for Active; 'I' for Inactive)
REMARK    1  A    between atoms: C_4  and  C_5
REMARK    2  A    between atoms: C_9  and  C_10
REMARK    3  A    between atoms: C_10  and  N_11
REMARK                            x       y       z     vdW  Elec       q    Type
REMARK                         _______ _______ _______ _____ _____    ______ ____
ROOT
ATOM      1  C   UNL     1      45.427   5.935  11.187  0.00  0.00    +0.000 A 
ATOM      2  C   UNL     1      46.445   5.980  12.156  0.00  0.00    +0.000 A 
ATOM      3  C   UNL     1      46.680   7.129  12.921  0.00  0.00    +0.000 A 
ATOM      4  C   UNL     1      45.924   8.278  12.710  0.00  0.00    +0.000 A 
ATOM      5  C   UNL     1      44.923   8.285  11.735  0.00  0.00    +0.000 A 
ATOM      6  C   UNL     1      44.661   7.104  11.016  0.00  0.00    +0.000 A 
ENDROOT
BRANCH   1  10
ATOM      7  C   UNL     1      44.754   2.409   8.777  0.00  0.00    +0.000 A 
ATOM      8  C   UNL     1      44.418   2.409  10.127  0.00  0.00    +0.000 A 
ATOM      9  C   UNL     1      44.626   3.554  10.904  0.00  0.00    +0.000 A 
ATOM     10  C   UNL     1      45.188   4.724  10.360  0.00  0.00    +0.000 A 
ATOM     11  C   UNL     1      45.526   4.689   8.992  0.00  0.00    +0.000 A 
ATOM     12  C   UNL     1      45.305   3.551   8.209  0.00  0.00    +0.000 A 
ENDBRANCH   1  10
BRANCH   5  13
ATOM     13  C   UNL     1      44.158   9.546  11.412  0.00  0.00    +0.000 C 
BRANCH  13  14
ATOM     14  N   UNL     1      42.824   9.236  10.951  0.00  0.00    +0.000 N 
ATOM     15  C   UNL     1      42.219  10.318  10.319  0.00  0.00    +0.000 A 
ATOM     16  N   UNL     1      42.963  11.169   9.596  0.00  0.00    +0.000 NA
ATOM     17  C   UNL     1      42.328  12.204   9.018  0.00  0.00    +0.000 A 
ATOM     18  C   UNL     1      40.981  12.424   9.137  0.00  0.00    +0.000 A 
ATOM     19  C   UNL     1      40.307  11.501   9.897  0.00  0.00    +0.000 A 
ATOM     20  N   UNL     1      40.900  10.451  10.500  0.00  0.00    +0.000 NA
ATOM     21  H   UNL     1      42.181   8.920  11.667  0.00  0.00    +0.000 HD
ENDBRANCH  13  14
ENDBRANCH   5  13
TORSDOF 3
ENDMDL
MODEL 8
REMARK VINA RESULT:    -5.986      3.338      4.955
REMARK INTER + INTRA:          -7.773
REMARK INTER:                  -7.115
REMARK INTRA:                  -0.658
REMARK UNBOUND:                -0.737
REMARK  Name = 
REMARK  3 active torsions:
REMARK  status: ('A' for Active; 'I' for Inactive)
REMARK    1  A    between atoms: C_4  and  C_5
REMARK    2  A    between atoms: C_9  and  C_10
REMARK    3  A    between atoms: C_10  and  N_11
REMARK                            x       y       z     vdW  Elec       q    Type
REMARK                         _______ _______ _______ _____ _____    ______ ____
ROOT
ATOM      1  C   UNL     1      45.699   6.275  11.402  0.00  0.00    +0.000 A 
ATOM      2  C   UNL     1      46.805   6.211  12.267  0.00  0.00    +0.000 A 
ATOM      3  C   UNL     1      47.141   7.277  13.110  0.00  0.00    +0.000 A 
ATOM      4  C   UNL     1      46.398   8.453  13.082  0.00  0.00    +0.000 A 
ATOM      5  C   UNL     1      45.309   8.570  12.214  0.00  0.00    +0.000 A 
ATOM      6  C   UNL     1      44.950   7.468  11.416  0.00  0.00    +0.000 A 
ENDROOT
BRANCH   1  10
ATOM      7  C   UNL     1      44.665   3.015   8.758  0.00  0.00    +0.000 A 
ATOM      8  C   UNL     1      45.411   4.089   8.285  0.00  0.00    +0.000 A 
ATOM      9  C   UNL     1      45.755   5.139   9.144  0.00  0.00    +0.000 A 
ATOM     10  C   UNL     1      45.352   5.153  10.492  0.00  0.00    +0.000 A 
ATOM     11  C   UNL     1      44.589   4.055  10.938  0.00  0.00    +0.000 A 
ATOM     12  C   UNL     1      44.256   2.996  10.086  0.00  0.00    +0.000 A 
ENDBRANCH   1  10
BRANCH   5  13
ATOM     13  C   UNL     1      44.550   9.869  12.087  0.00  0.00    +0.000 C 
BRANCH  13  14
ATOM     14  N   UNL     1      45.448  10.999  12.162  0.00  0.00    +0.000 N 
ATOM     15  C   UNL     1      45.751  11.516  10.907  0.00  0.00    +0.000 A 
ATOM     16  N   UNL     1      44.823  11.502   9.937  0.00  0.00    +0.000 NA
ATOM     17  C   UNL     1      45.175  12.003   8.740  0.00  0.00    +0.000 A 
ATOM     18  C   UNL     1      46.417  12.515   8.473  0.00  0.00    +0.000 A 
ATOM     19  C   UNL     1      47.297  12.486   9.527  0.00  0.00    +0.000 A 
ATOM     20  N   UNL     1      46.992  11.988  10.742  0.00  0.00    +0.000 NA
ATOM     21  H   UNL     1      46.331  10.819  12.624  0.00  0.00    +0.000 HD
ENDBRANCH  13  14
ENDBRANCH   5  13
TORSDOF 3
ENDMDL
MODEL 9
REMARK VINA RESULT:    -5.870      3.252      7.156
REMARK INTER + INTRA:          -7.636
REMARK INTER:                  -7.034
REMARK INTRA:                  -0.602
REMARK UNBOUND:                -0.737
REMARK  Name = 
REMARK  3 active torsions:
REMARK  status: ('A' for Active; 'I' for Inactive)
REMARK    1  A    between atoms: C_4  and  C_5
REMARK    2  A    between atoms: C_9  and  C_10
REMARK    3  A    between atoms: C_10  and  N_11
REMARK                            x       y       z     vdW  Elec       q    Type
REMARK                         _______ _______ _______ _____ _____    ______ ____
ROOT
ATOM      1  C   UNL     1      47.203   8.981  12.032  0.00  0.00    +0.000 A 
ATOM      2  C   UNL     1      48.567   9.218  11.787  0.00  0.00    +0.000 A 
ATOM      3  C   UNL     1      49.535   8.232  12.010  0.00  0.00    +0.000 A 
ATOM      4  C   UNL     1      49.167   6.991  12.520  0.00  0.00    +0.000 A 
ATOM      5  C   UNL     1      47.825   6.726  12.807  0.00  0.00    +0.000 A 
ATOM      6  C   UNL     1      46.858   7.707  12.522  0.00  0.00    +0.000 A 
ENDROOT
BRANCH   1  10
ATOM      7  C   UNL     1      44.203  12.033  11.420  0.00  0.00    +0.000 A 
ATOM      8  C   UNL     1      45.537  12.387  11.586  0.00  0.00    +0.000 A 
ATOM      9  C   UNL     1      46.510  11.398  11.773  0.00  0.00    +0.000 A 
ATOM     10  C   UNL     1      46.176  10.032  11.815  0.00  0.00    +0.000 A 
ATOM     11  C   UNL     1      44.814   9.707  11.652  0.00  0.00    +0.000 A 
ATOM     12  C   UNL     1      43.841  10.691  11.449  0.00  0.00    +0.000 A 
ENDBRANCH   1  10
BRANCH   5  13
ATOM     13  C   UNL     1      47.410   5.428  13.458  0.00  0.00    +0.000 C 
BRANCH  13  14
ATOM     14  N   UNL     1      46.089   5.542  14.035  0.00  0.00    +0.000 N 
ATOM     15  C   UNL     1      45.131   4.854  13.298  0.00  0.00    +0.000 A 
ATOM     16  N   UNL     1      45.460   3.710  12.677  0.00  0.00    +0.000 NA
ATOM     17  C   UNL     1      44.497   3.095  11.968  0.00  0.00    +0.000 A 
ATOM     18  C   UNL     1      43.221   3.578  11.852  0.00  0.00    +0.000 A 
ATOM     19  C   UNL     1      42.981   4.753  12.521  0.00  0.00    +0.000 A 
ATOM     20  N   UNL     1      43.914   5.409  13.238  0.00  0.00    +0.000 NA
ATOM     21  H   UNL     1      45.747   6.488  14.147  0.00  0.00    +0.000 HD
ENDBRANCH  13  14
ENDBRANCH   5  13
TORSDOF 3
ENDMDL
