MODEL 1
REMARK VINA RESULT:    -8.440      0.000      0.000
REMARK INTER + INTRA:         -12.896
REMARK INTER:                 -11.894
REMARK INTRA:                  -1.003
REMARK UNBOUND:                -1.003
REMARK  Name = 
REMARK  8 active torsions:
REMARK  status: ('A' for Active; 'I' for Inactive)
REMARK    1  A    between atoms: C_1  and  C_2
REMARK    2  A    between atoms: C_2  and  N_3
REMARK    3  A    between atoms: C_2  and  C_11
REMARK    4  A    between atoms: N_3  and  C_4
REMARK    5  A    between atoms: C_4  and  C_5
REMARK    6  A    between atoms: C_14  and  C_15
REMARK    7  A    between atoms: C_15  and  N_16
REMARK    8  A    between atoms: C_17  and  C_19
REMARK                            x       y       z     vdW  Elec       q    Type
REMARK                         _______ _______ _______ _____ _____    ______ ____
ROOT
ATOM      1  C   UNL     1      45.424   4.595  12.010  0.00  0.00    +0.000 A 
ATOM      2  C   UNL     1      45.962   5.732  11.381  0.00  0.00    +0.000 A 
ATOM      3  C   UNL     1      46.969   6.484  11.991  0.00  0.00    +0.000 A 
ATOM      4  C   UNL     1      47.499   6.086  13.223  0.00  0.00    +0.000 A 
ATOM      5  C   UNL     1      46.987   4.939  13.841  0.00  0.00    +0.000 A 
ATOM      6  C   UNL     1      45.959   4.207  13.246  0.00  0.00    +0.000 A 
ENDROOT
BRANCH   1   8
ATOM      7  C   UNL     1      43.268   4.869  10.690  0.00  0.00    +0.000 C 
ATOM      8  C   UNL     1      44.222   3.889  11.390  0.00  0.00    +0.000 C 
BRANCH   8   9
ATOM      9  N   UNL     1      44.624   2.854  10.418  0.00  0.00    +0.000 NA
ATOM     10  H   UNL     1      43.935   2.104  10.432  0.00  0.00    +0.000 HD
BRANCH   9  11
ATOM     11  C   UNL     1      44.724   3.375   9.053  0.00  0.00    +0.000 C 
BRANCH  11  12
ATOM     12  C   UNL     1      45.756   2.648   8.229  0.00  0.00    +0.000 A 
ATOM     13  C   UNL     1      46.609   3.357   7.375  0.00  0.00    +0.000 A 
ATOM     14  C   UNL     1      47.588   2.662   6.683  0.00  0.00    +0.000 A 
ATOM     15  N   UNL     1      47.768   1.329   6.776  0.00  0.00    +0.000 NA
ATOM     16  C   UNL     1      46.930   0.662   7.601  0.00  0.00    +0.000 A 
ATOM     17  C   UNL     1      45.923   1.266   8.335  0.00  0.00    +0.000 A 
ENDBRANCH  11  12
ENDBRANCH   9  11
ENDBRANCH   8   9
ENDBRANCH   1   8
BRANCH   4  18
ATOM     18  C   UNL     1      48.543   6.911  13.923  0.00  0.00    +0.000 C 
BRANCH  18  19
ATOM     19  N   UNL     1      48.216   7.064  15.319  0.00  0.00    +0.000 N 
ATOM     20  C   UNL     1      49.107   6.702  16.296  0.00  0.00    +0.000 C 
ATOM     21  O   UNL     1      50.222   6.266  16.026  0.00  0.00    +0.000 OA
ATOM     22  H   UNL     1      47.239   7.201  15.556  0.00  0.00    +0.000 HD
BRANCH  20  23
ATOM     23  C   UNL     1      48.683   6.923  17.684  0.00  0.00    +0.000 A 
ATOM     24  C   UNL     1      48.290   8.195  18.080  0.00  0.00    +0.000 A 
ATOM     25  S   UNL     1      47.776   8.278  19.703  0.00  0.00    +0.000 S 
ATOM     26  C   UNL     1      48.107   6.629  19.950  0.00  0.00    +0.000 A 
ATOM     27  N   UNL     1      47.907   6.050  21.163  0.00  0.00    +0.000 NA
ATOM     28  C   UNL     1      48.235   4.802  21.223  0.00  0.00    +0.000 A 
ATOM     29  N   UNL     1      48.739   4.079  20.177  0.00  0.00    +0.000 N 
ATOM     30  C   UNL     1      48.926   4.611  18.918  0.00  0.00    +0.000 A 
ATOM     31  O   UNL     1      49.328   3.920  17.989  0.00  0.00    +0.000 OA
ATOM     32  C   UNL     1      48.590   6.018  18.806  0.00  0.00    +0.000 A 
ATOM     33  H   UNL     1      48.976   3.103  20.288  0.00  0.00    +0.000 HD
ENDBRANCH  20  23
ENDBRANCH  18  19
ENDBRANCH   4  18
TORSDOF 7
ENDMDL
MODEL 2
REMARK VINA RESULT:    -8.362      1.268      1.908
REMARK INTER + INTRA:         -12.786
REMARK INTER:                 -11.553
REMARK INTRA:                  -1.234
REMARK UNBOUND:                -1.003
REMARK  Name = 
REMARK  8 active torsions:
REMARK  status: ('A' for Active; 'I' for Inactive)
REMARK    1  A    between atoms: C_1  and  C_2
REMARK    2  A    between atoms: C_2  and  N_3
REMARK    3  A    between atoms: C_2  and  C_11
REMARK    4  A    between atoms: N_3  and  C_4
REMARK    5  A    between atoms: C_4  and  C_5
REMARK    6  A    between atoms: C_14  and  C_15
REMARK    7  A    between atoms: C_15  and  N_16
REMARK    8  A    between atoms: C_17  and  C_19
REMARK                            x       y       z     vdW  Elec       q    Type
REMARK                         _______ _______ _______ _____ _____    ______ ____
ROOT
ATOM      1  C   UNL     1      45.466   4.486  12.056  0.00  0.00    +0.000 A 
ATOM      2  C   UNL     1      45.893   5.741  11.587  0.00  0.00    +0.000 A 
ATOM      3  C   UNL     1      46.826   6.497  12.301  0.00  0.00    +0.000 A 
ATOM      4  C   UNL     1      47.391   5.993  13.477  0.00  0.00    +0.000 A 
ATOM      5  C   UNL     1      46.990   4.733  13.934  0.00  0.00    +0.000 A 
ATOM      6  C   UNL     1      46.036   3.991  13.237  0.00  0.00    +0.000 A 
ENDROOT
BRANCH   1   8
ATOM      7  C   UNL     1      43.430   4.719  10.549  0.00  0.00    +0.000 C 
ATOM      8  C   UNL     1      44.335   3.758  11.335  0.00  0.00    +0.000 C 
BRANCH   8   9
ATOM      9  N   UNL     1      44.840   2.726  10.407  0.00  0.00    +0.000 NA
ATOM     10  H   UNL     1      44.301   1.872  10.541  0.00  0.00    +0.000 HD
BRANCH   9  11
ATOM     11  C   UNL     1      44.732   3.135   9.004  0.00  0.00    +0.000 C 
BRANCH  11  12
ATOM     12  C   UNL     1      45.808   2.526   8.141  0.00  0.00    +0.000 A 
ATOM     13  C   UNL     1      46.614   3.339   7.335  0.00  0.00    +0.000 A 
ATOM     14  C   UNL     1      47.634   2.752   6.605  0.00  0.00    +0.000 A 
ATOM     15  N   UNL     1      47.899   1.430   6.616  0.00  0.00    +0.000 NA
ATOM     16  C   UNL     1      47.105   0.661   7.395  0.00  0.00    +0.000 A 
ATOM     17  C   UNL     1      46.062   1.154   8.162  0.00  0.00    +0.000 A 
ENDBRANCH  11  12
ENDBRANCH   9  11
ENDBRANCH   8   9
ENDBRANCH   1   8
BRANCH   4  18
ATOM     18  C   UNL     1      48.353   6.813  14.290  0.00  0.00    +0.000 C 
BRANCH  18  19
ATOM     19  N   UNL     1      48.152   6.582  15.700  0.00  0.00    +0.000 N 
ATOM     20  C   UNL     1      49.187   6.186  16.504  0.00  0.00    +0.000 C 
ATOM     21  O   UNL     1      50.327   6.044  16.071  0.00  0.00    +0.000 OA
ATOM     22  H   UNL     1      47.195   6.472  16.021  0.00  0.00    +0.000 HD
BRANCH  20  23
ATOM     23  C   UNL     1      48.879   6.003  17.928  0.00  0.00    +0.000 A 
ATOM     24  C   UNL     1      49.127   4.773  18.525  0.00  0.00    +0.000 A 
ATOM     25  S   UNL     1      48.769   4.736  20.190  0.00  0.00    +0.000 S 
ATOM     26  C   UNL     1      48.222   6.345  20.165  0.00  0.00    +0.000 A 
ATOM     27  N   UNL     1      47.742   6.938  21.289  0.00  0.00    +0.000 NA
ATOM     28  C   UNL     1      47.324   8.149  21.122  0.00  0.00    +0.000 A 
ATOM     29  N   UNL     1      47.350   8.823  19.931  0.00  0.00    +0.000 N 
ATOM     30  C   UNL     1      47.861   8.279  18.772  0.00  0.00    +0.000 A 
ATOM     31  O   UNL     1      47.920   8.930  17.735  0.00  0.00    +0.000 OA
ATOM     32  C   UNL     1      48.324   6.910  18.905  0.00  0.00    +0.000 A 
ATOM     33  H   UNL     1      47.010   9.772  19.866  0.00  0.00    +0.000 HD
ENDBRANCH  20  23
ENDBRANCH  18  19
ENDBRANCH   4  18
TORSDOF 7
ENDMDL
MODEL 3
REMARK VINA RESULT:    -8.145      1.553      2.047
REMARK INTER + INTRA:         -12.480
REMARK INTER:                 -11.301
REMARK INTRA:                  -1.179
REMARK UNBOUND:                -1.003
REMARK  Name = 
REMARK  8 active torsions:
REMARK  status: ('A' for Active; 'I' for Inactive)
REMARK    1  A    between atoms: C_1  and  C_2
REMARK    2  A    between atoms: C_2  and  N_3
REMARK    3  A    between atoms: C_2  and  C_11
REMARK    4  A    between atoms: N_3  and  C_4
REMARK    5  A    between atoms: C_4  and  C_5
REMARK    6  A    between atoms: C_14  and  C_15
REMARK    7  A    between atoms: C_15  and  N_16
REMARK    8  A    between atoms: C_17  and  C_19
REMARK                            x       y       z     vdW  Elec       q    Type
REMARK                         _______ _______ _______ _____ _____    ______ ____
ROOT
ATOM      1  C   UNL     1      45.595   6.108  11.327  0.00  0.00    +0.000 A 
ATOM      2  C   UNL     1      44.879   7.249  11.732  0.00  0.00    +0.000 A 
ATOM      3  C   UNL     1      45.456   8.199  12.578  0.00  0.00    +0.000 A 
ATOM      4  C   UNL     1      46.782   8.056  12.999  0.00  0.00    +0.000 A 
ATOM      5  C   UNL     1      47.509   6.937  12.577  0.00  0.00    +0.000 A 
ATOM      6  C   UNL     1      46.922   5.973  11.757  0.00  0.00    +0.000 A 
ENDROOT
BRANCH   1   8
ATOM      7  C   UNL     1      43.357   5.105  10.655  0.00  0.00    +0.000 C 
ATOM      8  C   UNL     1      44.885   5.017  10.531  0.00  0.00    +0.000 C 
BRANCH   8   9
ATOM      9  N   UNL     1      45.241   5.051   9.098  0.00  0.00    +0.000 NA
ATOM     10  H   UNL     1      46.256   5.079   9.013  0.00  0.00    +0.000 HD
BRANCH   9  11
ATOM     11  C   UNL     1      44.739   3.884   8.369  0.00  0.00    +0.000 C 
BRANCH  11  12
ATOM     12  C   UNL     1      45.848   2.997   7.864  0.00  0.00    +0.000 A 
ATOM     13  C   UNL     1      45.901   1.648   8.235  0.00  0.00    +0.000 A 
ATOM     14  C   UNL     1      46.897   0.848   7.700  0.00  0.00    +0.000 A 
ATOM     15  N   UNL     1      47.834   1.293   6.839  0.00  0.00    +0.000 NA
ATOM     16  C   UNL     1      47.770   2.600   6.498  0.00  0.00    +0.000 A 
ATOM     17  C   UNL     1      46.813   3.479   6.978  0.00  0.00    +0.000 A 
ENDBRANCH  11  12
ENDBRANCH   9  11
ENDBRANCH   8   9
ENDBRANCH   1   8
BRANCH   4  18
ATOM     18  C   UNL     1      47.405   9.036  13.954  0.00  0.00    +0.000 C 
BRANCH  18  19
ATOM     19  N   UNL     1      47.687   8.402  15.219  0.00  0.00    +0.000 N 
ATOM     20  C   UNL     1      48.973   8.285  15.677  0.00  0.00    +0.000 C 
ATOM     21  O   UNL     1      49.927   8.739  15.053  0.00  0.00    +0.000 OA
ATOM     22  H   UNL     1      46.954   7.832  15.627  0.00  0.00    +0.000 HD
BRANCH  20  23
ATOM     23  C   UNL     1      49.146   7.647  16.988  0.00  0.00    +0.000 A 
ATOM     24  C   UNL     1      49.639   8.395  18.049  0.00  0.00    +0.000 A 
ATOM     25  S   UNL     1      49.730   7.529  19.513  0.00  0.00    +0.000 S 
ATOM     26  C   UNL     1      49.161   6.108  18.773  0.00  0.00    +0.000 A 
ATOM     27  N   UNL     1      49.025   4.957  19.481  0.00  0.00    +0.000 NA
ATOM     28  C   UNL     1      48.621   3.945  18.788  0.00  0.00    +0.000 A 
ATOM     29  N   UNL     1      48.333   3.982  17.452  0.00  0.00    +0.000 N 
ATOM     30  C   UNL     1      48.420   5.133  16.697  0.00  0.00    +0.000 A 
ATOM     31  O   UNL     1      48.101   5.144  15.513  0.00  0.00    +0.000 OA
ATOM     32  C   UNL     1      48.891   6.295  17.428  0.00  0.00    +0.000 A 
ATOM     33  H   UNL     1      48.018   3.154  16.966  0.00  0.00    +0.000 HD
ENDBRANCH  20  23
ENDBRANCH  18  19
ENDBRANCH   4  18
TORSDOF 7
ENDMDL
MODEL 4
REMARK VINA RESULT:    -7.622      1.512      1.972
REMARK INTER + INTRA:         -11.743
REMARK INTER:                 -10.533
REMARK INTRA:                  -1.210
REMARK UNBOUND:                -1.003
REMARK  Name = 
REMARK  8 active torsions:
REMARK  status: ('A' for Active; 'I' for Inactive)
REMARK    1  A    between atoms: C_1  and  C_2
REMARK    2  A    between atoms: C_2  and  N_3
REMARK    3  A    between atoms: C_2  and  C_11
REMARK    4  A    between atoms: N_3  and  C_4
REMARK    5  A    between atoms: C_4  and  C_5
REMARK    6  A    between atoms: C_14  and  C_15
REMARK    7  A    between atoms: C_15  and  N_16
REMARK    8  A    between atoms: C_17  and  C_19
REMARK                            x       y       z     vdW  Elec       q    Type
REMARK                         _______ _______ _______ _____ _____    ______ ____
ROOT
ATOM      1  C   UNL     1      45.396   4.908  12.517  0.00  0.00    +0.000 A 
ATOM      2  C   UNL     1      45.129   6.132  11.877  0.00  0.00    +0.000 A 
ATOM      3  C   UNL     1      45.857   7.282  12.190  0.00  0.00    +0.000 A 
ATOM      4  C   UNL     1      46.905   7.224  13.114  0.00  0.00    +0.000 A 
ATOM      5  C   UNL     1      47.194   6.003  13.734  0.00  0.00    +0.000 A 
ATOM      6  C   UNL     1      46.446   4.861  13.444  0.00  0.00    +0.000 A 
ENDROOT
BRANCH   1   8
ATOM      7  C   UNL     1      43.090   4.135  11.774  0.00  0.00    +0.000 C 
ATOM      8  C   UNL     1      44.483   3.712  12.265  0.00  0.00    +0.000 C 
BRANCH   8   9
ATOM      9  N   UNL     1      45.057   2.768  11.285  0.00  0.00    +0.000 NA
ATOM     10  H   UNL     1      44.941   1.819  11.637  0.00  0.00    +0.000 HD
BRANCH   9  11
ATOM     11  C   UNL     1      44.417   2.866   9.972  0.00  0.00    +0.000 C 
BRANCH  11  12
ATOM     12  C   UNL     1      45.407   2.780   8.838  0.00  0.00    +0.000 A 
ATOM     13  C   UNL     1      45.958   1.547   8.471  0.00  0.00    +0.000 A 
ATOM     14  C   UNL     1      46.815   1.497   7.383  0.00  0.00    +0.000 A 
ATOM     15  N   UNL     1      47.159   2.575   6.651  0.00  0.00    +0.000 NA
ATOM     16  C   UNL     1      46.621   3.758   7.025  0.00  0.00    +0.000 A 
ATOM     17  C   UNL     1      45.756   3.909   8.096  0.00  0.00    +0.000 A 
ENDBRANCH  11  12
ENDBRANCH   9  11
ENDBRANCH   8   9
ENDBRANCH   1   8
BRANCH   4  18
ATOM     18  C   UNL     1      47.664   8.461  13.507  0.00  0.00    +0.000 C 
BRANCH  18  19
ATOM     19  N   UNL     1      47.446   8.769  14.899  0.00  0.00    +0.000 N 
ATOM     20  C   UNL     1      48.484   8.767  15.793  0.00  0.00    +0.000 C 
ATOM     21  O   UNL     1      49.639   8.538  15.444  0.00  0.00    +0.000 OA
ATOM     22  H   UNL     1      46.490   8.735  15.239  0.00  0.00    +0.000 HD
BRANCH  20  23
ATOM     23  C   UNL     1      48.156   9.120  17.180  0.00  0.00    +0.000 A 
ATOM     24  C   UNL     1      47.963  10.454  17.514  0.00  0.00    +0.000 A 
ATOM     25  S   UNL     1      47.535  10.695  19.147  0.00  0.00    +0.000 S 
ATOM     26  C   UNL     1      47.642   9.031  19.478  0.00  0.00    +0.000 A 
ATOM     27  N   UNL     1      47.413   8.552  20.728  0.00  0.00    +0.000 NA
ATOM     28  C   UNL     1      47.564   7.275  20.850  0.00  0.00    +0.000 A 
ATOM     29  N   UNL     1      47.916   6.433  19.831  0.00  0.00    +0.000 N 
ATOM     30  C   UNL     1      48.122   6.865  18.538  0.00  0.00    +0.000 A 
ATOM     31  O   UNL     1      48.383   6.076  17.636  0.00  0.00    +0.000 OA
ATOM     32  C   UNL     1      47.984   8.298  18.355  0.00  0.00    +0.000 A 
ATOM     33  H   UNL     1      48.017   5.440  19.990  0.00  0.00    +0.000 HD
ENDBRANCH  20  23
ENDBRANCH  18  19
ENDBRANCH   4  18
TORSDOF 7
ENDMDL
MODEL 5
REMARK VINA RESULT:    -7.464      3.671      8.457
REMARK INTER + INTRA:         -11.522
REMARK INTER:                 -10.064
REMARK INTRA:                  -1.458
REMARK UNBOUND:                -1.003
REMARK  Name = 
REMARK  8 active torsions:
REMARK  status: ('A' for Active; 'I' for Inactive)
REMARK    1  A    between atoms: C_1  and  C_2
REMARK    2  A    between atoms: C_2  and  N_3
REMARK    3  A    between atoms: C_2  and  C_11
REMARK    4  A    between atoms: N_3  and  C_4
REMARK    5  A    between atoms: C_4  and  C_5
REMARK    6  A    between atoms: C_14  and  C_15
REMARK    7  A    between atoms: C_15  and  N_16
REMARK    8  A    between atoms: C_17  and  C_19
REMARK                            x       y       z     vdW  Elec       q    Type
REMARK                         _______ _______ _______ _____ _____    ______ ____
ROOT
ATOM      1  C   UNL     1      48.873   7.651  16.423  0.00  0.00    +0.000 A 
ATOM      2  C   UNL     1      48.362   8.867  15.936  0.00  0.00    +0.000 A 
ATOM      3  C   UNL     1      48.119   9.052  14.573  0.00  0.00    +0.000 A 
ATOM      4  C   UNL     1      48.334   8.006  13.670  0.00  0.00    +0.000 A 
ATOM      5  C   UNL     1      48.817   6.784  14.151  0.00  0.00    +0.000 A 
ATOM      6  C   UNL     1      49.089   6.610  15.509  0.00  0.00    +0.000 A 
ENDROOT
BRANCH   1   8
ATOM      7  C   UNL     1      48.053   7.415  18.818  0.00  0.00    +0.000 C 
ATOM      8  C   UNL     1      49.272   7.536  17.891  0.00  0.00    +0.000 C 
BRANCH   8   9
ATOM      9  N   UNL     1      50.163   6.385  18.138  0.00  0.00    +0.000 NA
ATOM     10  H   UNL     1      50.909   6.676  18.768  0.00  0.00    +0.000 HD
BRANCH   9  11
ATOM     11  C   UNL     1      49.458   5.249  18.737  0.00  0.00    +0.000 C 
BRANCH  11  12
ATOM     12  C   UNL     1      49.483   4.025  17.858  0.00  0.00    +0.000 A 
ATOM     13  C   UNL     1      50.640   3.243  17.765  0.00  0.00    +0.000 A 
ATOM     14  C   UNL     1      50.605   2.089  16.999  0.00  0.00    +0.000 A 
ATOM     15  N   UNL     1      49.516   1.670  16.324  0.00  0.00    +0.000 NA
ATOM     16  C   UNL     1      48.410   2.443  16.421  0.00  0.00    +0.000 A 
ATOM     17  C   UNL     1      48.346   3.611  17.162  0.00  0.00    +0.000 A 
ENDBRANCH  11  12
ENDBRANCH   9  11
ENDBRANCH   8   9
ENDBRANCH   1   8
BRANCH   4  18
ATOM     18  C   UNL     1      48.133   8.201  12.192  0.00  0.00    +0.000 C 
BRANCH  18  19
ATOM     19  N   UNL     1      47.494   7.046  11.611  0.00  0.00    +0.000 N 
ATOM     20  C   UNL     1      46.135   7.001  11.445  0.00  0.00    +0.000 C 
ATOM     21  O   UNL     1      45.413   7.946  11.751  0.00  0.00    +0.000 OA
ATOM     22  H   UNL     1      48.034   6.188  11.567  0.00  0.00    +0.000 HD
BRANCH  20  23
ATOM     23  C   UNL     1      45.590   5.789  10.820  0.00  0.00    +0.000 A 
ATOM     24  C   UNL     1      45.812   5.563   9.468  0.00  0.00    +0.000 A 
ATOM     25  S   UNL     1      45.164   4.091   8.905  0.00  0.00    +0.000 S 
ATOM     26  C   UNL     1      44.521   3.725  10.435  0.00  0.00    +0.000 A 
ATOM     27  N   UNL     1      43.808   2.586  10.639  0.00  0.00    +0.000 NA
ATOM     28  C   UNL     1      43.345   2.450  11.838  0.00  0.00    +0.000 A 
ATOM     29  N   UNL     1      43.537   3.348  12.852  0.00  0.00    +0.000 N 
ATOM     30  C   UNL     1      44.283   4.498  12.706  0.00  0.00    +0.000 A 
ATOM     31  O   UNL     1      44.482   5.253  13.651  0.00  0.00    +0.000 OA
ATOM     32  C   UNL     1      44.808   4.705  11.369  0.00  0.00    +0.000 A 
ATOM     33  H   UNL     1      43.150   3.182  13.771  0.00  0.00    +0.000 HD
ENDBRANCH  20  23
ENDBRANCH  18  19
ENDBRANCH   4  18
TORSDOF 7
ENDMDL
MODEL 6
REMARK VINA RESULT:    -7.150      2.422      2.981
REMARK INTER + INTRA:         -11.078
REMARK INTER:                  -9.512
REMARK INTRA:                  -1.566
REMARK UNBOUND:                -1.003
REMARK  Name = 
REMARK  8 active torsions:
REMARK  status: ('A' for Active; 'I' for Inactive)
REMARK    1  A    between atoms: C_1  and  C_2
REMARK    2  A    between atoms: C_2  and  N_3
REMARK    3  A    between atoms: C_2  and  C_11
REMARK    4  A    between atoms: N_3  and  C_4
REMARK    5  A    between atoms: C_4  and  C_5
REMARK    6  A    between atoms: C_14  and  C_15
REMARK    7  A    between atoms: C_15  and  N_16
REMARK    8  A    between atoms: C_17  and  C_19
REMARK                            x       y       z     vdW  Elec       q    Type
REMARK                         _______ _______ _______ _____ _____    ______ ____
ROOT
ATOM      1  C   UNL     1      45.128   5.646  12.642  0.00  0.00    +0.000 A 
ATOM      2  C   UNL     1      44.946   7.035  12.519  0.00  0.00    +0.000 A 
ATOM      3  C   UNL     1      46.029   7.913  12.605  0.00  0.00    +0.000 A 
ATOM      4  C   UNL     1      47.327   7.418  12.767  0.00  0.00    +0.000 A 
ATOM      5  C   UNL     1      47.518   6.035  12.863  0.00  0.00    +0.000 A 
ATOM      6  C   UNL     1      46.432   5.161  12.807  0.00  0.00    +0.000 A 
ENDROOT
BRANCH   1   8
ATOM      7  C   UNL     1      42.682   5.349  12.010  0.00  0.00    +0.000 C 
ATOM      8  C   UNL     1      43.909   4.730  12.698  0.00  0.00    +0.000 C 
BRANCH   8   9
ATOM      9  N   UNL     1      44.173   3.412  12.085  0.00  0.00    +0.000 NA
ATOM     10  H   UNL     1      43.774   2.688  12.679  0.00  0.00    +0.000 HD
BRANCH   9  11
ATOM     11  C   UNL     1      43.596   3.293  10.744  0.00  0.00    +0.000 C 
BRANCH  11  12
ATOM     12  C   UNL     1      44.646   3.240   9.664  0.00  0.00    +0.000 A 
ATOM     13  C   UNL     1      45.110   2.009   9.187  0.00  0.00    +0.000 A 
ATOM     14  C   UNL     1      46.028   2.000   8.149  0.00  0.00    +0.000 A 
ATOM     15  N   UNL     1      46.513   3.115   7.568  0.00  0.00    +0.000 NA
ATOM     16  C   UNL     1      46.058   4.295   8.048  0.00  0.00    +0.000 A 
ATOM     17  C   UNL     1      45.141   4.407   9.080  0.00  0.00    +0.000 A 
ENDBRANCH  11  12
ENDBRANCH   9  11
ENDBRANCH   8   9
ENDBRANCH   1   8
BRANCH   4  18
ATOM     18  C   UNL     1      48.500   8.347  12.919  0.00  0.00    +0.000 C 
BRANCH  18  19
ATOM     19  N   UNL     1      49.551   7.717  13.680  0.00  0.00    +0.000 N 
ATOM     20  C   UNL     1      49.691   7.957  15.021  0.00  0.00    +0.000 C 
ATOM     21  O   UNL     1      48.916   8.685  15.634  0.00  0.00    +0.000 OA
ATOM     22  H   UNL     1      50.319   7.305  13.160  0.00  0.00    +0.000 HD
BRANCH  20  23
ATOM     23  C   UNL     1      50.779   7.245  15.704  0.00  0.00    +0.000 A 
ATOM     24  C   UNL     1      52.088   7.675  15.530  0.00  0.00    +0.000 A 
ATOM     25  S   UNL     1      53.227   6.783  16.431  0.00  0.00    +0.000 S 
ATOM     26  C   UNL     1      52.019   5.757  17.047  0.00  0.00    +0.000 A 
ATOM     27  N   UNL     1      52.331   4.733  17.883  0.00  0.00    +0.000 NA
ATOM     28  C   UNL     1      51.325   4.010  18.246  0.00  0.00    +0.000 A 
ATOM     29  N   UNL     1      50.032   4.223  17.853  0.00  0.00    +0.000 N 
ATOM     30  C   UNL     1      49.659   5.269  17.036  0.00  0.00    +0.000 A 
ATOM     31  O   UNL     1      48.483   5.464  16.747  0.00  0.00    +0.000 OA
ATOM     32  C   UNL     1      50.760   6.099  16.584  0.00  0.00    +0.000 A 
ATOM     33  H   UNL     1      49.286   3.621  18.174  0.00  0.00    +0.000 HD
ENDBRANCH  20  23
ENDBRANCH  18  19
ENDBRANCH   4  18
TORSDOF 7
ENDMDL
MODEL 7
REMARK VINA RESULT:    -7.137      4.124      9.018
REMARK INTER + INTRA:         -11.060
REMARK INTER:                  -9.565
REMARK INTRA:                  -1.495
REMARK UNBOUND:                -1.003
REMARK  Name = 
REMARK  8 active torsions:
REMARK  status: ('A' for Active; 'I' for Inactive)
REMARK    1  A    between atoms: C_1  and  C_2
REMARK    2  A    between atoms: C_2  and  N_3
REMARK    3  A    between atoms: C_2  and  C_11
REMARK    4  A    between atoms: N_3  and  C_4
REMARK    5  A    between atoms: C_4  and  C_5
REMARK    6  A    between atoms: C_14  and  C_15
REMARK    7  A    between atoms: C_15  and  N_16
REMARK    8  A    between atoms: C_17  and  C_19
REMARK                            x       y       z     vdW  Elec       q    Type
REMARK                         _______ _______ _______ _____ _____    ______ ____
ROOT
ATOM      1  C   UNL     1      51.474   3.539  18.073  0.00  0.00    +0.000 A 
ATOM      2  C   UNL     1      50.975   2.417  17.388  0.00  0.00    +0.000 A 
ATOM      3  C   UNL     1      49.628   2.337  17.024  0.00  0.00    +0.000 A 
ATOM      4  C   UNL     1      48.760   3.401  17.291  0.00  0.00    +0.000 A 
ATOM      5  C   UNL     1      49.258   4.532  17.947  0.00  0.00    +0.000 A 
ATOM      6  C   UNL     1      50.596   4.598  18.338  0.00  0.00    +0.000 A 
ENDROOT
BRANCH   1   8
ATOM      7  C   UNL     1      53.765   2.447  17.912  0.00  0.00    +0.000 C 
ATOM      8  C   UNL     1      52.909   3.527  18.591  0.00  0.00    +0.000 C 
BRANCH   8   9
ATOM      9  N   UNL     1      53.577   4.832  18.415  0.00  0.00    +0.000 NA
ATOM     10  H   UNL     1      54.150   5.021  19.236  0.00  0.00    +0.000 HD
BRANCH   9  11
ATOM     11  C   UNL     1      54.431   4.868  17.226  0.00  0.00    +0.000 C 
BRANCH  11  12
ATOM     12  C   UNL     1      54.048   5.971  16.272  0.00  0.00    +0.000 A 
ATOM     13  C   UNL     1      54.883   6.300  15.198  0.00  0.00    +0.000 A 
ATOM     14  C   UNL     1      54.468   7.274  14.305  0.00  0.00    +0.000 A 
ATOM     15  N   UNL     1      53.298   7.937  14.409  0.00  0.00    +0.000 NA
ATOM     16  C   UNL     1      52.509   7.609  15.457  0.00  0.00    +0.000 A 
ATOM     17  C   UNL     1      52.835   6.650  16.401  0.00  0.00    +0.000 A 
ENDBRANCH  11  12
ENDBRANCH   9  11
ENDBRANCH   8   9
ENDBRANCH   1   8
BRANCH   4  18
ATOM     18  C   UNL     1      47.297   3.312  16.957  0.00  0.00    +0.000 C 
BRANCH  18  19
ATOM     19  N   UNL     1      46.928   4.340  16.015  0.00  0.00    +0.000 N 
ATOM     20  C   UNL     1      46.976   4.109  14.665  0.00  0.00    +0.000 C 
ATOM     21  O   UNL     1      47.300   3.018  14.206  0.00  0.00    +0.000 OA
ATOM     22  H   UNL     1      46.882   5.293  16.360  0.00  0.00    +0.000 HD
BRANCH  20  23
ATOM     23  C   UNL     1      46.556   5.215  13.796  0.00  0.00    +0.000 A 
ATOM     24  C   UNL     1      47.384   6.320  13.653  0.00  0.00    +0.000 A 
ATOM     25  S   UNL     1      46.783   7.490  12.569  0.00  0.00    +0.000 S 
ATOM     26  C   UNL     1      45.371   6.586  12.290  0.00  0.00    +0.000 A 
ATOM     27  N   UNL     1      44.400   7.047  11.458  0.00  0.00    +0.000 NA
ATOM     28  C   UNL     1      43.365   6.279  11.365  0.00  0.00    +0.000 A 
ATOM     29  N   UNL     1      43.217   5.090  12.023  0.00  0.00    +0.000 N 
ATOM     30  C   UNL     1      44.188   4.563  12.848  0.00  0.00    +0.000 A 
ATOM     31  O   UNL     1      44.045   3.467  13.380  0.00  0.00    +0.000 OA
ATOM     32  C   UNL     1      45.363   5.399  13.002  0.00  0.00    +0.000 A 
ATOM     33  H   UNL     1      42.382   4.533  11.907  0.00  0.00    +0.000 HD
ENDBRANCH  20  23
ENDBRANCH  18  19
ENDBRANCH   4  18
TORSDOF 7
ENDMDL
MODEL 8
REMARK VINA RESULT:    -7.080      3.408      9.012
REMARK INTER + INTRA:         -10.980
REMARK INTER:                  -9.100
REMARK INTRA:                  -1.880
REMARK UNBOUND:                -1.003
REMARK  Name = 
REMARK  8 active torsions:
REMARK  status: ('A' for Active; 'I' for Inactive)
REMARK    1  A    between atoms: C_1  and  C_2
REMARK    2  A    between atoms: C_2  and  N_3
REMARK    3  A    between atoms: C_2  and  C_11
REMARK    4  A    between atoms: N_3  and  C_4
REMARK    5  A    between atoms: C_4  and  C_5
REMARK    6  A    between atoms: C_14  and  C_15
REMARK    7  A    between atoms: C_15  and  N_16
REMARK    8  A    between atoms: C_17  and  C_19
REMARK                            x       y       z     vdW  Elec       q    Type
REMARK                         _______ _______ _______ _____ _____    ______ ____
ROOT
ATOM      1  C   UNL     1      49.531   8.132  16.036  0.00  0.00    +0.000 A 
ATOM      2  C   UNL     1      48.332   8.803  15.731  0.00  0.00    +0.000 A 
ATOM      3  C   UNL     1      47.772   8.730  14.454  0.00  0.00    +0.000 A 
ATOM      4  C   UNL     1      48.371   7.943  13.464  0.00  0.00    +0.000 A 
ATOM      5  C   UNL     1      49.548   7.251  13.770  0.00  0.00    +0.000 A 
ATOM      6  C   UNL     1      50.124   7.349  15.037  0.00  0.00    +0.000 A 
ENDROOT
BRANCH   1   8
ATOM      7  C   UNL     1      49.246   9.017  18.404  0.00  0.00    +0.000 C 
ATOM      8  C   UNL     1      50.195   8.357  17.391  0.00  0.00    +0.000 C 
BRANCH   8   9
ATOM      9  N   UNL     1      50.705   7.101  17.977  0.00  0.00    +0.000 NA
ATOM     10  H   UNL     1      51.521   7.314  18.549  0.00  0.00    +0.000 HD
BRANCH   9  11
ATOM     11  C   UNL     1      49.708   6.428  18.813  0.00  0.00    +0.000 C 
BRANCH  11  12
ATOM     12  C   UNL     1      49.095   5.231  18.131  0.00  0.00    +0.000 A 
ATOM     13  C   UNL     1      49.832   4.052  17.973  0.00  0.00    +0.000 A 
ATOM     14  C   UNL     1      49.215   2.951  17.400  0.00  0.00    +0.000 A 
ATOM     15  N   UNL     1      47.936   2.948  16.973  0.00  0.00    +0.000 NA
ATOM     16  C   UNL     1      47.243   4.099  17.128  0.00  0.00    +0.000 A 
ATOM     17  C   UNL     1      47.771   5.250  17.690  0.00  0.00    +0.000 A 
ENDBRANCH  11  12
ENDBRANCH   9  11
ENDBRANCH   8   9
ENDBRANCH   1   8
BRANCH   4  18
ATOM     18  C   UNL     1      47.816   7.896  12.068  0.00  0.00    +0.000 C 
BRANCH  18  19
ATOM     19  N   UNL     1      47.078   6.675  11.856  0.00  0.00    +0.000 N 
ATOM     20  C   UNL     1      45.714   6.645  11.976  0.00  0.00    +0.000 C 
ATOM     21  O   UNL     1      45.064   7.654  12.233  0.00  0.00    +0.000 OA
ATOM     22  H   UNL     1      47.603   5.806  11.870  0.00  0.00    +0.000 HD
BRANCH  20  23
ATOM     23  C   UNL     1      45.060   5.356  11.714  0.00  0.00    +0.000 A 
ATOM     24  C   UNL     1      44.362   4.729  12.738  0.00  0.00    +0.000 A 
ATOM     25  S   UNL     1      43.615   3.272  12.264  0.00  0.00    +0.000 S 
ATOM     26  C   UNL     1      44.238   3.401  10.687  0.00  0.00    +0.000 A 
ATOM     27  N   UNL     1      43.989   2.443   9.757  0.00  0.00    +0.000 NA
ATOM     28  C   UNL     1      44.553   2.647   8.612  0.00  0.00    +0.000 A 
ATOM     29  N   UNL     1      45.339   3.726   8.313  0.00  0.00    +0.000 N 
ATOM     30  C   UNL     1      45.591   4.742   9.210  0.00  0.00    +0.000 A 
ATOM     31  O   UNL     1      46.255   5.723   8.892  0.00  0.00    +0.000 OA
ATOM     32  C   UNL     1      44.995   4.549  10.519  0.00  0.00    +0.000 A 
ATOM     33  H   UNL     1      45.752   3.829   7.397  0.00  0.00    +0.000 HD
ENDBRANCH  20  23
ENDBRANCH  18  19
ENDBRANCH   4  18
TORSDOF 7
ENDMDL
MODEL 9
REMARK VINA RESULT:    -6.990      4.847      9.525
REMARK INTER + INTRA:         -10.853
REMARK INTER:                  -9.653
REMARK INTRA:                  -1.199
REMARK UNBOUND:                -1.003
REMARK  Name = 
REMARK  8 active torsions:
REMARK  status: ('A' for Active; 'I' for Inactive)
REMARK    1  A    between atoms: C_1  and  C_2
REMARK    2  A    between atoms: C_2  and  N_3
REMARK    3  A    between atoms: C_2  and  C_11
REMARK    4  A    between atoms: N_3  and  C_4
REMARK    5  A    between atoms: C_4  and  C_5
REMARK    6  A    between atoms: C_14  and  C_15
REMARK    7  A    between atoms: C_15  and  N_16
REMARK    8  A    between atoms: C_17  and  C_19
REMARK                            x       y       z     vdW  Elec       q    Type
REMARK                         _______ _______ _______ _____ _____    ______ ____
ROOT
ATOM      1  C   UNL     1      51.536   3.951  17.848  0.00  0.00    +0.000 A 
ATOM      2  C   UNL     1      51.057   2.687  17.462  0.00  0.00    +0.000 A 
ATOM      3  C   UNL     1      49.715   2.499  17.122  0.00  0.00    +0.000 A 
ATOM      4  C   UNL     1      48.830   3.582  17.113  0.00  0.00    +0.000 A 
ATOM      5  C   UNL     1      49.308   4.848  17.470  0.00  0.00    +0.000 A 
ATOM      6  C   UNL     1      50.641   5.030  17.839  0.00  0.00    +0.000 A 
ENDROOT
BRANCH   1   8
ATOM      7  C   UNL     1      53.086   3.763  19.856  0.00  0.00    +0.000 C 
ATOM      8  C   UNL     1      52.967   4.089  18.359  0.00  0.00    +0.000 C 
BRANCH   8   9
ATOM      9  N   UNL     1      53.910   3.229  17.617  0.00  0.00    +0.000 NA
ATOM     10  H   UNL     1      54.514   3.820  17.047  0.00  0.00    +0.000 HD
BRANCH   9  11
ATOM     11  C   UNL     1      54.746   2.418  18.504  0.00  0.00    +0.000 C 
BRANCH  11  12
ATOM     12  C   UNL     1      54.802   0.972  18.084  0.00  0.00    +0.000 A 
ATOM     13  C   UNL     1      54.822  -0.045  19.047  0.00  0.00    +0.000 A 
ATOM     14  C   UNL     1      54.808  -1.364  18.623  0.00  0.00    +0.000 A 
ATOM     15  N   UNL     1      54.782  -1.735  17.327  0.00  0.00    +0.000 NA
ATOM     16  C   UNL     1      54.769  -0.738  16.413  0.00  0.00    +0.000 A 
ATOM     17  C   UNL     1      54.781   0.609  16.737  0.00  0.00    +0.000 A 
ENDBRANCH  11  12
ENDBRANCH   9  11
ENDBRANCH   8   9
ENDBRANCH   1   8
BRANCH   4  18
ATOM     18  C   UNL     1      47.371   3.392  16.807  0.00  0.00    +0.000 C 
BRANCH  18  19
ATOM     19  N   UNL     1      46.914   4.394  15.875  0.00  0.00    +0.000 N 
ATOM     20  C   UNL     1      46.907   4.152  14.527  0.00  0.00    +0.000 C 
ATOM     21  O   UNL     1      47.257   3.072  14.061  0.00  0.00    +0.000 OA
ATOM     22  H   UNL     1      46.842   5.347  16.215  0.00  0.00    +0.000 HD
BRANCH  20  23
ATOM     23  C   UNL     1      46.398   5.230  13.670  0.00  0.00    +0.000 A 
ATOM     24  C   UNL     1      47.156   6.383  13.505  0.00  0.00    +0.000 A 
ATOM     25  S   UNL     1      46.457   7.515  12.440  0.00  0.00    +0.000 S 
ATOM     26  C   UNL     1      45.094   6.528  12.198  0.00  0.00    +0.000 A 
ATOM     27  N   UNL     1      44.075   6.930  11.393  0.00  0.00    +0.000 NA
ATOM     28  C   UNL     1      43.085   6.102  11.328  0.00  0.00    +0.000 A 
ATOM     29  N   UNL     1      43.026   4.906  11.989  0.00  0.00    +0.000 N 
ATOM     30  C   UNL     1      44.048   4.438  12.787  0.00  0.00    +0.000 A 
ATOM     31  O   UNL     1      43.986   3.337  13.322  0.00  0.00    +0.000 OA
ATOM     32  C   UNL     1      45.176   5.343  12.909  0.00  0.00    +0.000 A 
ATOM     33  H   UNL     1      42.222   4.301  11.895  0.00  0.00    +0.000 HD
ENDBRANCH  20  23
ENDBRANCH  18  19
ENDBRANCH   4  18
TORSDOF 7
ENDMDL
