MODEL 1
REMARK VINA RESULT:    -8.888      0.000      0.000
REMARK INTER + INTRA:         -12.253
REMARK INTER:                 -11.486
REMARK INTRA:                  -0.767
REMARK UNBOUND:                -0.767
REMARK  Name = 
REMARK  5 active torsions:
REMARK  status: ('A' for Active; 'I' for Inactive)
REMARK    1  A    between atoms: C_2  and  C_4
REMARK    2  A    between atoms: N_8  and  C_9
REMARK    3  A    between atoms: C_9  and  C_10
REMARK    4  A    between atoms: C_10  and  C_11
REMARK    5  A    between atoms: C_15  and  C_16
REMARK                            x       y       z     vdW  Elec       q    Type
REMARK                         _______ _______ _______ _____ _____    ______ ____
ROOT
ATOM      1  C   UNL     1      43.152   4.566  10.995  0.00  0.00    +0.000 C 
ENDROOT
BRANCH   1   6
ATOM      2  C   UNL     1      46.418   2.379   7.735  0.00  0.00    +0.000 A 
ATOM      3  C   UNL     1      45.708   1.875   8.816  0.00  0.00    +0.000 A 
ATOM      4  C   UNL     1      44.885   2.729   9.545  0.00  0.00    +0.000 A 
ATOM      5  C   UNL     1      44.780   4.073   9.191  0.00  0.00    +0.000 A 
ATOM      6  N   UNL     1      43.973   4.956   9.869  0.00  0.00    +0.000 N 
ATOM      7  N   UNL     1      45.478   4.576   8.156  0.00  0.00    +0.000 NA
ATOM      8  C   UNL     1      46.290   3.733   7.457  0.00  0.00    +0.000 A 
ATOM      9  H   UNL     1      43.978   5.900   9.502  0.00  0.00    +0.000 HD
BRANCH   2  11
ATOM     10  N   UNL     1      48.440   2.112   6.427  0.00  0.00    +0.000 N 
ATOM     11  C   UNL     1      47.299   1.534   6.909  0.00  0.00    +0.000 C 
ATOM     12  O   UNL     1      47.037   0.359   6.685  0.00  0.00    +0.000 OA
ATOM     13  H   UNL     1      49.085   1.508   5.934  0.00  0.00    +0.000 HD
ATOM     14  H   UNL     1      48.804   2.988   6.779  0.00  0.00    +0.000 HD
ENDBRANCH   2  11
ENDBRANCH   1   6
BRANCH   1  15
ATOM     15  C   UNL     1      43.289   5.520  12.181  0.00  0.00    +0.000 C 
BRANCH  15  16
ATOM     16  C   UNL     1      44.734   5.623  12.606  0.00  0.00    +0.000 A 
ATOM     17  C   UNL     1      45.330   4.621  13.359  0.00  0.00    +0.000 A 
ATOM     18  N   UNL     1      46.629   4.627  13.722  0.00  0.00    +0.000 NA
ATOM     19  C   UNL     1      47.370   5.689  13.322  0.00  0.00    +0.000 A 
ATOM     20  C   UNL     1      46.897   6.767  12.568  0.00  0.00    +0.000 A 
ATOM     21  C   UNL     1      45.541   6.698  12.206  0.00  0.00    +0.000 A 
BRANCH  20  22
ATOM     22  C   UNL     1      47.760   7.913  12.199  0.00  0.00    +0.000 A 
ATOM     23  C   UNL     1      49.113   7.738  11.853  0.00  0.00    +0.000 A 
ATOM     24  C   UNL     1      49.912   8.815  11.452  0.00  0.00    +0.000 A 
ATOM     25  C   UNL     1      49.380  10.099  11.405  0.00  0.00    +0.000 A 
ATOM     26  C   UNL     1      48.053  10.306  11.762  0.00  0.00    +0.000 A 
ATOM     27  C   UNL     1      47.254   9.226  12.152  0.00  0.00    +0.000 A 
ENDBRANCH  20  22
ENDBRANCH  15  16
ENDBRANCH   1  15
TORSDOF 5
ENDMDL
MODEL 2
REMARK VINA RESULT:    -8.265      3.285      7.226
REMARK INTER + INTRA:         -11.448
REMARK INTER:                 -10.875
REMARK INTRA:                  -0.573
REMARK UNBOUND:                -0.767
REMARK  Name = 
REMARK  5 active torsions:
REMARK  status: ('A' for Active; 'I' for Inactive)
REMARK    1  A    between atoms: C_2  and  C_4
REMARK    2  A    between atoms: N_8  and  C_9
REMARK    3  A    between atoms: C_9  and  C_10
REMARK    4  A    between atoms: C_10  and  C_11
REMARK    5  A    between atoms: C_15  and  C_16
REMARK                            x       y       z     vdW  Elec       q    Type
REMARK                         _______ _______ _______ _____ _____    ______ ____
ROOT
ATOM      1  C   UNL     1      47.379   7.190  11.756  0.00  0.00    +0.000 C 
ENDROOT
BRANCH   1   6
ATOM      2  C   UNL     1      47.586   4.474  16.075  0.00  0.00    +0.000 A 
ATOM      3  C   UNL     1      46.890   4.281  14.890  0.00  0.00    +0.000 A 
ATOM      4  C   UNL     1      47.021   5.216  13.867  0.00  0.00    +0.000 A 
ATOM      5  C   UNL     1      47.841   6.330  14.035  0.00  0.00    +0.000 A 
ATOM      6  N   UNL     1      48.015   7.277  13.053  0.00  0.00    +0.000 N 
ATOM      7  N   UNL     1      48.507   6.536  15.187  0.00  0.00    +0.000 NA
ATOM      8  C   UNL     1      48.361   5.620  16.187  0.00  0.00    +0.000 A 
ATOM      9  H   UNL     1      48.647   8.029  13.299  0.00  0.00    +0.000 HD
BRANCH   2  11
ATOM     10  N   UNL     1      48.619   3.400  17.986  0.00  0.00    +0.000 N 
ATOM     11  C   UNL     1      47.508   3.522  17.198  0.00  0.00    +0.000 C 
ATOM     12  O   UNL     1      46.487   2.889  17.435  0.00  0.00    +0.000 OA
ATOM     13  H   UNL     1      48.534   2.812  18.806  0.00  0.00    +0.000 HD
ATOM     14  H   UNL     1      49.381   4.064  17.969  0.00  0.00    +0.000 HD
ENDBRANCH   2  11
ENDBRANCH   1   6
BRANCH   1  15
ATOM     15  C   UNL     1      45.871   7.431  11.824  0.00  0.00    +0.000 C 
BRANCH  15  16
ATOM     16  C   UNL     1      45.129   6.296  11.163  0.00  0.00    +0.000 A 
ATOM     17  C   UNL     1      43.781   6.079  11.417  0.00  0.00    +0.000 A 
ATOM     18  N   UNL     1      43.048   5.120  10.817  0.00  0.00    +0.000 NA
ATOM     19  C   UNL     1      43.693   4.330   9.922  0.00  0.00    +0.000 A 
ATOM     20  C   UNL     1      45.043   4.434   9.577  0.00  0.00    +0.000 A 
ATOM     21  C   UNL     1      45.751   5.461  10.223  0.00  0.00    +0.000 A 
BRANCH  20  22
ATOM     22  C   UNL     1      45.687   3.509   8.616  0.00  0.00    +0.000 A 
ATOM     23  C   UNL     1      46.395   3.983   7.496  0.00  0.00    +0.000 A 
ATOM     24  C   UNL     1      47.048   3.109   6.618  0.00  0.00    +0.000 A 
ATOM     25  C   UNL     1      46.994   1.736   6.831  0.00  0.00    +0.000 A 
ATOM     26  C   UNL     1      46.283   1.237   7.916  0.00  0.00    +0.000 A 
ATOM     27  C   UNL     1      45.641   2.114   8.798  0.00  0.00    +0.000 A 
ENDBRANCH  20  22
ENDBRANCH  15  16
ENDBRANCH   1  15
TORSDOF 5
ENDMDL
MODEL 3
REMARK VINA RESULT:    -8.107      3.850      7.830
REMARK INTER + INTRA:         -11.244
REMARK INTER:                 -10.730
REMARK INTRA:                  -0.514
REMARK UNBOUND:                -0.767
REMARK  Name = 
REMARK  5 active torsions:
REMARK  status: ('A' for Active; 'I' for Inactive)
REMARK    1  A    between atoms: C_2  and  C_4
REMARK    2  A    between atoms: N_8  and  C_9
REMARK    3  A    between atoms: C_9  and  C_10
REMARK    4  A    between atoms: C_10  and  C_11
REMARK    5  A    between atoms: C_15  and  C_16
REMARK                            x       y       z     vdW  Elec       q    Type
REMARK                         _______ _______ _______ _____ _____    ______ ____
ROOT
ATOM      1  C   UNL     1      46.431   6.118  12.840  0.00  0.00    +0.000 C 
ENDROOT
BRANCH   1   6
ATOM      2  C   UNL     1      48.423   4.389  17.212  0.00  0.00    +0.000 A 
ATOM      3  C   UNL     1      48.557   5.599  16.545  0.00  0.00    +0.000 A 
ATOM      4  C   UNL     1      47.890   5.786  15.338  0.00  0.00    +0.000 A 
ATOM      5  C   UNL     1      47.100   4.767  14.808  0.00  0.00    +0.000 A 
ATOM      6  N   UNL     1      46.410   4.904  13.626  0.00  0.00    +0.000 N 
ATOM      7  N   UNL     1      46.976   3.583  15.437  0.00  0.00    +0.000 NA
ATOM      8  C   UNL     1      47.644   3.408  16.613  0.00  0.00    +0.000 A 
ATOM      9  H   UNL     1      45.863   4.094  13.361  0.00  0.00    +0.000 HD
BRANCH   2  11
ATOM     10  N   UNL     1      48.449   3.275  19.364  0.00  0.00    +0.000 N 
ATOM     11  C   UNL     1      49.087   4.121  18.500  0.00  0.00    +0.000 C 
ATOM     12  O   UNL     1      50.175   4.611  18.776  0.00  0.00    +0.000 OA
ATOM     13  H   UNL     1      48.946   3.025  20.209  0.00  0.00    +0.000 HD
ATOM     14  H   UNL     1      47.684   2.677  19.083  0.00  0.00    +0.000 HD
ENDBRANCH   2  11
ENDBRANCH   1   6
BRANCH   1  15
ATOM     15  C   UNL     1      45.150   6.315  12.028  0.00  0.00    +0.000 C 
BRANCH  15  16
ATOM     16  C   UNL     1      44.764   5.030  11.339  0.00  0.00    +0.000 A 
ATOM     17  C   UNL     1      43.679   4.282  11.777  0.00  0.00    +0.000 A 
ATOM     18  N   UNL     1      43.249   3.157  11.171  0.00  0.00    +0.000 NA
ATOM     19  C   UNL     1      43.940   2.750  10.077  0.00  0.00    +0.000 A 
ATOM     20  C   UNL     1      45.051   3.401   9.534  0.00  0.00    +0.000 A 
ATOM     21  C   UNL     1      45.443   4.576  10.198  0.00  0.00    +0.000 A 
BRANCH  20  22
ATOM     22  C   UNL     1      45.778   2.876   8.356  0.00  0.00    +0.000 A 
ATOM     23  C   UNL     1      46.102   3.698   7.260  0.00  0.00    +0.000 A 
ATOM     24  C   UNL     1      46.836   3.211   6.171  0.00  0.00    +0.000 A 
ATOM     25  C   UNL     1      47.249   1.884   6.145  0.00  0.00    +0.000 A 
ATOM     26  C   UNL     1      46.925   1.043   7.202  0.00  0.00    +0.000 A 
ATOM     27  C   UNL     1      46.201   1.534   8.294  0.00  0.00    +0.000 A 
ENDBRANCH  20  22
ENDBRANCH  15  16
ENDBRANCH   1  15
TORSDOF 5
ENDMDL
MODEL 4
REMARK VINA RESULT:    -7.871      3.135      6.901
REMARK INTER + INTRA:         -10.939
REMARK INTER:                 -10.238
REMARK INTRA:                  -0.701
REMARK UNBOUND:                -0.767
REMARK  Name = 
REMARK  5 active torsions:
REMARK  status: ('A' for Active; 'I' for Inactive)
REMARK    1  A    between atoms: C_2  and  C_4
REMARK    2  A    between atoms: N_8  and  C_9
REMARK    3  A    between atoms: C_9  and  C_10
REMARK    4  A    between atoms: C_10  and  C_11
REMARK    5  A    between atoms: C_15  and  C_16
REMARK                            x       y       z     vdW  Elec       q    Type
REMARK                         _______ _______ _______ _____ _____    ______ ____
ROOT
ATOM      1  C   UNL     1      44.660   6.464  12.887  0.00  0.00    +0.000 C 
ENDROOT
BRANCH   1   6
ATOM      2  C   UNL     1      49.371   8.269  12.092  0.00  0.00    +0.000 A 
ATOM      3  C   UNL     1      48.116   8.824  11.881  0.00  0.00    +0.000 A 
ATOM      4  C   UNL     1      46.983   8.075  12.186  0.00  0.00    +0.000 A 
ATOM      5  C   UNL     1      47.111   6.784  12.694  0.00  0.00    +0.000 A 
ATOM      6  N   UNL     1      46.026   6.006  13.023  0.00  0.00    +0.000 N 
ATOM      7  N   UNL     1      48.323   6.229  12.886  0.00  0.00    +0.000 NA
ATOM      8  C   UNL     1      49.425   6.968  12.573  0.00  0.00    +0.000 A 
ATOM      9  H   UNL     1      46.258   5.093  13.395  0.00  0.00    +0.000 HD
BRANCH   2  11
ATOM     10  N   UNL     1      51.662   8.282  11.304  0.00  0.00    +0.000 N 
ATOM     11  C   UNL     1      50.615   9.005  11.806  0.00  0.00    +0.000 C 
ATOM     12  O   UNL     1      50.702  10.213  11.982  0.00  0.00    +0.000 OA
ATOM     13  H   UNL     1      52.485   8.802  11.028  0.00  0.00    +0.000 HD
ATOM     14  H   UNL     1      51.556   7.349  10.929  0.00  0.00    +0.000 HD
ENDBRANCH   2  11
ENDBRANCH   1   6
BRANCH   1  15
ATOM     15  C   UNL     1      44.153   6.380  11.447  0.00  0.00    +0.000 C 
BRANCH  15  16
ATOM     16  C   UNL     1      44.181   4.951  10.964  0.00  0.00    +0.000 A 
ATOM     17  C   UNL     1      43.396   3.978  11.568  0.00  0.00    +0.000 A 
ATOM     18  N   UNL     1      43.333   2.698  11.149  0.00  0.00    +0.000 NA
ATOM     19  C   UNL     1      44.097   2.368  10.078  0.00  0.00    +0.000 A 
ATOM     20  C   UNL     1      44.935   3.243   9.382  0.00  0.00    +0.000 A 
ATOM     21  C   UNL     1      44.947   4.567   9.854  0.00  0.00    +0.000 A 
BRANCH  20  22
ATOM     22  C   UNL     1      45.769   2.800   8.241  0.00  0.00    +0.000 A 
ATOM     23  C   UNL     1      46.096   3.668   7.183  0.00  0.00    +0.000 A 
ATOM     24  C   UNL     1      46.928   3.263   6.133  0.00  0.00    +0.000 A 
ATOM     25  C   UNL     1      47.441   1.971   6.107  0.00  0.00    +0.000 A 
ATOM     26  C   UNL     1      47.119   1.084   7.127  0.00  0.00    +0.000 A 
ATOM     27  C   UNL     1      46.295   1.495   8.181  0.00  0.00    +0.000 A 
ENDBRANCH  20  22
ENDBRANCH  15  16
ENDBRANCH   1  15
TORSDOF 5
ENDMDL
MODEL 5
REMARK VINA RESULT:    -6.808      3.755      7.928
REMARK INTER + INTRA:          -9.565
REMARK INTER:                  -8.979
REMARK INTRA:                  -0.586
REMARK UNBOUND:                -0.767
REMARK  Name = 
REMARK  5 active torsions:
REMARK  status: ('A' for Active; 'I' for Inactive)
REMARK    1  A    between atoms: C_2  and  C_4
REMARK    2  A    between atoms: N_8  and  C_9
REMARK    3  A    between atoms: C_9  and  C_10
REMARK    4  A    between atoms: C_10  and  C_11
REMARK    5  A    between atoms: C_15  and  C_16
REMARK                            x       y       z     vdW  Elec       q    Type
REMARK                         _______ _______ _______ _____ _____    ______ ____
ROOT
ATOM      1  C   UNL     1      46.360   6.640  11.659  0.00  0.00    +0.000 C 
ENDROOT
BRANCH   1   6
ATOM      2  C   UNL     1      49.111   8.066  15.719  0.00  0.00    +0.000 A 
ATOM      3  C   UNL     1      48.812   6.817  15.192  0.00  0.00    +0.000 A 
ATOM      4  C   UNL     1      48.009   6.733  14.058  0.00  0.00    +0.000 A 
ATOM      5  C   UNL     1      47.513   7.892  13.463  0.00  0.00    +0.000 A 
ATOM      6  N   UNL     1      46.726   7.866  12.335  0.00  0.00    +0.000 N 
ATOM      7  N   UNL     1      47.782   9.107  13.976  0.00  0.00    +0.000 NA
ATOM      8  C   UNL     1      48.559   9.175  15.094  0.00  0.00    +0.000 A 
ATOM      9  H   UNL     1      46.444   8.778  11.997  0.00  0.00    +0.000 HD
BRANCH   2  11
ATOM     10  N   UNL     1      49.338   8.246  18.124  0.00  0.00    +0.000 N 
ATOM     11  C   UNL     1      49.964   8.235  16.909  0.00  0.00    +0.000 C 
ATOM     12  O   UNL     1      51.181   8.333  16.818  0.00  0.00    +0.000 OA
ATOM     13  H   UNL     1      49.932   8.275  18.943  0.00  0.00    +0.000 HD
ATOM     14  H   UNL     1      48.384   7.936  18.255  0.00  0.00    +0.000 HD
ENDBRANCH   2  11
ENDBRANCH   1   6
BRANCH   1  15
ATOM     15  C   UNL     1      44.982   6.128  12.077  0.00  0.00    +0.000 C 
BRANCH  15  16
ATOM     16  C   UNL     1      44.675   4.824  11.382  0.00  0.00    +0.000 A 
ATOM     17  C   UNL     1      43.662   3.992  11.840  0.00  0.00    +0.000 A 
ATOM     18  N   UNL     1      43.301   2.844  11.233  0.00  0.00    +0.000 NA
ATOM     19  C   UNL     1      43.990   2.502  10.115  0.00  0.00    +0.000 A 
ATOM     20  C   UNL     1      45.033   3.241   9.550  0.00  0.00    +0.000 A 
ATOM     21  C   UNL     1      45.353   4.436  10.218  0.00  0.00    +0.000 A 
BRANCH  20  22
ATOM     22  C   UNL     1      45.764   2.785   8.346  0.00  0.00    +0.000 A 
ATOM     23  C   UNL     1      46.030   3.652   7.270  0.00  0.00    +0.000 A 
ATOM     24  C   UNL     1      46.767   3.233   6.156  0.00  0.00    +0.000 A 
ATOM     25  C   UNL     1      47.243   1.928   6.084  0.00  0.00    +0.000 A 
ATOM     26  C   UNL     1      46.977   1.042   7.122  0.00  0.00    +0.000 A 
ATOM     27  C   UNL     1      46.249   1.467   8.239  0.00  0.00    +0.000 A 
ENDBRANCH  20  22
ENDBRANCH  15  16
ENDBRANCH   1  15
TORSDOF 5
ENDMDL
MODEL 6
REMARK VINA RESULT:    -6.655      5.031      7.288
REMARK INTER + INTRA:          -9.367
REMARK INTER:                  -8.509
REMARK INTRA:                  -0.858
REMARK UNBOUND:                -0.767
REMARK  Name = 
REMARK  5 active torsions:
REMARK  status: ('A' for Active; 'I' for Inactive)
REMARK    1  A    between atoms: C_2  and  C_4
REMARK    2  A    between atoms: N_8  and  C_9
REMARK    3  A    between atoms: C_9  and  C_10
REMARK    4  A    between atoms: C_10  and  C_11
REMARK    5  A    between atoms: C_15  and  C_16
REMARK                            x       y       z     vdW  Elec       q    Type
REMARK                         _______ _______ _______ _____ _____    ______ ____
ROOT
ATOM      1  C   UNL     1      48.862   6.852  14.678  0.00  0.00    +0.000 C 
ENDROOT
BRANCH   1   6
ATOM      2  C   UNL     1      44.835   4.509  12.587  0.00  0.00    +0.000 A 
ATOM      3  C   UNL     1      46.007   4.019  13.146  0.00  0.00    +0.000 A 
ATOM      4  C   UNL     1      46.952   4.916  13.636  0.00  0.00    +0.000 A 
ATOM      5  C   UNL     1      46.721   6.288  13.563  0.00  0.00    +0.000 A 
ATOM      6  N   UNL     1      47.615   7.217  14.042  0.00  0.00    +0.000 N 
ATOM      7  N   UNL     1      45.596   6.775  13.006  0.00  0.00    +0.000 NA
ATOM      8  C   UNL     1      44.683   5.887  12.519  0.00  0.00    +0.000 A 
ATOM      9  H   UNL     1      47.319   8.180  13.939  0.00  0.00    +0.000 HD
BRANCH   2  11
ATOM     10  N   UNL     1      43.847   2.303  12.416  0.00  0.00    +0.000 N 
ATOM     11  C   UNL     1      43.783   3.622  12.060  0.00  0.00    +0.000 C 
ATOM     12  O   UNL     1      42.876   4.048  11.357  0.00  0.00    +0.000 OA
ATOM     13  H   UNL     1      43.077   1.714  12.125  0.00  0.00    +0.000 HD
ATOM     14  H   UNL     1      44.429   1.965  13.171  0.00  0.00    +0.000 HD
ENDBRANCH   2  11
ENDBRANCH   1   6
BRANCH   1  15
ATOM     15  C   UNL     1      48.797   6.954  16.202  0.00  0.00    +0.000 C 
BRANCH  15  16
ATOM     16  C   UNL     1      48.832   5.578  16.821  0.00  0.00    +0.000 A 
ATOM     17  C   UNL     1      47.661   4.933  17.194  0.00  0.00    +0.000 A 
ATOM     18  N   UNL     1      47.620   3.684  17.700  0.00  0.00    +0.000 NA
ATOM     19  C   UNL     1      48.808   3.047  17.850  0.00  0.00    +0.000 A 
ATOM     20  C   UNL     1      50.058   3.579  17.522  0.00  0.00    +0.000 A 
ATOM     21  C   UNL     1      50.036   4.878  16.985  0.00  0.00    +0.000 A 
BRANCH  20  22
ATOM     22  C   UNL     1      51.319   2.836  17.748  0.00  0.00    +0.000 A 
ATOM     23  C   UNL     1      51.445   1.475  17.411  0.00  0.00    +0.000 A 
ATOM     24  C   UNL     1      52.654   0.788  17.576  0.00  0.00    +0.000 A 
ATOM     25  C   UNL     1      53.763   1.443  18.100  0.00  0.00    +0.000 A 
ATOM     26  C   UNL     1      53.663   2.781  18.462  0.00  0.00    +0.000 A 
ATOM     27  C   UNL     1      52.456   3.468  18.286  0.00  0.00    +0.000 A 
ENDBRANCH  20  22
ENDBRANCH  15  16
ENDBRANCH   1  15
TORSDOF 5
ENDMDL
MODEL 7
REMARK VINA RESULT:    -6.650      4.490      7.334
REMARK INTER + INTRA:          -9.361
REMARK INTER:                  -8.164
REMARK INTRA:                  -1.197
REMARK UNBOUND:                -0.767
REMARK  Name = 
REMARK  5 active torsions:
REMARK  status: ('A' for Active; 'I' for Inactive)
REMARK    1  A    between atoms: C_2  and  C_4
REMARK    2  A    between atoms: N_8  and  C_9
REMARK    3  A    between atoms: C_9  and  C_10
REMARK    4  A    between atoms: C_10  and  C_11
REMARK    5  A    between atoms: C_15  and  C_16
REMARK                            x       y       z     vdW  Elec       q    Type
REMARK                         _______ _______ _______ _____ _____    ______ ____
ROOT
ATOM      1  C   UNL     1      47.557   9.799  12.139  0.00  0.00    +0.000 C 
ENDROOT
BRANCH   1   6
ATOM      2  C   UNL     1      42.632  10.502  10.991  0.00  0.00    +0.000 A 
ATOM      3  C   UNL     1      43.463   9.397  10.874  0.00  0.00    +0.000 A 
ATOM      4  C   UNL     1      44.795   9.506  11.264  0.00  0.00    +0.000 A 
ATOM      5  C   UNL     1      45.284  10.713  11.763  0.00  0.00    +0.000 A 
ATOM      6  N   UNL     1      46.586  10.872  12.173  0.00  0.00    +0.000 N 
ATOM      7  N   UNL     1      44.490  11.796  11.863  0.00  0.00    +0.000 NA
ATOM      8  C   UNL     1      43.191  11.680  11.467  0.00  0.00    +0.000 A 
ATOM      9  H   UNL     1      46.808  11.794  12.528  0.00  0.00    +0.000 HD
BRANCH   2  11
ATOM     10  N   UNL     1      40.426   9.529  11.237  0.00  0.00    +0.000 N 
ATOM     11  C   UNL     1      41.208  10.459  10.611  0.00  0.00    +0.000 C 
ATOM     12  O   UNL     1      40.738  11.239   9.792  0.00  0.00    +0.000 OA
ATOM     13  H   UNL     1      39.434   9.559  11.040  0.00  0.00    +0.000 HD
ATOM     14  H   UNL     1      40.717   9.039  12.073  0.00  0.00    +0.000 HD
ENDBRANCH   2  11
ENDBRANCH   1   6
BRANCH   1  15
ATOM     15  C   UNL     1      47.989   9.353  13.536  0.00  0.00    +0.000 C 
BRANCH  15  16
ATOM     16  C   UNL     1      47.720   7.880  13.722  0.00  0.00    +0.000 A 
ATOM     17  C   UNL     1      48.504   7.113  14.574  0.00  0.00    +0.000 A 
ATOM     18  N   UNL     1      48.282   5.808  14.826  0.00  0.00    +0.000 NA
ATOM     19  C   UNL     1      47.229   5.234  14.192  0.00  0.00    +0.000 A 
ATOM     20  C   UNL     1      46.365   5.885  13.308  0.00  0.00    +0.000 A 
ATOM     21  C   UNL     1      46.636   7.248  13.096  0.00  0.00    +0.000 A 
BRANCH  20  22
ATOM     22  C   UNL     1      45.256   5.182  12.624  0.00  0.00    +0.000 A 
ATOM     23  C   UNL     1      45.249   3.783  12.473  0.00  0.00    +0.000 A 
ATOM     24  C   UNL     1      44.174   3.115  11.872  0.00  0.00    +0.000 A 
ATOM     25  C   UNL     1      43.086   3.835  11.393  0.00  0.00    +0.000 A 
ATOM     26  C   UNL     1      43.073   5.220  11.509  0.00  0.00    +0.000 A 
ATOM     27  C   UNL     1      44.144   5.883  12.118  0.00  0.00    +0.000 A 
ENDBRANCH  20  22
ENDBRANCH  15  16
ENDBRANCH   1  15
TORSDOF 5
ENDMDL
MODEL 8
REMARK VINA RESULT:    -6.640      3.771      7.450
REMARK INTER + INTRA:          -9.349
REMARK INTER:                  -8.372
REMARK INTRA:                  -0.977
REMARK UNBOUND:                -0.767
REMARK  Name = 
REMARK  5 active torsions:
REMARK  status: ('A' for Active; 'I' for Inactive)
REMARK    1  A    between atoms: C_2  and  C_4
REMARK    2  A    between atoms: N_8  and  C_9
REMARK    3  A    between atoms: C_9  and  C_10
REMARK    4  A    between atoms: C_10  and  C_11
REMARK    5  A    between atoms: C_15  and  C_16
REMARK                            x       y       z     vdW  Elec       q    Type
REMARK                         _______ _______ _______ _____ _____    ______ ____
ROOT
ATOM      1  C   UNL     1      49.393   7.710  12.889  0.00  0.00    +0.000 C 
ENDROOT
BRANCH   1   6
ATOM      2  C   UNL     1      47.961   4.623  16.697  0.00  0.00    +0.000 A 
ATOM      3  C   UNL     1      47.449   4.823  15.422  0.00  0.00    +0.000 A 
ATOM      4  C   UNL     1      48.053   5.761  14.589  0.00  0.00    +0.000 A 
ATOM      5  C   UNL     1      49.155   6.489  15.034  0.00  0.00    +0.000 A 
ATOM      6  N   UNL     1      49.795   7.419  14.249  0.00  0.00    +0.000 N 
ATOM      7  N   UNL     1      49.648   6.316  16.275  0.00  0.00    +0.000 NA
ATOM      8  C   UNL     1      49.042   5.403  17.086  0.00  0.00    +0.000 A 
ATOM      9  H   UNL     1      50.590   7.867  14.688  0.00  0.00    +0.000 HD
BRANCH   2  11
ATOM     10  N   UNL     1      47.974   3.531  18.860  0.00  0.00    +0.000 N 
ATOM     11  C   UNL     1      47.385   3.639  17.630  0.00  0.00    +0.000 C 
ATOM     12  O   UNL     1      46.406   2.966  17.332  0.00  0.00    +0.000 OA
ATOM     13  H   UNL     1      47.525   2.918  19.529  0.00  0.00    +0.000 HD
ATOM     14  H   UNL     1      48.619   4.219  19.223  0.00  0.00    +0.000 HD
ENDBRANCH   2  11
ENDBRANCH   1   6
BRANCH   1  15
ATOM     15  C   UNL     1      48.448   8.908  12.799  0.00  0.00    +0.000 C 
BRANCH  15  16
ATOM     16  C   UNL     1      47.085   8.466  12.325  0.00  0.00    +0.000 A 
ATOM     17  C   UNL     1      46.004   9.337  12.349  0.00  0.00    +0.000 A 
ATOM     18  N   UNL     1      44.776   9.022  11.889  0.00  0.00    +0.000 NA
ATOM     19  C   UNL     1      44.615   7.774  11.385  0.00  0.00    +0.000 A 
ATOM     20  C   UNL     1      45.613   6.799  11.306  0.00  0.00    +0.000 A 
ATOM     21  C   UNL     1      46.874   7.189  11.787  0.00  0.00    +0.000 A 
BRANCH  20  22
ATOM     22  C   UNL     1      45.351   5.441  10.775  0.00  0.00    +0.000 A 
ATOM     23  C   UNL     1      44.933   4.388  11.610  0.00  0.00    +0.000 A 
ATOM     24  C   UNL     1      44.636   3.120  11.098  0.00  0.00    +0.000 A 
ATOM     25  C   UNL     1      44.767   2.868   9.737  0.00  0.00    +0.000 A 
ATOM     26  C   UNL     1      45.200   3.882   8.890  0.00  0.00    +0.000 A 
ATOM     27  C   UNL     1      45.486   5.152   9.404  0.00  0.00    +0.000 A 
ENDBRANCH  20  22
ENDBRANCH  15  16
ENDBRANCH   1  15
TORSDOF 5
ENDMDL
MODEL 9
REMARK VINA RESULT:    -6.443      5.070      6.729
REMARK INTER + INTRA:          -9.093
REMARK INTER:                  -8.496
REMARK INTRA:                  -0.597
REMARK UNBOUND:                -0.767
REMARK  Name = 
REMARK  5 active torsions:
REMARK  status: ('A' for Active; 'I' for Inactive)
REMARK    1  A    between atoms: C_2  and  C_4
REMARK    2  A    between atoms: N_8  and  C_9
REMARK    3  A    between atoms: C_9  and  C_10
REMARK    4  A    between atoms: C_10  and  C_11
REMARK    5  A    between atoms: C_15  and  C_16
REMARK                            x       y       z     vdW  Elec       q    Type
REMARK                         _______ _______ _______ _____ _____    ______ ____
ROOT
ATOM      1  C   UNL     1      48.163   7.038  14.386  0.00  0.00    +0.000 C 
ENDROOT
BRANCH   1   6
ATOM      2  C   UNL     1      45.008   4.418  11.343  0.00  0.00    +0.000 A 
ATOM      3  C   UNL     1      45.687   5.615  11.165  0.00  0.00    +0.000 A 
ATOM      4  C   UNL     1      46.483   6.103  12.198  0.00  0.00    +0.000 A 
ATOM      5  C   UNL     1      46.592   5.396  13.394  0.00  0.00    +0.000 A 
ATOM      6  N   UNL     1      47.374   5.826  14.440  0.00  0.00    +0.000 N 
ATOM      7  N   UNL     1      45.924   4.242  13.583  0.00  0.00    +0.000 NA
ATOM      8  C   UNL     1      45.138   3.781  12.569  0.00  0.00    +0.000 A 
ATOM      9  H   UNL     1      47.376   5.212  15.246  0.00  0.00    +0.000 HD
BRANCH   2  11
ATOM     10  N   UNL     1      43.983   4.567   9.152  0.00  0.00    +0.000 N 
ATOM     11  C   UNL     1      44.157   3.832  10.292  0.00  0.00    +0.000 C 
ATOM     12  O   UNL     1      43.650   2.725  10.418  0.00  0.00    +0.000 OA
ATOM     13  H   UNL     1      43.471   4.127   8.398  0.00  0.00    +0.000 HD
ATOM     14  H   UNL     1      44.563   5.361   8.916  0.00  0.00    +0.000 HD
ENDBRANCH   2  11
ENDBRANCH   1   6
BRANCH   1  15
ATOM     15  C   UNL     1      49.469   6.925  15.172  0.00  0.00    +0.000 C 
BRANCH  15  16
ATOM     16  C   UNL     1      49.185   6.575  16.612  0.00  0.00    +0.000 A 
ATOM     17  C   UNL     1      49.545   5.338  17.130  0.00  0.00    +0.000 A 
ATOM     18  N   UNL     1      49.370   4.985  18.419  0.00  0.00    +0.000 NA
ATOM     19  C   UNL     1      48.801   5.908  19.234  0.00  0.00    +0.000 A 
ATOM     20  C   UNL     1      48.388   7.184  18.844  0.00  0.00    +0.000 A 
ATOM     21  C   UNL     1      48.609   7.502  17.493  0.00  0.00    +0.000 A 
BRANCH  20  22
ATOM     22  C   UNL     1      47.739   8.128  19.784  0.00  0.00    +0.000 A 
ATOM     23  C   UNL     1      47.178   9.341  19.344  0.00  0.00    +0.000 A 
ATOM     24  C   UNL     1      46.519  10.206  20.226  0.00  0.00    +0.000 A 
ATOM     25  C   UNL     1      46.420   9.885  21.575  0.00  0.00    +0.000 A 
ATOM     26  C   UNL     1      46.983   8.703  22.043  0.00  0.00    +0.000 A 
ATOM     27  C   UNL     1      47.632   7.836  21.157  0.00  0.00    +0.000 A 
ENDBRANCH  20  22
ENDBRANCH  15  16
ENDBRANCH   1  15
TORSDOF 5
ENDMDL
