MODEL 1
REMARK VINA RESULT:    -8.276      0.000      0.000
REMARK INTER + INTRA:         -11.225
REMARK INTER:                 -10.695
REMARK INTRA:                  -0.530
REMARK UNBOUND:                -0.530
REMARK  Name = 
REMARK  5 active torsions:
REMARK  status: ('A' for Active; 'I' for Inactive)
REMARK    1  A    between atoms: C_2  and  C_4
REMARK    2  A    between atoms: C_7  and  N_8
REMARK    3  A    between atoms: N_8  and  C_9
REMARK    4  A    between atoms: C_9  and  C_10
REMARK    5  A    between atoms: C_14  and  N_15
REMARK                            x       y       z     vdW  Elec       q    Type
REMARK                         _______ _______ _______ _____ _____    ______ ____
ROOT
ATOM      1  N   UNL     1      43.850   4.872   9.714  0.00  0.00    +0.000 N 
ATOM      2  H   UNL     1      43.031   5.006   9.128  0.00  0.00    +0.000 HD
ENDROOT
BRANCH   1   6
ATOM      3  C   UNL     1      46.525   2.549   7.633  0.00  0.00    +0.000 A 
ATOM      4  C   UNL     1      46.562   3.930   7.532  0.00  0.00    +0.000 A 
ATOM      5  N   UNL     1      45.722   4.742   8.232  0.00  0.00    +0.000 NA
ATOM      6  C   UNL     1      44.836   4.137   9.050  0.00  0.00    +0.000 A 
ATOM      7  C   UNL     1      44.830   2.736   9.149  0.00  0.00    +0.000 A 
ATOM      8  N   UNL     1      45.658   1.906   8.458  0.00  0.00    +0.000 NA
BRANCH   3  10
ATOM      9  N   UNL     1      48.526   2.349   6.272  0.00  0.00    +0.000 N 
ATOM     10  C   UNL     1      47.430   1.718   6.792  0.00  0.00    +0.000 C 
ATOM     11  O   UNL     1      47.220   0.526   6.594  0.00  0.00    +0.000 OA
ATOM     12  H   UNL     1      49.201   1.807   5.751  0.00  0.00    +0.000 HD
ATOM     13  H   UNL     1      48.732   3.309   6.526  0.00  0.00    +0.000 HD
ENDBRANCH   3  10
ENDBRANCH   1   6
BRANCH   1  14
ATOM     14  C   UNL     1      43.495   4.439  11.061  0.00  0.00    +0.000 C 
BRANCH  14  15
ATOM     15  C   UNL     1      44.682   4.628  11.971  0.00  0.00    +0.000 A 
ATOM     16  C   UNL     1      45.232   3.570  12.678  0.00  0.00    +0.000 A 
ATOM     17  N   UNL     1      46.325   3.677  13.461  0.00  0.00    +0.000 NA
ATOM     18  C   UNL     1      46.897   4.906  13.534  0.00  0.00    +0.000 A 
ATOM     19  C   UNL     1      46.455   6.059  12.878  0.00  0.00    +0.000 A 
ATOM     20  C   UNL     1      45.316   5.879  12.087  0.00  0.00    +0.000 A 
BRANCH  19  21
ATOM     21  N   UNL     1      47.094   7.272  12.992  0.00  0.00    +0.000 N 
ATOM     22  C   UNL     1      46.391   8.539  13.244  0.00  0.00    +0.000 C 
ATOM     23  C   UNL     1      46.719   9.552  12.140  0.00  0.00    +0.000 C 
ATOM     24  O   UNL     1      48.139   9.727  11.984  0.00  0.00    +0.000 OA
ATOM     25  C   UNL     1      48.761   8.475  11.651  0.00  0.00    +0.000 C 
ATOM     26  C   UNL     1      48.539   7.419  12.748  0.00  0.00    +0.000 C 
ENDBRANCH  19  21
ENDBRANCH  14  15
ENDBRANCH   1  14
TORSDOF 5
ENDMDL
MODEL 2
REMARK VINA RESULT:    -8.111      1.937      2.895
REMARK INTER + INTRA:         -11.012
REMARK INTER:                 -10.324
REMARK INTRA:                  -0.688
REMARK UNBOUND:                -0.530
REMARK  Name = 
REMARK  5 active torsions:
REMARK  status: ('A' for Active; 'I' for Inactive)
REMARK    1  A    between atoms: C_2  and  C_4
REMARK    2  A    between atoms: C_7  and  N_8
REMARK    3  A    between atoms: N_8  and  C_9
REMARK    4  A    between atoms: C_9  and  C_10
REMARK    5  A    between atoms: C_14  and  N_15
REMARK                            x       y       z     vdW  Elec       q    Type
REMARK                         _______ _______ _______ _____ _____    ______ ____
ROOT
ATOM      1  N   UNL     1      43.597   4.772   9.581  0.00  0.00    +0.000 N 
ATOM      2  H   UNL     1      42.717   4.619   9.096  0.00  0.00    +0.000 HD
ENDROOT
BRANCH   1   6
ATOM      3  C   UNL     1      46.398   2.319   7.844  0.00  0.00    +0.000 A 
ATOM      4  C   UNL     1      46.374   3.674   7.558  0.00  0.00    +0.000 A 
ATOM      5  N   UNL     1      45.489   4.532   8.139  0.00  0.00    +0.000 NA
ATOM      6  C   UNL     1      44.623   4.001   9.026  0.00  0.00    +0.000 A 
ATOM      7  C   UNL     1      44.680   2.628   9.314  0.00  0.00    +0.000 A 
ATOM      8  N   UNL     1      45.553   1.752   8.744  0.00  0.00    +0.000 NA
BRANCH   3  10
ATOM      9  N   UNL     1      48.433   2.030   6.551  0.00  0.00    +0.000 N 
ATOM     10  C   UNL     1      47.350   1.425   7.127  0.00  0.00    +0.000 C 
ATOM     11  O   UNL     1      47.187   0.211   7.074  0.00  0.00    +0.000 OA
ATOM     12  H   UNL     1      49.138   1.453   6.112  0.00  0.00    +0.000 HD
ATOM     13  H   UNL     1      48.600   3.020   6.688  0.00  0.00    +0.000 HD
ENDBRANCH   3  10
ENDBRANCH   1   6
BRANCH   1  14
ATOM     14  C   UNL     1      43.440   4.721  11.030  0.00  0.00    +0.000 C 
BRANCH  14  15
ATOM     15  C   UNL     1      44.478   5.608  11.671  0.00  0.00    +0.000 A 
ATOM     16  C   UNL     1      44.485   6.980  11.471  0.00  0.00    +0.000 A 
ATOM     17  N   UNL     1      45.356   7.821  12.064  0.00  0.00    +0.000 NA
ATOM     18  C   UNL     1      46.263   7.258  12.903  0.00  0.00    +0.000 A 
ATOM     19  C   UNL     1      46.373   5.895  13.200  0.00  0.00    +0.000 A 
ATOM     20  C   UNL     1      45.442   5.079  12.548  0.00  0.00    +0.000 A 
BRANCH  19  21
ATOM     21  N   UNL     1      47.315   5.396  14.070  0.00  0.00    +0.000 N 
ATOM     22  C   UNL     1      47.250   4.047  14.651  0.00  0.00    +0.000 C 
ATOM     23  C   UNL     1      47.272   4.131  16.183  0.00  0.00    +0.000 C 
ATOM     24  O   UNL     1      48.404   4.885  16.656  0.00  0.00    +0.000 OA
ATOM     25  C   UNL     1      48.368   6.221  16.129  0.00  0.00    +0.000 C 
ATOM     26  C   UNL     1      48.414   6.227  14.590  0.00  0.00    +0.000 C 
ENDBRANCH  19  21
ENDBRANCH  14  15
ENDBRANCH   1  14
TORSDOF 5
ENDMDL
MODEL 3
REMARK VINA RESULT:    -7.039      3.598      8.260
REMARK INTER + INTRA:          -9.626
REMARK INTER:                  -9.173
REMARK INTRA:                  -0.454
REMARK UNBOUND:                -0.530
REMARK  Name = 
REMARK  5 active torsions:
REMARK  status: ('A' for Active; 'I' for Inactive)
REMARK    1  A    between atoms: C_2  and  C_4
REMARK    2  A    between atoms: C_7  and  N_8
REMARK    3  A    between atoms: N_8  and  C_9
REMARK    4  A    between atoms: C_9  and  C_10
REMARK    5  A    between atoms: C_14  and  N_15
REMARK                            x       y       z     vdW  Elec       q    Type
REMARK                         _______ _______ _______ _____ _____    ______ ____
ROOT
ATOM      1  N   UNL     1      46.803   3.841  14.516  0.00  0.00    +0.000 N 
ATOM      2  H   UNL     1      46.066   3.142  14.528  0.00  0.00    +0.000 HD
ENDROOT
BRANCH   1   6
ATOM      3  C   UNL     1      48.267   4.645  18.270  0.00  0.00    +0.000 A 
ATOM      4  C   UNL     1      47.582   3.468  18.018  0.00  0.00    +0.000 A 
ATOM      5  N   UNL     1      47.113   3.140  16.781  0.00  0.00    +0.000 NA
ATOM      6  C   UNL     1      47.350   4.023  15.789  0.00  0.00    +0.000 A 
ATOM      7  C   UNL     1      48.064   5.201  16.066  0.00  0.00    +0.000 A 
ATOM      8  N   UNL     1      48.539   5.549  17.293  0.00  0.00    +0.000 NA
BRANCH   3  10
ATOM      9  N   UNL     1      48.511   3.994  20.597  0.00  0.00    +0.000 N 
ATOM     10  C   UNL     1      48.699   4.970  19.658  0.00  0.00    +0.000 C 
ATOM     11  O   UNL     1      49.217   6.045  19.942  0.00  0.00    +0.000 OA
ATOM     12  H   UNL     1      48.850   4.148  21.536  0.00  0.00    +0.000 HD
ATOM     13  H   UNL     1      48.171   3.079  20.323  0.00  0.00    +0.000 HD
ENDBRANCH   3  10
ENDBRANCH   1   6
BRANCH   1  14
ATOM     14  C   UNL     1      46.411   5.040  13.785  0.00  0.00    +0.000 C 
BRANCH  14  15
ATOM     15  C   UNL     1      45.253   4.711  12.878  0.00  0.00    +0.000 A 
ATOM     16  C   UNL     1      43.943   4.975  13.247  0.00  0.00    +0.000 A 
ATOM     17  N   UNL     1      42.878   4.750  12.451  0.00  0.00    +0.000 NA
ATOM     18  C   UNL     1      43.141   4.238  11.221  0.00  0.00    +0.000 A 
ATOM     19  C   UNL     1      44.407   3.924  10.715  0.00  0.00    +0.000 A 
ATOM     20  C   UNL     1      45.465   4.178  11.594  0.00  0.00    +0.000 A 
BRANCH  19  21
ATOM     21  N   UNL     1      44.598   3.415   9.451  0.00  0.00    +0.000 N 
ATOM     22  C   UNL     1      44.570   1.978   9.142  0.00  0.00    +0.000 C 
ATOM     23  C   UNL     1      45.885   1.557   8.472  0.00  0.00    +0.000 C 
ATOM     24  O   UNL     1      46.177   2.368   7.319  0.00  0.00    +0.000 OA
ATOM     25  C   UNL     1      46.281   3.751   7.696  0.00  0.00    +0.000 C 
ATOM     26  C   UNL     1      44.972   4.273   8.314  0.00  0.00    +0.000 C 
ENDBRANCH  19  21
ENDBRANCH  14  15
ENDBRANCH   1  14
TORSDOF 5
ENDMDL
MODEL 4
REMARK VINA RESULT:    -6.993      2.768      7.130
REMARK INTER + INTRA:          -9.567
REMARK INTER:                  -9.217
REMARK INTRA:                  -0.349
REMARK UNBOUND:                -0.530
REMARK  Name = 
REMARK  5 active torsions:
REMARK  status: ('A' for Active; 'I' for Inactive)
REMARK    1  A    between atoms: C_2  and  C_4
REMARK    2  A    between atoms: C_7  and  N_8
REMARK    3  A    between atoms: N_8  and  C_9
REMARK    4  A    between atoms: C_9  and  C_10
REMARK    5  A    between atoms: C_14  and  N_15
REMARK                            x       y       z     vdW  Elec       q    Type
REMARK                         _______ _______ _______ _____ _____    ______ ____
ROOT
ATOM      1  N   UNL     1      47.375   6.312  12.802  0.00  0.00    +0.000 N 
ATOM      2  H   UNL     1      47.691   5.728  12.033  0.00  0.00    +0.000 HD
ENDROOT
BRANCH   1   6
ATOM      3  C   UNL     1      47.761   4.094  16.239  0.00  0.00    +0.000 A 
ATOM      4  C   UNL     1      48.328   5.355  16.146  0.00  0.00    +0.000 A 
ATOM      5  N   UNL     1      48.194   6.142  15.042  0.00  0.00    +0.000 NA
ATOM      6  C   UNL     1      47.467   5.638  14.023  0.00  0.00    +0.000 A 
ATOM      7  C   UNL     1      46.886   4.366  14.149  0.00  0.00    +0.000 A 
ATOM      8  N   UNL     1      47.009   3.562  15.240  0.00  0.00    +0.000 NA
BRANCH   3  10
ATOM      9  N   UNL     1      46.922   2.566  17.929  0.00  0.00    +0.000 N 
ATOM     10  C   UNL     1      47.998   3.260  17.450  0.00  0.00    +0.000 C 
ATOM     11  O   UNL     1      49.103   3.180  17.977  0.00  0.00    +0.000 OA
ATOM     12  H   UNL     1      47.055   1.936  18.709  0.00  0.00    +0.000 HD
ATOM     13  H   UNL     1      46.043   2.571  17.424  0.00  0.00    +0.000 HD
ENDBRANCH   3  10
ENDBRANCH   1   6
BRANCH   1  14
ATOM     14  C   UNL     1      46.110   6.974  12.504  0.00  0.00    +0.000 C 
BRANCH  14  15
ATOM     15  C   UNL     1      45.128   5.954  11.987  0.00  0.00    +0.000 A 
ATOM     16  C   UNL     1      43.903   5.746  12.603  0.00  0.00    +0.000 A 
ATOM     17  N   UNL     1      42.969   4.886  12.149  0.00  0.00    +0.000 NA
ATOM     18  C   UNL     1      43.277   4.204  11.016  0.00  0.00    +0.000 A 
ATOM     19  C   UNL     1      44.468   4.312  10.289  0.00  0.00    +0.000 A 
ATOM     20  C   UNL     1      45.394   5.217  10.819  0.00  0.00    +0.000 A 
BRANCH  19  21
ATOM     21  N   UNL     1      44.708   3.593   9.141  0.00  0.00    +0.000 N 
ATOM     22  C   UNL     1      44.572   2.131   9.055  0.00  0.00    +0.000 C 
ATOM     23  C   UNL     1      45.891   1.507   8.578  0.00  0.00    +0.000 C 
ATOM     24  O   UNL     1      46.341   2.097   7.344  0.00  0.00    +0.000 OA
ATOM     25  C   UNL     1      46.542   3.510   7.512  0.00  0.00    +0.000 C 
ATOM     26  C   UNL     1      45.243   4.225   7.924  0.00  0.00    +0.000 C 
ENDBRANCH  19  21
ENDBRANCH  14  15
ENDBRANCH   1  14
TORSDOF 5
ENDMDL
MODEL 5
REMARK VINA RESULT:    -6.537      1.978      6.756
REMARK INTER + INTRA:          -8.978
REMARK INTER:                  -8.359
REMARK INTRA:                  -0.619
REMARK UNBOUND:                -0.530
REMARK  Name = 
REMARK  5 active torsions:
REMARK  status: ('A' for Active; 'I' for Inactive)
REMARK    1  A    between atoms: C_2  and  C_4
REMARK    2  A    between atoms: C_7  and  N_8
REMARK    3  A    between atoms: N_8  and  C_9
REMARK    4  A    between atoms: C_9  and  C_10
REMARK    5  A    between atoms: C_14  and  N_15
REMARK                            x       y       z     vdW  Elec       q    Type
REMARK                         _______ _______ _______ _____ _____    ______ ____
ROOT
ATOM      1  N   UNL     1      46.076   6.595  13.583  0.00  0.00    +0.000 N 
ATOM      2  H   UNL     1      45.760   7.056  14.432  0.00  0.00    +0.000 HD
ENDROOT
BRANCH   1   6
ATOM      3  C   UNL     1      49.816   7.970  12.579  0.00  0.00    +0.000 A 
ATOM      4  C   UNL     1      49.598   7.343  13.795  0.00  0.00    +0.000 A 
ATOM      5  N   UNL     1      48.386   6.837  14.155  0.00  0.00    +0.000 NA
ATOM      6  C   UNL     1      47.384   6.968  13.260  0.00  0.00    +0.000 A 
ATOM      7  C   UNL     1      47.634   7.589  12.026  0.00  0.00    +0.000 A 
ATOM      8  N   UNL     1      48.836   8.103  11.647  0.00  0.00    +0.000 NA
BRANCH   3  10
ATOM      9  N   UNL     1      52.040   7.739  11.631  0.00  0.00    +0.000 N 
ATOM     10  C   UNL     1      51.151   8.556  12.273  0.00  0.00    +0.000 C 
ATOM     11  O   UNL     1      51.432   9.715  12.560  0.00  0.00    +0.000 OA
ATOM     12  H   UNL     1      52.932   8.118  11.346  0.00  0.00    +0.000 HD
ATOM     13  H   UNL     1      51.755   6.818  11.318  0.00  0.00    +0.000 HD
ENDBRANCH   3  10
ENDBRANCH   1   6
BRANCH   1  14
ATOM     14  C   UNL     1      45.084   6.668  12.517  0.00  0.00    +0.000 C 
BRANCH  14  15
ATOM     15  C   UNL     1      44.699   5.270  12.103  0.00  0.00    +0.000 A 
ATOM     16  C   UNL     1      44.008   4.424  12.957  0.00  0.00    +0.000 A 
ATOM     17  N   UNL     1      43.594   3.187  12.616  0.00  0.00    +0.000 NA
ATOM     18  C   UNL     1      43.884   2.780  11.353  0.00  0.00    +0.000 A 
ATOM     19  C   UNL     1      44.570   3.523  10.387  0.00  0.00    +0.000 A 
ATOM     20  C   UNL     1      44.974   4.795  10.808  0.00  0.00    +0.000 A 
BRANCH  19  21
ATOM     21  N   UNL     1      44.820   3.048   9.120  0.00  0.00    +0.000 N 
ATOM     22  C   UNL     1      45.009   1.623   8.810  0.00  0.00    +0.000 C 
ATOM     23  C   UNL     1      46.364   1.409   8.122  0.00  0.00    +0.000 C 
ATOM     24  O   UNL     1      46.511   2.254   6.965  0.00  0.00    +0.000 OA
ATOM     25  C   UNL     1      46.406   3.636   7.342  0.00  0.00    +0.000 C 
ATOM     26  C   UNL     1      45.041   3.952   7.979  0.00  0.00    +0.000 C 
ENDBRANCH  19  21
ENDBRANCH  14  15
ENDBRANCH   1  14
TORSDOF 5
ENDMDL
MODEL 6
REMARK VINA RESULT:    -6.476      5.368      7.056
REMARK INTER + INTRA:          -8.898
REMARK INTER:                  -8.369
REMARK INTRA:                  -0.530
REMARK UNBOUND:                -0.530
REMARK  Name = 
REMARK  5 active torsions:
REMARK  status: ('A' for Active; 'I' for Inactive)
REMARK    1  A    between atoms: C_2  and  C_4
REMARK    2  A    between atoms: C_7  and  N_8
REMARK    3  A    between atoms: N_8  and  C_9
REMARK    4  A    between atoms: C_9  and  C_10
REMARK    5  A    between atoms: C_14  and  N_15
REMARK                            x       y       z     vdW  Elec       q    Type
REMARK                         _______ _______ _______ _____ _____    ______ ____
ROOT
ATOM      1  N   UNL     1      47.264   5.038  15.108  0.00  0.00    +0.000 N 
ATOM      2  H   UNL     1      47.277   6.040  15.275  0.00  0.00    +0.000 HD
ENDROOT
BRANCH   1   6
ATOM      3  C   UNL     1      45.018   4.268  11.755  0.00  0.00    +0.000 A 
ATOM      4  C   UNL     1      45.564   3.229  12.491  0.00  0.00    +0.000 A 
ATOM      5  N   UNL     1      46.282   3.434  13.630  0.00  0.00    +0.000 NA
ATOM      6  C   UNL     1      46.441   4.714  14.026  0.00  0.00    +0.000 A 
ATOM      7  C   UNL     1      45.861   5.749  13.273  0.00  0.00    +0.000 A 
ATOM      8  N   UNL     1      45.142   5.567  12.132  0.00  0.00    +0.000 NA
BRANCH   3  10
ATOM      9  N   UNL     1      44.364   4.941   9.515  0.00  0.00    +0.000 N 
ATOM     10  C   UNL     1      44.296   3.979  10.484  0.00  0.00    +0.000 C 
ATOM     11  O   UNL     1      43.692   2.926  10.305  0.00  0.00    +0.000 OA
ATOM     12  H   UNL     1      43.945   4.757   8.614  0.00  0.00    +0.000 HD
ATOM     13  H   UNL     1      44.947   5.760   9.647  0.00  0.00    +0.000 HD
ENDBRANCH   3  10
ENDBRANCH   1   6
BRANCH   1  14
ATOM     14  C   UNL     1      47.070   4.279  16.338  0.00  0.00    +0.000 C 
BRANCH  14  15
ATOM     15  C   UNL     1      48.347   3.555  16.680  0.00  0.00    +0.000 A 
ATOM     16  C   UNL     1      48.606   2.276  16.209  0.00  0.00    +0.000 A 
ATOM     17  N   UNL     1      49.754   1.608  16.440  0.00  0.00    +0.000 NA
ATOM     18  C   UNL     1      50.692   2.257  17.178  0.00  0.00    +0.000 A 
ATOM     19  C   UNL     1      50.570   3.543  17.715  0.00  0.00    +0.000 A 
ATOM     20  C   UNL     1      49.353   4.177  17.441  0.00  0.00    +0.000 A 
BRANCH  19  21
ATOM     21  N   UNL     1      51.569   4.142  18.447  0.00  0.00    +0.000 N 
ATOM     22  C   UNL     1      52.980   3.733  18.383  0.00  0.00    +0.000 C 
ATOM     23  C   UNL     1      53.486   3.367  19.785  0.00  0.00    +0.000 C 
ATOM     24  O   UNL     1      53.259   4.432  20.726  0.00  0.00    +0.000 OA
ATOM     25  C   UNL     1      51.855   4.729  20.814  0.00  0.00    +0.000 C 
ATOM     26  C   UNL     1      51.282   5.175  19.457  0.00  0.00    +0.000 C 
ENDBRANCH  19  21
ENDBRANCH  14  15
ENDBRANCH   1  14
TORSDOF 5
ENDMDL
MODEL 7
REMARK VINA RESULT:    -6.359      2.354      7.133
REMARK INTER + INTRA:          -8.748
REMARK INTER:                  -8.239
REMARK INTRA:                  -0.509
REMARK UNBOUND:                -0.530
REMARK  Name = 
REMARK  5 active torsions:
REMARK  status: ('A' for Active; 'I' for Inactive)
REMARK    1  A    between atoms: C_2  and  C_4
REMARK    2  A    between atoms: C_7  and  N_8
REMARK    3  A    between atoms: N_8  and  C_9
REMARK    4  A    between atoms: C_9  and  C_10
REMARK    5  A    between atoms: C_14  and  N_15
REMARK                            x       y       z     vdW  Elec       q    Type
REMARK                         _______ _______ _______ _____ _____    ______ ____
ROOT
ATOM      1  N   UNL     1      46.810   6.502  12.195  0.00  0.00    +0.000 N 
ATOM      2  H   UNL     1      47.819   6.516  12.313  0.00  0.00    +0.000 HD
ENDROOT
BRANCH   1   6
ATOM      3  C   UNL     1      45.106  10.202  11.653  0.00  0.00    +0.000 A 
ATOM      4  C   UNL     1      46.407  10.086  12.114  0.00  0.00    +0.000 A 
ATOM      5  N   UNL     1      47.027   8.883  12.271  0.00  0.00    +0.000 NA
ATOM      6  C   UNL     1      46.311   7.785  11.951  0.00  0.00    +0.000 A 
ATOM      7  C   UNL     1      45.000   7.929  11.468  0.00  0.00    +0.000 A 
ATOM      8  N   UNL     1      44.361   9.120  11.305  0.00  0.00    +0.000 NA
BRANCH   3  10
ATOM      9  N   UNL     1      45.133  12.576  12.164  0.00  0.00    +0.000 N 
ATOM     10  C   UNL     1      44.467  11.544  11.563  0.00  0.00    +0.000 C 
ATOM     11  O   UNL     1      43.412  11.722  10.963  0.00  0.00    +0.000 OA
ATOM     12  H   UNL     1      44.769  13.514  12.069  0.00  0.00    +0.000 HD
ATOM     13  H   UNL     1      46.049  12.425  12.571  0.00  0.00    +0.000 HD
ENDBRANCH   3  10
ENDBRANCH   1   6
BRANCH   1  14
ATOM     14  C   UNL     1      46.147   5.720  13.231  0.00  0.00    +0.000 C 
BRANCH  14  15
ATOM     15  C   UNL     1      45.276   4.675  12.580  0.00  0.00    +0.000 A 
ATOM     16  C   UNL     1      44.206   4.100  13.250  0.00  0.00    +0.000 A 
ATOM     17  N   UNL     1      43.366   3.204  12.695  0.00  0.00    +0.000 NA
ATOM     18  C   UNL     1      43.608   2.870  11.401  0.00  0.00    +0.000 A 
ATOM     19  C   UNL     1      44.644   3.368  10.604  0.00  0.00    +0.000 A 
ATOM     20  C   UNL     1      45.480   4.289  11.243  0.00  0.00    +0.000 A 
BRANCH  19  21
ATOM     21  N   UNL     1      44.823   2.990   9.293  0.00  0.00    +0.000 N 
ATOM     22  C   UNL     1      45.000   1.593   8.868  0.00  0.00    +0.000 C 
ATOM     23  C   UNL     1      46.314   1.442   8.090  0.00  0.00    +0.000 C 
ATOM     24  O   UNL     1      46.391   2.370   6.992  0.00  0.00    +0.000 OA
ATOM     25  C   UNL     1      46.303   3.721   7.476  0.00  0.00    +0.000 C 
ATOM     26  C   UNL     1      44.975   3.977   8.211  0.00  0.00    +0.000 C 
ENDBRANCH  19  21
ENDBRANCH  14  15
ENDBRANCH   1  14
TORSDOF 5
ENDMDL
MODEL 8
REMARK VINA RESULT:    -6.319      3.796      8.164
REMARK INTER + INTRA:          -8.696
REMARK INTER:                  -8.119
REMARK INTRA:                  -0.577
REMARK UNBOUND:                -0.530
REMARK  Name = 
REMARK  5 active torsions:
REMARK  status: ('A' for Active; 'I' for Inactive)
REMARK    1  A    between atoms: C_2  and  C_4
REMARK    2  A    between atoms: C_7  and  N_8
REMARK    3  A    between atoms: N_8  and  C_9
REMARK    4  A    between atoms: C_9  and  C_10
REMARK    5  A    between atoms: C_14  and  N_15
REMARK                            x       y       z     vdW  Elec       q    Type
REMARK                         _______ _______ _______ _____ _____    ______ ____
ROOT
ATOM      1  N   UNL     1      48.646   7.287  14.522  0.00  0.00    +0.000 N 
ATOM      2  H   UNL     1      49.358   8.012  14.496  0.00  0.00    +0.000 HD
ENDROOT
BRANCH   1   6
ATOM      3  C   UNL     1      48.872   5.139  18.018  0.00  0.00    +0.000 A 
ATOM      4  C   UNL     1      48.400   4.549  16.857  0.00  0.00    +0.000 A 
ATOM      5  N   UNL     1      48.343   5.209  15.667  0.00  0.00    +0.000 NA
ATOM      6  C   UNL     1      48.779   6.486  15.660  0.00  0.00    +0.000 A 
ATOM      7  C   UNL     1      49.271   7.057  16.846  0.00  0.00    +0.000 A 
ATOM      8  N   UNL     1      49.335   6.417  18.045  0.00  0.00    +0.000 NA
BRANCH   3  10
ATOM      9  N   UNL     1      48.271   3.142  19.262  0.00  0.00    +0.000 N 
ATOM     10  C   UNL     1      48.849   4.381  19.300  0.00  0.00    +0.000 C 
ATOM     11  O   UNL     1      49.341   4.830  20.329  0.00  0.00    +0.000 OA
ATOM     12  H   UNL     1      48.293   2.567  20.093  0.00  0.00    +0.000 HD
ATOM     13  H   UNL     1      47.957   2.751  18.381  0.00  0.00    +0.000 HD
ENDBRANCH   3  10
ENDBRANCH   1   6
BRANCH   1  14
ATOM     14  C   UNL     1      48.513   6.602  13.242  0.00  0.00    +0.000 C 
BRANCH  14  15
ATOM     15  C   UNL     1      47.145   6.880  12.672  0.00  0.00    +0.000 A 
ATOM     16  C   UNL     1      46.629   8.166  12.614  0.00  0.00    +0.000 A 
ATOM     17  N   UNL     1      45.437   8.474  12.066  0.00  0.00    +0.000 NA
ATOM     18  C   UNL     1      44.728   7.439  11.545  0.00  0.00    +0.000 A 
ATOM     19  C   UNL     1      45.121   6.097  11.530  0.00  0.00    +0.000 A 
ATOM     20  C   UNL     1      46.366   5.848  12.119  0.00  0.00    +0.000 A 
BRANCH  19  21
ATOM     21  N   UNL     1      44.352   5.101  10.974  0.00  0.00    +0.000 N 
ATOM     22  C   UNL     1      43.176   4.518  11.636  0.00  0.00    +0.000 C 
ATOM     23  C   UNL     1      43.344   2.998  11.766  0.00  0.00    +0.000 C 
ATOM     24  O   UNL     1      43.626   2.385  10.495  0.00  0.00    +0.000 OA
ATOM     25  C   UNL     1      44.833   2.929   9.936  0.00  0.00    +0.000 C 
ATOM     26  C   UNL     1      44.721   4.447   9.708  0.00  0.00    +0.000 C 
ENDBRANCH  19  21
ENDBRANCH  14  15
ENDBRANCH   1  14
TORSDOF 5
ENDMDL
MODEL 9
REMARK VINA RESULT:    -6.305      3.797      5.880
REMARK INTER + INTRA:          -8.677
REMARK INTER:                  -8.131
REMARK INTRA:                  -0.546
REMARK UNBOUND:                -0.530
REMARK  Name = 
REMARK  5 active torsions:
REMARK  status: ('A' for Active; 'I' for Inactive)
REMARK    1  A    between atoms: C_2  and  C_4
REMARK    2  A    between atoms: C_7  and  N_8
REMARK    3  A    between atoms: N_8  and  C_9
REMARK    4  A    between atoms: C_9  and  C_10
REMARK    5  A    between atoms: C_14  and  N_15
REMARK                            x       y       z     vdW  Elec       q    Type
REMARK                         _______ _______ _______ _____ _____    ______ ____
ROOT
ATOM      1  N   UNL     1      46.457   7.182  13.412  0.00  0.00    +0.000 N 
ATOM      2  H   UNL     1      46.414   7.078  14.422  0.00  0.00    +0.000 HD
ENDROOT
BRANCH   1   6
ATOM      3  C   UNL     1      44.673   3.900  11.700  0.00  0.00    +0.000 A 
ATOM      4  C   UNL     1      45.015   4.999  10.929  0.00  0.00    +0.000 A 
ATOM      5  N   UNL     1      45.643   6.093  11.445  0.00  0.00    +0.000 NA
ATOM      6  C   UNL     1      45.929   6.062  12.763  0.00  0.00    +0.000 A 
ATOM      7  C   UNL     1      45.589   4.929  13.520  0.00  0.00    +0.000 A 
ATOM      8  N   UNL     1      44.961   3.827  13.026  0.00  0.00    +0.000 NA
BRANCH   3  10
ATOM      9  N   UNL     1      44.454   2.254   9.928  0.00  0.00    +0.000 N 
ATOM     10  C   UNL     1      43.933   2.763  11.086  0.00  0.00    +0.000 C 
ATOM     11  O   UNL     1      42.924   2.292  11.599  0.00  0.00    +0.000 OA
ATOM     12  H   UNL     1      44.021   1.440   9.515  0.00  0.00    +0.000 HD
ATOM     13  H   UNL     1      45.340   2.594   9.573  0.00  0.00    +0.000 HD
ENDBRANCH   3  10
ENDBRANCH   1   6
BRANCH   1  14
ATOM     14  C   UNL     1      47.762   7.654  12.964  0.00  0.00    +0.000 C 
BRANCH  14  15
ATOM     15  C   UNL     1      48.787   7.360  14.030  0.00  0.00    +0.000 A 
ATOM     16  C   UNL     1      50.019   7.997  14.048  0.00  0.00    +0.000 A 
ATOM     17  N   UNL     1      50.947   7.810  15.008  0.00  0.00    +0.000 NA
ATOM     18  C   UNL     1      50.621   6.944  16.002  0.00  0.00    +0.000 A 
ATOM     19  C   UNL     1      49.421   6.234  16.114  0.00  0.00    +0.000 A 
ATOM     20  C   UNL     1      48.505   6.471  15.083  0.00  0.00    +0.000 A 
BRANCH  19  21
ATOM     21  N   UNL     1      49.156   5.377  17.157  0.00  0.00    +0.000 N 
ATOM     22  C   UNL     1      50.160   4.479  17.746  0.00  0.00    +0.000 C 
ATOM     23  C   UNL     1      49.667   3.027  17.686  0.00  0.00    +0.000 C 
ATOM     24  O   UNL     1      48.370   2.882  18.293  0.00  0.00    +0.000 OA
ATOM     25  C   UNL     1      47.410   3.715  17.621  0.00  0.00    +0.000 C 
ATOM     26  C   UNL     1      47.797   5.203  17.696  0.00  0.00    +0.000 C 
ENDBRANCH  19  21
ENDBRANCH  14  15
ENDBRANCH   1  14
TORSDOF 5
ENDMDL
