MODEL 1
REMARK VINA RESULT:    -8.366      0.000      0.000
REMARK INTER + INTRA:         -13.272
REMARK INTER:                 -12.034
REMARK INTRA:                  -1.239
REMARK UNBOUND:                -1.239
REMARK  Name = 
REMARK  9 active torsions:
REMARK  status: ('A' for Active; 'I' for Inactive)
REMARK    1  A    between atoms: C_1  and  C_2
REMARK    2  A    between atoms: C_9  and  C_10
REMARK    3  A    between atoms: N_12  and  C_13
REMARK    4  A    between atoms: C_13  and  C_14
REMARK    5  A    between atoms: C_17  and  O_18
REMARK    6  A    between atoms: O_18  and  C_19
REMARK    7  A    between atoms: C_19  and  C_20
REMARK    8  A    between atoms: C_20  and  O_21
REMARK    9  A    between atoms: C_20  and  C_22
REMARK                            x       y       z     vdW  Elec       q    Type
REMARK                         _______ _______ _______ _____ _____    ______ ____
ROOT
ATOM      1  C   UNL     1      46.243   7.196  12.366  0.00  0.00    +0.000 A 
ATOM      2  C   UNL     1      46.624   6.745  11.098  0.00  0.00    +0.000 A 
ATOM      3  C   UNL     1      45.834   5.827  10.399  0.00  0.00    +0.000 A 
ATOM      4  C   UNL     1      44.646   5.353  10.957  0.00  0.00    +0.000 A 
ATOM      5  C   UNL     1      44.249   5.822  12.211  0.00  0.00    +0.000 A 
ATOM      6  C   UNL     1      45.035   6.742  12.910  0.00  0.00    +0.000 A 
ENDROOT
BRANCH   1   7
ATOM      7  C   UNL     1      47.123   8.154  13.120  0.00  0.00    +0.000 C 
BRANCH   7  10
ATOM      8  C   UNL     1      48.642   6.983  14.627  0.00  0.00    +0.000 C 
ATOM      9  O   UNL     1      49.443   6.817  13.716  0.00  0.00    +0.000 OA
ATOM     10  N   UNL     1      47.458   7.661  14.434  0.00  0.00    +0.000 N 
ATOM     11  H   UNL     1      46.742   7.658  15.146  0.00  0.00    +0.000 HD
BRANCH   8  20
ATOM     12  C   UNL     1      46.893   4.102  14.732  0.00  0.00    +0.000 C 
ATOM     13  C   UNL     1      47.535   4.185  16.084  0.00  0.00    +0.000 A 
ATOM     14  N   UNL     1      47.255   3.144  16.918  0.00  0.00    +0.000 NA
ATOM     15  C   UNL     1      47.774   3.133  18.149  0.00  0.00    +0.000 A 
ATOM     16  N   UNL     1      48.562   4.053  18.696  0.00  0.00    +0.000 NA
ATOM     17  C   UNL     1      48.825   5.070  17.860  0.00  0.00    +0.000 A 
ATOM     18  S   UNL     1      49.816   6.346  18.388  0.00  0.00    +0.000 S 
ATOM     19  C   UNL     1      49.672   7.150  16.897  0.00  0.00    +0.000 A 
ATOM     20  C   UNL     1      48.873   6.479  15.984  0.00  0.00    +0.000 A 
ATOM     21  C   UNL     1      48.370   5.229  16.553  0.00  0.00    +0.000 A 
ENDBRANCH   8  20
ENDBRANCH   7  10
ENDBRANCH   1   7
BRANCH   4  22
ATOM     22  O   UNL     1      43.803   4.435  10.392  0.00  0.00    +0.000 OA
BRANCH  22  23
ATOM     23  C   UNL     1      44.174   3.949   9.095  0.00  0.00    +0.000 C 
BRANCH  23  24
ATOM     24  C   UNL     1      45.107   2.735   9.242  0.00  0.00    +0.000 C 
BRANCH  24  25
ATOM     25  C   UNL     1      45.997   2.526   8.042  0.00  0.00    +0.000 A 
ATOM     26  C   UNL     1      46.239   3.517   7.087  0.00  0.00    +0.000 A 
ATOM     27  C   UNL     1      47.084   3.260   6.011  0.00  0.00    +0.000 A 
ATOM     28  C   UNL     1      47.678   2.011   5.936  0.00  0.00    +0.000 A 
ATOM     29  N   UNL     1      47.492   1.031   6.842  0.00  0.00    +0.000 NA
ATOM     30  C   UNL     1      46.658   1.311   7.871  0.00  0.00    +0.000 A 
ENDBRANCH  24  25
BRANCH  24  31
ATOM     31  O   UNL     1      44.352   1.553   9.521  0.00  0.00    +0.000 OA
ATOM     32  H   UNL     1      44.945   0.959  10.013  0.00  0.00    +0.000 HD
ENDBRANCH  24  31
ENDBRANCH  23  24
ENDBRANCH  22  23
ENDBRANCH   4  22
TORSDOF 8
ENDMDL
MODEL 2
REMARK VINA RESULT:    -8.073      1.772      2.526
REMARK INTER + INTRA:         -12.852
REMARK INTER:                 -11.896
REMARK INTRA:                  -0.956
REMARK UNBOUND:                -1.239
REMARK  Name = 
REMARK  9 active torsions:
REMARK  status: ('A' for Active; 'I' for Inactive)
REMARK    1  A    between atoms: C_1  and  C_2
REMARK    2  A    between atoms: C_9  and  C_10
REMARK    3  A    between atoms: N_12  and  C_13
REMARK    4  A    between atoms: C_13  and  C_14
REMARK    5  A    between atoms: C_17  and  O_18
REMARK    6  A    between atoms: O_18  and  C_19
REMARK    7  A    between atoms: C_19  and  C_20
REMARK    8  A    between atoms: C_20  and  O_21
REMARK    9  A    between atoms: C_20  and  C_22
REMARK                            x       y       z     vdW  Elec       q    Type
REMARK                         _______ _______ _______ _____ _____    ______ ____
ROOT
ATOM      1  C   UNL     1      46.797   5.934  12.852  0.00  0.00    +0.000 A 
ATOM      2  C   UNL     1      46.272   4.721  13.311  0.00  0.00    +0.000 A 
ATOM      3  C   UNL     1      45.329   4.018  12.554  0.00  0.00    +0.000 A 
ATOM      4  C   UNL     1      44.904   4.517  11.322  0.00  0.00    +0.000 A 
ATOM      5  C   UNL     1      45.447   5.712  10.848  0.00  0.00    +0.000 A 
ATOM      6  C   UNL     1      46.391   6.415  11.601  0.00  0.00    +0.000 A 
ENDROOT
BRANCH   1   7
ATOM      7  C   UNL     1      47.782   6.695  13.695  0.00  0.00    +0.000 C 
BRANCH   7  10
ATOM      8  C   UNL     1      48.876   6.280  15.836  0.00  0.00    +0.000 C 
ATOM      9  O   UNL     1      49.954   6.622  15.368  0.00  0.00    +0.000 OA
ATOM     10  N   UNL     1      47.722   6.303  15.082  0.00  0.00    +0.000 N 
ATOM     11  H   UNL     1      46.874   5.876  15.428  0.00  0.00    +0.000 HD
BRANCH   8  20
ATOM     12  C   UNL     1      48.003   9.067  17.520  0.00  0.00    +0.000 C 
ATOM     13  C   UNL     1      47.995   7.995  18.567  0.00  0.00    +0.000 A 
ATOM     14  N   UNL     1      47.658   8.416  19.818  0.00  0.00    +0.000 NA
ATOM     15  C   UNL     1      47.632   7.534  20.822  0.00  0.00    +0.000 A 
ATOM     16  N   UNL     1      47.913   6.236  20.756  0.00  0.00    +0.000 NA
ATOM     17  C   UNL     1      48.244   5.841  19.517  0.00  0.00    +0.000 A 
ATOM     18  S   UNL     1      48.639   4.212  19.241  0.00  0.00    +0.000 S 
ATOM     19  C   UNL     1      48.914   4.500  17.588  0.00  0.00    +0.000 A 
ATOM     20  C   UNL     1      48.722   5.823  17.220  0.00  0.00    +0.000 A 
ATOM     21  C   UNL     1      48.312   6.628  18.370  0.00  0.00    +0.000 A 
ENDBRANCH   8  20
ENDBRANCH   7  10
ENDBRANCH   1   7
BRANCH   4  22
ATOM     22  O   UNL     1      43.969   3.944  10.503  0.00  0.00    +0.000 OA
BRANCH  22  23
ATOM     23  C   UNL     1      44.377   3.701   9.150  0.00  0.00    +0.000 C 
BRANCH  23  24
ATOM     24  C   UNL     1      45.269   2.450   9.091  0.00  0.00    +0.000 C 
BRANCH  24  25
ATOM     25  C   UNL     1      46.137   2.401   7.858  0.00  0.00    +0.000 A 
ATOM     26  C   UNL     1      46.189   3.434   6.918  0.00  0.00    +0.000 A 
ATOM     27  C   UNL     1      47.024   3.328   5.808  0.00  0.00    +0.000 A 
ATOM     28  C   UNL     1      47.800   2.187   5.686  0.00  0.00    +0.000 A 
ATOM     29  N   UNL     1      47.799   1.175   6.576  0.00  0.00    +0.000 NA
ATOM     30  C   UNL     1      46.970   1.305   7.637  0.00  0.00    +0.000 A 
ENDBRANCH  24  25
BRANCH  24  31
ATOM     31  O   UNL     1      44.478   1.264   9.198  0.00  0.00    +0.000 OA
ATOM     32  H   UNL     1      44.041   1.149   8.336  0.00  0.00    +0.000 HD
ENDBRANCH  24  31
ENDBRANCH  23  24
ENDBRANCH  22  23
ENDBRANCH   4  22
TORSDOF 8
ENDMDL
MODEL 3
REMARK VINA RESULT:    -7.728      1.617      2.237
REMARK INTER + INTRA:         -12.355
REMARK INTER:                 -11.441
REMARK INTRA:                  -0.914
REMARK UNBOUND:                -1.239
REMARK  Name = 
REMARK  9 active torsions:
REMARK  status: ('A' for Active; 'I' for Inactive)
REMARK    1  A    between atoms: C_1  and  C_2
REMARK    2  A    between atoms: C_9  and  C_10
REMARK    3  A    between atoms: N_12  and  C_13
REMARK    4  A    between atoms: C_13  and  C_14
REMARK    5  A    between atoms: C_17  and  O_18
REMARK    6  A    between atoms: O_18  and  C_19
REMARK    7  A    between atoms: C_19  and  C_20
REMARK    8  A    between atoms: C_20  and  O_21
REMARK    9  A    between atoms: C_20  and  C_22
REMARK                            x       y       z     vdW  Elec       q    Type
REMARK                         _______ _______ _______ _____ _____    ______ ____
ROOT
ATOM      1  C   UNL     1      47.519   6.244  13.173  0.00  0.00    +0.000 A 
ATOM      2  C   UNL     1      46.896   5.153  13.790  0.00  0.00    +0.000 A 
ATOM      3  C   UNL     1      45.823   4.501  13.174  0.00  0.00    +0.000 A 
ATOM      4  C   UNL     1      45.363   4.927  11.928  0.00  0.00    +0.000 A 
ATOM      5  C   UNL     1      46.000   5.997  11.297  0.00  0.00    +0.000 A 
ATOM      6  C   UNL     1      47.074   6.649  11.908  0.00  0.00    +0.000 A 
ENDROOT
BRANCH   1   7
ATOM      7  C   UNL     1      48.647   6.957  13.865  0.00  0.00    +0.000 C 
BRANCH   7  10
ATOM      8  C   UNL     1      49.309   6.871  16.212  0.00  0.00    +0.000 C 
ATOM      9  O   UNL     1      50.407   6.427  15.902  0.00  0.00    +0.000 OA
ATOM     10  N   UNL     1      48.363   7.190  15.261  0.00  0.00    +0.000 N 
ATOM     11  H   UNL     1      47.415   7.407  15.532  0.00  0.00    +0.000 HD
BRANCH   8  20
ATOM     12  C   UNL     1      49.264   3.781  17.558  0.00  0.00    +0.000 C 
ATOM     13  C   UNL     1      48.905   4.679  18.703  0.00  0.00    +0.000 A 
ATOM     14  N   UNL     1      48.681   4.041  19.886  0.00  0.00    +0.000 NA
ATOM     15  C   UNL     1      48.346   4.756  20.964  0.00  0.00    +0.000 A 
ATOM     16  N   UNL     1      48.189   6.075  21.034  0.00  0.00    +0.000 NA
ATOM     17  C   UNL     1      48.413   6.685  19.860  0.00  0.00    +0.000 A 
ATOM     18  S   UNL     1      48.256   8.374  19.757  0.00  0.00    +0.000 S 
ATOM     19  C   UNL     1      48.661   8.367  18.105  0.00  0.00    +0.000 A 
ATOM     20  C   UNL     1      48.912   7.099  17.604  0.00  0.00    +0.000 A 
ATOM     21  C   UNL     1      48.773   6.088  18.654  0.00  0.00    +0.000 A 
ENDBRANCH   8  20
ENDBRANCH   7  10
ENDBRANCH   1   7
BRANCH   4  22
ATOM     22  O   UNL     1      44.307   4.396  11.237  0.00  0.00    +0.000 OA
BRANCH  22  23
ATOM     23  C   UNL     1      44.519   3.103  10.654  0.00  0.00    +0.000 C 
BRANCH  23  24
ATOM     24  C   UNL     1      44.296   3.176   9.133  0.00  0.00    +0.000 C 
BRANCH  24  25
ATOM     25  C   UNL     1      45.468   2.655   8.339  0.00  0.00    +0.000 A 
ATOM     26  C   UNL     1      46.211   3.449   7.461  0.00  0.00    +0.000 A 
ATOM     27  C   UNL     1      47.290   2.906   6.769  0.00  0.00    +0.000 A 
ATOM     28  C   UNL     1      47.603   1.576   6.996  0.00  0.00    +0.000 A 
ATOM     29  N   UNL     1      46.931   0.777   7.847  0.00  0.00    +0.000 NA
ATOM     30  C   UNL     1      45.882   1.333   8.496  0.00  0.00    +0.000 A 
ENDBRANCH  24  25
BRANCH  24  31
ATOM     31  O   UNL     1      43.973   4.511   8.737  0.00  0.00    +0.000 OA
ATOM     32  H   UNL     1      43.485   4.436   7.898  0.00  0.00    +0.000 HD
ENDBRANCH  24  31
ENDBRANCH  23  24
ENDBRANCH  22  23
ENDBRANCH   4  22
TORSDOF 8
ENDMDL
MODEL 4
REMARK VINA RESULT:    -7.692      2.220      3.537
REMARK INTER + INTRA:         -12.303
REMARK INTER:                 -11.212
REMARK INTRA:                  -1.090
REMARK UNBOUND:                -1.239
REMARK  Name = 
REMARK  9 active torsions:
REMARK  status: ('A' for Active; 'I' for Inactive)
REMARK    1  A    between atoms: C_1  and  C_2
REMARK    2  A    between atoms: C_9  and  C_10
REMARK    3  A    between atoms: N_12  and  C_13
REMARK    4  A    between atoms: C_13  and  C_14
REMARK    5  A    between atoms: C_17  and  O_18
REMARK    6  A    between atoms: O_18  and  C_19
REMARK    7  A    between atoms: C_19  and  C_20
REMARK    8  A    between atoms: C_20  and  O_21
REMARK    9  A    between atoms: C_20  and  C_22
REMARK                            x       y       z     vdW  Elec       q    Type
REMARK                         _______ _______ _______ _____ _____    ______ ____
ROOT
ATOM      1  C   UNL     1      46.867   4.326  14.119  0.00  0.00    +0.000 A 
ATOM      2  C   UNL     1      46.295   3.257  13.421  0.00  0.00    +0.000 A 
ATOM      3  C   UNL     1      45.492   3.485  12.299  0.00  0.00    +0.000 A 
ATOM      4  C   UNL     1      45.259   4.786  11.854  0.00  0.00    +0.000 A 
ATOM      5  C   UNL     1      45.851   5.854  12.531  0.00  0.00    +0.000 A 
ATOM      6  C   UNL     1      46.655   5.629  13.651  0.00  0.00    +0.000 A 
ENDROOT
BRANCH   1   7
ATOM      7  C   UNL     1      47.696   4.067  15.346  0.00  0.00    +0.000 C 
BRANCH   7  10
ATOM      8  C   UNL     1      48.623   5.616  16.988  0.00  0.00    +0.000 C 
ATOM      9  O   UNL     1      49.760   5.256  16.708  0.00  0.00    +0.000 OA
ATOM     10  N   UNL     1      47.522   5.094  16.344  0.00  0.00    +0.000 N 
ATOM     11  H   UNL     1      46.590   5.282  16.686  0.00  0.00    +0.000 HD
BRANCH   8  20
ATOM     12  C   UNL     1      48.777   8.547  15.329  0.00  0.00    +0.000 C 
ATOM     13  C   UNL     1      48.418   8.942  16.730  0.00  0.00    +0.000 A 
ATOM     14  N   UNL     1      48.261  10.281  16.927  0.00  0.00    +0.000 NA
ATOM     15  C   UNL     1      47.950  10.733  18.145  0.00  0.00    +0.000 A 
ATOM     16  N   UNL     1      47.770  10.010  19.246  0.00  0.00    +0.000 NA
ATOM     17  C   UNL     1      47.929   8.694  19.033  0.00  0.00    +0.000 A 
ATOM     18  S   UNL     1      47.741   7.613  20.329  0.00  0.00    +0.000 S 
ATOM     19  C   UNL     1      48.076   6.274  19.334  0.00  0.00    +0.000 A 
ATOM     20  C   UNL     1      48.342   6.619  18.018  0.00  0.00    +0.000 A 
ATOM     21  C   UNL     1      48.247   8.067  17.830  0.00  0.00    +0.000 A 
ENDBRANCH   8  20
ENDBRANCH   7  10
ENDBRANCH   1   7
BRANCH   4  22
ATOM     22  O   UNL     1      44.472   5.143  10.792  0.00  0.00    +0.000 OA
BRANCH  22  23
ATOM     23  C   UNL     1      44.201   4.114   9.831  0.00  0.00    +0.000 C 
BRANCH  23  24
ATOM     24  C   UNL     1      44.962   4.406   8.527  0.00  0.00    +0.000 C 
BRANCH  24  25
ATOM     25  C   UNL     1      45.755   3.224   8.027  0.00  0.00    +0.000 A 
ATOM     26  C   UNL     1      46.715   3.319   7.016  0.00  0.00    +0.000 A 
ATOM     27  C   UNL     1      47.420   2.188   6.613  0.00  0.00    +0.000 A 
ATOM     28  C   UNL     1      47.150   0.991   7.255  0.00  0.00    +0.000 A 
ATOM     29  N   UNL     1      46.249   0.854   8.248  0.00  0.00    +0.000 NA
ATOM     30  C   UNL     1      45.575   1.970   8.610  0.00  0.00    +0.000 A 
ENDBRANCH  24  25
BRANCH  24  31
ATOM     31  O   UNL     1      45.807   5.549   8.685  0.00  0.00    +0.000 OA
ATOM     32  H   UNL     1      46.694   5.275   8.393  0.00  0.00    +0.000 HD
ENDBRANCH  24  31
ENDBRANCH  23  24
ENDBRANCH  22  23
ENDBRANCH   4  22
TORSDOF 8
ENDMDL
MODEL 5
REMARK VINA RESULT:    -7.350      2.105      2.784
REMARK INTER + INTRA:         -11.811
REMARK INTER:                 -10.330
REMARK INTRA:                  -1.481
REMARK UNBOUND:                -1.239
REMARK  Name = 
REMARK  9 active torsions:
REMARK  status: ('A' for Active; 'I' for Inactive)
REMARK    1  A    between atoms: C_1  and  C_2
REMARK    2  A    between atoms: C_9  and  C_10
REMARK    3  A    between atoms: N_12  and  C_13
REMARK    4  A    between atoms: C_13  and  C_14
REMARK    5  A    between atoms: C_17  and  O_18
REMARK    6  A    between atoms: O_18  and  C_19
REMARK    7  A    between atoms: C_19  and  C_20
REMARK    8  A    between atoms: C_20  and  O_21
REMARK    9  A    between atoms: C_20  and  C_22
REMARK                            x       y       z     vdW  Elec       q    Type
REMARK                         _______ _______ _______ _____ _____    ______ ____
ROOT
ATOM      1  C   UNL     1      47.349   6.963  12.894  0.00  0.00    +0.000 A 
ATOM      2  C   UNL     1      47.347   5.663  13.412  0.00  0.00    +0.000 A 
ATOM      3  C   UNL     1      46.154   4.943  13.530  0.00  0.00    +0.000 A 
ATOM      4  C   UNL     1      44.946   5.512  13.123  0.00  0.00    +0.000 A 
ATOM      5  C   UNL     1      44.948   6.798  12.580  0.00  0.00    +0.000 A 
ATOM      6  C   UNL     1      46.139   7.518  12.458  0.00  0.00    +0.000 A 
ENDROOT
BRANCH   1   7
ATOM      7  C   UNL     1      48.635   7.737  12.809  0.00  0.00    +0.000 C 
BRANCH   7  10
ATOM      8  C   UNL     1      49.906   7.723  14.891  0.00  0.00    +0.000 C 
ATOM      9  O   UNL     1      49.246   8.662  15.318  0.00  0.00    +0.000 OA
ATOM     10  N   UNL     1      49.662   7.173  13.652  0.00  0.00    +0.000 N 
ATOM     11  H   UNL     1      50.306   6.507  13.249  0.00  0.00    +0.000 HD
BRANCH   8  20
ATOM     12  C   UNL     1      48.352   5.519  16.914  0.00  0.00    +0.000 C 
ATOM     13  C   UNL     1      49.805   5.339  17.233  0.00  0.00    +0.000 A 
ATOM     14  N   UNL     1      50.074   4.399  18.181  0.00  0.00    +0.000 NA
ATOM     15  C   UNL     1      51.341   4.173  18.541  0.00  0.00    +0.000 A 
ATOM     16  N   UNL     1      52.427   4.781  18.074  0.00  0.00    +0.000 NA
ATOM     17  C   UNL     1      52.143   5.704  17.142  0.00  0.00    +0.000 A 
ATOM     18  S   UNL     1      53.408   6.589  16.433  0.00  0.00    +0.000 S 
ATOM     19  C   UNL     1      52.325   7.464  15.456  0.00  0.00    +0.000 A 
ATOM     20  C   UNL     1      50.998   7.113  15.654  0.00  0.00    +0.000 A 
ATOM     21  C   UNL     1      50.884   6.053  16.656  0.00  0.00    +0.000 A 
ENDBRANCH   8  20
ENDBRANCH   7  10
ENDBRANCH   1   7
BRANCH   4  22
ATOM     22  O   UNL     1      43.712   4.927  13.213  0.00  0.00    +0.000 OA
BRANCH  22  23
ATOM     23  C   UNL     1      43.140   4.462  11.983  0.00  0.00    +0.000 C 
BRANCH  23  24
ATOM     24  C   UNL     1      43.828   3.155  11.551  0.00  0.00    +0.000 C 
BRANCH  24  25
ATOM     25  C   UNL     1      44.531   3.270  10.221  0.00  0.00    +0.000 A 
ATOM     26  C   UNL     1      44.981   4.485   9.696  0.00  0.00    +0.000 A 
ATOM     27  C   UNL     1      45.636   4.516   8.468  0.00  0.00    +0.000 A 
ATOM     28  C   UNL     1      45.834   3.315   7.807  0.00  0.00    +0.000 A 
ATOM     29  N   UNL     1      45.436   2.118   8.281  0.00  0.00    +0.000 NA
ATOM     30  C   UNL     1      44.795   2.124   9.473  0.00  0.00    +0.000 A 
ENDBRANCH  24  25
BRANCH  24  31
ATOM     31  O   UNL     1      42.890   2.077  11.533  0.00  0.00    +0.000 OA
ATOM     32  H   UNL     1      42.066   2.425  11.919  0.00  0.00    +0.000 HD
ENDBRANCH  24  31
ENDBRANCH  23  24
ENDBRANCH  22  23
ENDBRANCH   4  22
TORSDOF 8
ENDMDL
MODEL 6
REMARK VINA RESULT:    -7.296      2.585      3.222
REMARK INTER + INTRA:         -11.733
REMARK INTER:                 -10.807
REMARK INTRA:                  -0.926
REMARK UNBOUND:                -1.239
REMARK  Name = 
REMARK  9 active torsions:
REMARK  status: ('A' for Active; 'I' for Inactive)
REMARK    1  A    between atoms: C_1  and  C_2
REMARK    2  A    between atoms: C_9  and  C_10
REMARK    3  A    between atoms: N_12  and  C_13
REMARK    4  A    between atoms: C_13  and  C_14
REMARK    5  A    between atoms: C_17  and  O_18
REMARK    6  A    between atoms: O_18  and  C_19
REMARK    7  A    between atoms: C_19  and  C_20
REMARK    8  A    between atoms: C_20  and  O_21
REMARK    9  A    between atoms: C_20  and  C_22
REMARK                            x       y       z     vdW  Elec       q    Type
REMARK                         _______ _______ _______ _____ _____    ______ ____
ROOT
ATOM      1  C   UNL     1      48.196   6.849  14.523  0.00  0.00    +0.000 A 
ATOM      2  C   UNL     1      48.236   7.553  13.314  0.00  0.00    +0.000 A 
ATOM      3  C   UNL     1      47.533   7.094  12.197  0.00  0.00    +0.000 A 
ATOM      4  C   UNL     1      46.771   5.927  12.276  0.00  0.00    +0.000 A 
ATOM      5  C   UNL     1      46.706   5.238  13.488  0.00  0.00    +0.000 A 
ATOM      6  C   UNL     1      47.405   5.696  14.607  0.00  0.00    +0.000 A 
ENDROOT
BRANCH   1   7
ATOM      7  C   UNL     1      48.988   7.336  15.705  0.00  0.00    +0.000 C 
BRANCH   7  10
ATOM      8  C   UNL     1      50.096   5.862  17.302  0.00  0.00    +0.000 C 
ATOM      9  O   UNL     1      49.219   6.075  18.130  0.00  0.00    +0.000 OA
ATOM     10  N   UNL     1      50.058   6.431  16.047  0.00  0.00    +0.000 N 
ATOM     11  H   UNL     1      50.857   6.373  15.432  0.00  0.00    +0.000 HD
BRANCH   8  20
ATOM     12  C   UNL     1      48.859   2.744  16.963  0.00  0.00    +0.000 C 
ATOM     13  C   UNL     1      50.309   2.526  17.274  0.00  0.00    +0.000 A 
ATOM     14  N   UNL     1      50.696   1.221  17.325  0.00  0.00    +0.000 NA
ATOM     15  C   UNL     1      51.968   0.924  17.605  0.00  0.00    +0.000 A 
ATOM     16  N   UNL     1      52.954   1.780  17.859  0.00  0.00    +0.000 NA
ATOM     17  C   UNL     1      52.553   3.060  17.805  0.00  0.00    +0.000 A 
ATOM     18  S   UNL     1      53.678   4.297  18.106  0.00  0.00    +0.000 S 
ATOM     19  C   UNL     1      52.501   5.502  17.872  0.00  0.00    +0.000 A 
ATOM     20  C   UNL     1      51.246   4.995  17.573  0.00  0.00    +0.000 A 
ATOM     21  C   UNL     1      51.274   3.533  17.523  0.00  0.00    +0.000 A 
ENDBRANCH   8  20
ENDBRANCH   7  10
ENDBRANCH   1   7
BRANCH   4  22
ATOM     22  O   UNL     1      46.064   5.359  11.251  0.00  0.00    +0.000 OA
BRANCH  22  23
ATOM     23  C   UNL     1      45.007   4.467  11.629  0.00  0.00    +0.000 C 
BRANCH  23  24
ATOM     24  C   UNL     1      44.187   4.075  10.388  0.00  0.00    +0.000 C 
BRANCH  24  25
ATOM     25  C   UNL     1      45.026   3.455   9.298  0.00  0.00    +0.000 A 
ATOM     26  C   UNL     1      45.620   4.199   8.273  0.00  0.00    +0.000 A 
ATOM     27  C   UNL     1      46.394   3.563   7.306  0.00  0.00    +0.000 A 
ATOM     28  C   UNL     1      46.562   2.192   7.408  0.00  0.00    +0.000 A 
ATOM     29  N   UNL     1      46.028   1.436   8.387  0.00  0.00    +0.000 NA
ATOM     30  C   UNL     1      45.274   2.084   9.306  0.00  0.00    +0.000 A 
ENDBRANCH  24  25
BRANCH  24  31
ATOM     31  O   UNL     1      43.465   5.203   9.888  0.00  0.00    +0.000 OA
ATOM     32  H   UNL     1      44.041   5.977  10.018  0.00  0.00    +0.000 HD
ENDBRANCH  24  31
ENDBRANCH  23  24
ENDBRANCH  22  23
ENDBRANCH   4  22
TORSDOF 8
ENDMDL
MODEL 7
REMARK VINA RESULT:    -6.875      2.416      4.347
REMARK INTER + INTRA:         -11.129
REMARK INTER:                 -10.059
REMARK INTRA:                  -1.070
REMARK UNBOUND:                -1.239
REMARK  Name = 
REMARK  9 active torsions:
REMARK  status: ('A' for Active; 'I' for Inactive)
REMARK    1  A    between atoms: C_1  and  C_2
REMARK    2  A    between atoms: C_9  and  C_10
REMARK    3  A    between atoms: N_12  and  C_13
REMARK    4  A    between atoms: C_13  and  C_14
REMARK    5  A    between atoms: C_17  and  O_18
REMARK    6  A    between atoms: O_18  and  C_19
REMARK    7  A    between atoms: C_19  and  C_20
REMARK    8  A    between atoms: C_20  and  O_21
REMARK    9  A    between atoms: C_20  and  C_22
REMARK                            x       y       z     vdW  Elec       q    Type
REMARK                         _______ _______ _______ _____ _____    ______ ____
ROOT
ATOM      1  C   UNL     1      47.133   5.183  14.063  0.00  0.00    +0.000 A 
ATOM      2  C   UNL     1      46.816   3.835  13.861  0.00  0.00    +0.000 A 
ATOM      3  C   UNL     1      45.985   3.447  12.806  0.00  0.00    +0.000 A 
ATOM      4  C   UNL     1      45.467   4.402  11.931  0.00  0.00    +0.000 A 
ATOM      5  C   UNL     1      45.803   5.745  12.113  0.00  0.00    +0.000 A 
ATOM      6  C   UNL     1      46.635   6.135  13.165  0.00  0.00    +0.000 A 
ENDROOT
BRANCH   1   7
ATOM      7  C   UNL     1      47.997   5.587  15.225  0.00  0.00    +0.000 C 
BRANCH   7  10
ATOM      8  C   UNL     1      49.347   7.619  15.247  0.00  0.00    +0.000 C 
ATOM      9  O   UNL     1      50.360   6.966  15.026  0.00  0.00    +0.000 OA
ATOM     10  N   UNL     1      48.109   7.021  15.342  0.00  0.00    +0.000 N 
ATOM     11  H   UNL     1      47.311   7.542  15.675  0.00  0.00    +0.000 HD
BRANCH   8  20
ATOM     12  C   UNL     1      48.846   8.826  12.139  0.00  0.00    +0.000 C 
ATOM     13  C   UNL     1      48.934  10.054  12.994  0.00  0.00    +0.000 A 
ATOM     14  N   UNL     1      48.793  11.232  12.324  0.00  0.00    +0.000 NA
ATOM     15  C   UNL     1      48.866  12.383  12.999  0.00  0.00    +0.000 A 
ATOM     16  N   UNL     1      49.075  12.536  14.303  0.00  0.00    +0.000 NA
ATOM     17  C   UNL     1      49.212  11.365  14.945  0.00  0.00    +0.000 A 
ATOM     18  S   UNL     1      49.490  11.363  16.621  0.00  0.00    +0.000 S 
ATOM     19  C   UNL     1      49.546   9.664  16.667  0.00  0.00    +0.000 A 
ATOM     20  C   UNL     1      49.366   9.073  15.426  0.00  0.00    +0.000 A 
ATOM     21  C   UNL     1      49.157  10.088  14.392  0.00  0.00    +0.000 A 
ENDBRANCH   8  20
ENDBRANCH   7  10
ENDBRANCH   1   7
BRANCH   4  22
ATOM     22  O   UNL     1      44.622   4.157  10.882  0.00  0.00    +0.000 OA
BRANCH  22  23
ATOM     23  C   UNL     1      44.735   2.867  10.267  0.00  0.00    +0.000 C 
BRANCH  23  24
ATOM     24  C   UNL     1      44.486   2.988   8.754  0.00  0.00    +0.000 C 
BRANCH  24  25
ATOM     25  C   UNL     1      45.698   2.638   7.926  0.00  0.00    +0.000 A 
ATOM     26  C   UNL     1      46.325   3.545   7.067  0.00  0.00    +0.000 A 
ATOM     27  C   UNL     1      47.450   3.158   6.342  0.00  0.00    +0.000 A 
ATOM     28  C   UNL     1      47.922   1.868   6.517  0.00  0.00    +0.000 A 
ATOM     29  N   UNL     1      47.364   0.966   7.347  0.00  0.00    +0.000 NA
ATOM     30  C   UNL     1      46.268   1.371   8.030  0.00  0.00    +0.000 A 
ENDBRANCH  24  25
BRANCH  24  31
ATOM     31  O   UNL     1      44.014   4.297   8.427  0.00  0.00    +0.000 OA
ATOM     32  H   UNL     1      43.057   4.211   8.268  0.00  0.00    +0.000 HD
ENDBRANCH  24  31
ENDBRANCH  23  24
ENDBRANCH  22  23
ENDBRANCH   4  22
TORSDOF 8
ENDMDL
MODEL 8
REMARK VINA RESULT:    -6.676      4.038      8.103
REMARK INTER + INTRA:         -10.842
REMARK INTER:                  -9.273
REMARK INTRA:                  -1.569
REMARK UNBOUND:                -1.239
REMARK  Name = 
REMARK  9 active torsions:
REMARK  status: ('A' for Active; 'I' for Inactive)
REMARK    1  A    between atoms: C_1  and  C_2
REMARK    2  A    between atoms: C_9  and  C_10
REMARK    3  A    between atoms: N_12  and  C_13
REMARK    4  A    between atoms: C_13  and  C_14
REMARK    5  A    between atoms: C_17  and  O_18
REMARK    6  A    between atoms: O_18  and  C_19
REMARK    7  A    between atoms: C_19  and  C_20
REMARK    8  A    between atoms: C_20  and  O_21
REMARK    9  A    between atoms: C_20  and  C_22
REMARK                            x       y       z     vdW  Elec       q    Type
REMARK                         _______ _______ _______ _____ _____    ______ ____
ROOT
ATOM      1  C   UNL     1      48.329   8.470  15.451  0.00  0.00    +0.000 A 
ATOM      2  C   UNL     1      48.199   9.301  16.569  0.00  0.00    +0.000 A 
ATOM      3  C   UNL     1      48.535   8.840  17.846  0.00  0.00    +0.000 A 
ATOM      4  C   UNL     1      49.014   7.541  18.020  0.00  0.00    +0.000 A 
ATOM      5  C   UNL     1      49.171   6.718  16.903  0.00  0.00    +0.000 A 
ATOM      6  C   UNL     1      48.839   7.178  15.626  0.00  0.00    +0.000 A 
ENDROOT
BRANCH   1   7
ATOM      7  C   UNL     1      47.928   8.970  14.091  0.00  0.00    +0.000 C 
BRANCH   7  10
ATOM      8  C   UNL     1      46.800   7.416  12.586  0.00  0.00    +0.000 C 
ATOM      9  O   UNL     1      47.872   7.099  12.086  0.00  0.00    +0.000 OA
ATOM     10  N   UNL     1      46.725   8.331  13.613  0.00  0.00    +0.000 N 
ATOM     11  H   UNL     1      45.832   8.698  13.911  0.00  0.00    +0.000 HD
BRANCH   8  20
ATOM     12  C   UNL     1      46.926   4.200  13.591  0.00  0.00    +0.000 C 
ATOM     13  C   UNL     1      45.575   4.327  12.952  0.00  0.00    +0.000 A 
ATOM     14  N   UNL     1      44.827   3.189  12.959  0.00  0.00    +0.000 NA
ATOM     15  C   UNL     1      43.612   3.200  12.404  0.00  0.00    +0.000 A 
ATOM     16  N   UNL     1      43.010   4.226  11.811  0.00  0.00    +0.000 NA
ATOM     17  C   UNL     1      43.763   5.338  11.813  0.00  0.00    +0.000 A 
ATOM     18  S   UNL     1      43.158   6.753  11.094  0.00  0.00    +0.000 S 
ATOM     19  C   UNL     1      44.572   7.618  11.474  0.00  0.00    +0.000 A 
ATOM     20  C   UNL     1      45.522   6.856  12.138  0.00  0.00    +0.000 A 
ATOM     21  C   UNL     1      45.038   5.492  12.351  0.00  0.00    +0.000 A 
ENDBRANCH   8  20
ENDBRANCH   7  10
ENDBRANCH   1   7
BRANCH   4  22
ATOM     22  O   UNL     1      49.348   6.961  19.214  0.00  0.00    +0.000 OA
BRANCH  22  23
ATOM     23  C   UNL     1      48.394   6.038  19.758  0.00  0.00    +0.000 C 
BRANCH  23  24
ATOM     24  C   UNL     1      49.046   4.655  19.924  0.00  0.00    +0.000 C 
BRANCH  24  25
ATOM     25  C   UNL     1      48.959   3.807  18.680  0.00  0.00    +0.000 A 
ATOM     26  C   UNL     1      47.754   3.523  18.031  0.00  0.00    +0.000 A 
ATOM     27  C   UNL     1      47.748   2.744  16.876  0.00  0.00    +0.000 A 
ATOM     28  C   UNL     1      48.964   2.286  16.397  0.00  0.00    +0.000 A 
ATOM     29  N   UNL     1      50.152   2.550  16.975  0.00  0.00    +0.000 NA
ATOM     30  C   UNL     1      50.122   3.302  18.100  0.00  0.00    +0.000 A 
ENDBRANCH  24  25
BRANCH  24  31
ATOM     31  O   UNL     1      48.482   3.966  21.043  0.00  0.00    +0.000 OA
ATOM     32  H   UNL     1      47.662   3.551  20.723  0.00  0.00    +0.000 HD
ENDBRANCH  24  31
ENDBRANCH  23  24
ENDBRANCH  22  23
ENDBRANCH   4  22
TORSDOF 8
ENDMDL
MODEL 9
REMARK VINA RESULT:    -6.453      1.608      2.335
REMARK INTER + INTRA:         -10.521
REMARK INTER:                  -9.694
REMARK INTRA:                  -0.826
REMARK UNBOUND:                -1.239
REMARK  Name = 
REMARK  9 active torsions:
REMARK  status: ('A' for Active; 'I' for Inactive)
REMARK    1  A    between atoms: C_1  and  C_2
REMARK    2  A    between atoms: C_9  and  C_10
REMARK    3  A    between atoms: N_12  and  C_13
REMARK    4  A    between atoms: C_13  and  C_14
REMARK    5  A    between atoms: C_17  and  O_18
REMARK    6  A    between atoms: O_18  and  C_19
REMARK    7  A    between atoms: C_19  and  C_20
REMARK    8  A    between atoms: C_20  and  O_21
REMARK    9  A    between atoms: C_20  and  C_22
REMARK                            x       y       z     vdW  Elec       q    Type
REMARK                         _______ _______ _______ _____ _____    ______ ____
ROOT
ATOM      1  C   UNL     1      47.463   8.372  13.568  0.00  0.00    +0.000 A 
ATOM      2  C   UNL     1      47.807   7.385  12.638  0.00  0.00    +0.000 A 
ATOM      3  C   UNL     1      46.872   6.923  11.707  0.00  0.00    +0.000 A 
ATOM      4  C   UNL     1      45.579   7.448  11.689  0.00  0.00    +0.000 A 
ATOM      5  C   UNL     1      45.240   8.452  12.597  0.00  0.00    +0.000 A 
ATOM      6  C   UNL     1      46.174   8.918  13.526  0.00  0.00    +0.000 A 
ENDROOT
BRANCH   1   7
ATOM      7  C   UNL     1      48.469   8.831  14.586  0.00  0.00    +0.000 C 
BRANCH   7  10
ATOM      8  C   UNL     1      49.549   6.987  15.763  0.00  0.00    +0.000 C 
ATOM      9  O   UNL     1      50.405   6.911  14.890  0.00  0.00    +0.000 OA
ATOM     10  N   UNL     1      48.547   7.932  15.712  0.00  0.00    +0.000 N 
ATOM     11  H   UNL     1      47.765   7.887  16.350  0.00  0.00    +0.000 HD
BRANCH   8  20
ATOM     12  C   UNL     1      47.195   4.710  14.962  0.00  0.00    +0.000 C 
ATOM     13  C   UNL     1      47.695   4.257  16.300  0.00  0.00    +0.000 A 
ATOM     14  N   UNL     1      47.103   3.129  16.784  0.00  0.00    +0.000 NA
ATOM     15  C   UNL     1      47.475   2.653  17.975  0.00  0.00    +0.000 A 
ATOM     16  N   UNL     1      48.389   3.165  18.794  0.00  0.00    +0.000 NA
ATOM     17  C   UNL     1      48.960   4.275  18.301  0.00  0.00    +0.000 A 
ATOM     18  S   UNL     1      50.152   5.073  19.213  0.00  0.00    +0.000 S 
ATOM     19  C   UNL     1      50.349   6.266  18.017  0.00  0.00    +0.000 A 
ATOM     20  C   UNL     1      49.518   6.089  16.921  0.00  0.00    +0.000 A 
ATOM     21  C   UNL     1      48.690   4.893  17.083  0.00  0.00    +0.000 A 
ENDBRANCH   8  20
ENDBRANCH   7  10
ENDBRANCH   1   7
BRANCH   4  22
ATOM     22  O   UNL     1      44.567   7.062  10.853  0.00  0.00    +0.000 OA
BRANCH  22  23
ATOM     23  C   UNL     1      43.755   5.969  11.305  0.00  0.00    +0.000 C 
BRANCH  23  24
ATOM     24  C   UNL     1      44.627   4.716  11.493  0.00  0.00    +0.000 C 
BRANCH  24  25
ATOM     25  C   UNL     1      44.958   4.026  10.193  0.00  0.00    +0.000 A 
ATOM     26  C   UNL     1      44.725   2.666   9.968  0.00  0.00    +0.000 A 
ATOM     27  C   UNL     1      45.042   2.097   8.737  0.00  0.00    +0.000 A 
ATOM     28  C   UNL     1      45.572   2.921   7.758  0.00  0.00    +0.000 A 
ATOM     29  N   UNL     1      45.795   4.240   7.921  0.00  0.00    +0.000 NA
ATOM     30  C   UNL     1      45.484   4.760   9.131  0.00  0.00    +0.000 A 
ENDBRANCH  24  25
BRANCH  24  31
ATOM     31  O   UNL     1      44.005   3.805  12.403  0.00  0.00    +0.000 OA
ATOM     32  H   UNL     1      44.071   4.212  13.285  0.00  0.00    +0.000 HD
ENDBRANCH  24  31
ENDBRANCH  23  24
ENDBRANCH  22  23
ENDBRANCH   4  22
TORSDOF 8
ENDMDL
