MODEL 1
REMARK VINA RESULT:    -8.448      0.000      0.000
REMARK INTER + INTRA:         -13.068
REMARK INTER:                 -12.399
REMARK INTRA:                  -0.668
REMARK UNBOUND:                -0.668
REMARK  Name = 
REMARK  9 active torsions:
REMARK  status: ('A' for Active; 'I' for Inactive)
REMARK    1  A    between atoms: C_1  and  C_2
REMARK    2  A    between atoms: C_2  and  O_3
REMARK    3  A    between atoms: O_3  and  C_4
REMARK    4  A    between atoms: C_4  and  C_5
REMARK    5  A    between atoms: C_4  and  C_12
REMARK    6  A    between atoms: C_5  and  C_6
REMARK    7  A    between atoms: C_15  and  C_16
REMARK    8  A    between atoms: C_16  and  N_17
REMARK    9  A    between atoms: C_18  and  C_20
REMARK                            x       y       z     vdW  Elec       q    Type
REMARK                         _______ _______ _______ _____ _____    ______ ____
ROOT
ATOM      1  C   UNL     1      45.282   4.836  11.142  0.00  0.00    +0.000 A 
ATOM      2  C   UNL     1      45.776   6.098  10.767  0.00  0.00    +0.000 A 
ATOM      3  C   UNL     1      46.800   6.718  11.494  0.00  0.00    +0.000 A 
ATOM      4  C   UNL     1      47.332   6.107  12.635  0.00  0.00    +0.000 A 
ATOM      5  C   UNL     1      46.794   4.891  13.058  0.00  0.00    +0.000 A 
ATOM      6  C   UNL     1      45.813   4.250  12.301  0.00  0.00    +0.000 A 
ENDROOT
BRANCH   1   7
ATOM      7  C   UNL     1      44.245   4.116  10.270  0.00  0.00    +0.000 C 
BRANCH   7   8
ATOM      8  O   UNL     1      42.981   3.968  10.943  0.00  0.00    +0.000 OA
BRANCH   8  10
ATOM      9  C   UNL     1      42.793   5.085  13.021  0.00  0.00    +0.000 C 
ATOM     10  C   UNL     1      42.468   5.158  11.539  0.00  0.00    +0.000 C 
ENDBRANCH   8  10
ENDBRANCH   7   8
BRANCH   7  11
ATOM     11  C   UNL     1      44.763   2.692   9.969  0.00  0.00    +0.000 C 
BRANCH  11  12
ATOM     12  C   UNL     1      45.638   2.580   8.743  0.00  0.00    +0.000 A 
ATOM     13  C   UNL     1      45.786   3.676   7.893  0.00  0.00    +0.000 A 
ATOM     14  C   UNL     1      46.494   3.521   6.705  0.00  0.00    +0.000 A 
ATOM     15  C   UNL     1      47.035   2.282   6.395  0.00  0.00    +0.000 A 
ATOM     16  C   UNL     1      46.860   1.249   7.302  0.00  0.00    +0.000 A 
ATOM     17  N   UNL     1      46.179   1.366   8.467  0.00  0.00    +0.000 NA
ENDBRANCH  11  12
ENDBRANCH   7  11
ENDBRANCH   1   7
BRANCH   4  18
ATOM     18  C   UNL     1      48.462   6.727  13.409  0.00  0.00    +0.000 C 
BRANCH  18  19
ATOM     19  N   UNL     1      48.175   6.773  14.817  0.00  0.00    +0.000 N 
ATOM     20  C   UNL     1      49.194   6.742  15.735  0.00  0.00    +0.000 C 
ATOM     21  O   UNL     1      50.373   6.726  15.396  0.00  0.00    +0.000 OA
ATOM     22  H   UNL     1      47.229   6.540  15.108  0.00  0.00    +0.000 HD
BRANCH  20  23
ATOM     23  C   UNL     1      48.806   6.791  17.149  0.00  0.00    +0.000 A 
ATOM     24  C   UNL     1      48.368   7.991  17.697  0.00  0.00    +0.000 A 
ATOM     25  S   UNL     1      47.903   7.867  19.331  0.00  0.00    +0.000 S 
ATOM     26  C   UNL     1      48.322   6.219  19.382  0.00  0.00    +0.000 A 
ATOM     27  N   UNL     1      48.186   5.498  20.527  0.00  0.00    +0.000 NA
ATOM     28  C   UNL     1      48.564   4.266  20.432  0.00  0.00    +0.000 A 
ATOM     29  N   UNL     1      49.062   3.688  19.291  0.00  0.00    +0.000 N 
ATOM     30  C   UNL     1      49.194   4.369  18.101  0.00  0.00    +0.000 A 
ATOM     31  O   UNL     1      49.602   3.814  17.085  0.00  0.00    +0.000 OA
ATOM     32  C   UNL     1      48.789   5.764  18.161  0.00  0.00    +0.000 A 
ATOM     33  H   UNL     1      49.337   2.717  19.282  0.00  0.00    +0.000 HD
ENDBRANCH  20  23
ENDBRANCH  18  19
ENDBRANCH   4  18
TORSDOF 8
ENDMDL
MODEL 2
REMARK VINA RESULT:    -8.357      1.255      2.100
REMARK INTER + INTRA:         -12.934
REMARK INTER:                 -11.934
REMARK INTRA:                  -1.000
REMARK UNBOUND:                -0.668
REMARK  Name = 
REMARK  9 active torsions:
REMARK  status: ('A' for Active; 'I' for Inactive)
REMARK    1  A    between atoms: C_1  and  C_2
REMARK    2  A    between atoms: C_2  and  O_3
REMARK    3  A    between atoms: O_3  and  C_4
REMARK    4  A    between atoms: C_4  and  C_5
REMARK    5  A    between atoms: C_4  and  C_12
REMARK    6  A    between atoms: C_5  and  C_6
REMARK    7  A    between atoms: C_15  and  C_16
REMARK    8  A    between atoms: C_16  and  N_17
REMARK    9  A    between atoms: C_18  and  C_20
REMARK                            x       y       z     vdW  Elec       q    Type
REMARK                         _______ _______ _______ _____ _____    ______ ____
ROOT
ATOM      1  C   UNL     1      45.369   4.767  11.199  0.00  0.00    +0.000 A 
ATOM      2  C   UNL     1      45.823   4.181  12.394  0.00  0.00    +0.000 A 
ATOM      3  C   UNL     1      46.734   4.847  13.224  0.00  0.00    +0.000 A 
ATOM      4  C   UNL     1      47.240   6.100  12.862  0.00  0.00    +0.000 A 
ATOM      5  C   UNL     1      46.853   6.653  11.640  0.00  0.00    +0.000 A 
ATOM      6  C   UNL     1      45.904   6.013  10.843  0.00  0.00    +0.000 A 
ENDROOT
BRANCH   1   7
ATOM      7  C   UNL     1      44.282   4.080  10.359  0.00  0.00    +0.000 C 
BRANCH   7   8
ATOM      8  O   UNL     1      43.048   3.938  11.084  0.00  0.00    +0.000 OA
BRANCH   8  10
ATOM      9  C   UNL     1      42.738   5.322  12.978  0.00  0.00    +0.000 C 
ATOM     10  C   UNL     1      42.441   5.161  11.498  0.00  0.00    +0.000 C 
ENDBRANCH   8  10
ENDBRANCH   7   8
BRANCH   7  11
ATOM     11  C   UNL     1      44.764   2.655  10.006  0.00  0.00    +0.000 C 
BRANCH  11  12
ATOM     12  C   UNL     1      45.618   2.563   8.764  0.00  0.00    +0.000 A 
ATOM     13  C   UNL     1      45.720   3.659   7.908  0.00  0.00    +0.000 A 
ATOM     14  C   UNL     1      46.409   3.519   6.707  0.00  0.00    +0.000 A 
ATOM     15  C   UNL     1      46.976   2.293   6.390  0.00  0.00    +0.000 A 
ATOM     16  C   UNL     1      46.846   1.259   7.303  0.00  0.00    +0.000 A 
ATOM     17  N   UNL     1      46.185   1.362   8.481  0.00  0.00    +0.000 NA
ENDBRANCH  11  12
ENDBRANCH   7  11
ENDBRANCH   1   7
BRANCH   4  18
ATOM     18  C   UNL     1      48.183   6.858  13.753  0.00  0.00    +0.000 C 
BRANCH  18  19
ATOM     19  N   UNL     1      48.002   6.506  15.135  0.00  0.00    +0.000 N 
ATOM     20  C   UNL     1      49.088   6.327  15.955  0.00  0.00    +0.000 C 
ATOM     21  O   UNL     1      50.236   6.507  15.561  0.00  0.00    +0.000 OA
ATOM     22  H   UNL     1      47.101   6.121  15.403  0.00  0.00    +0.000 HD
BRANCH  20  23
ATOM     23  C   UNL     1      48.807   5.966  17.349  0.00  0.00    +0.000 A 
ATOM     24  C   UNL     1      49.005   4.657  17.770  0.00  0.00    +0.000 A 
ATOM     25  S   UNL     1      48.686   4.416  19.426  0.00  0.00    +0.000 S 
ATOM     26  C   UNL     1      48.219   6.040  19.628  0.00  0.00    +0.000 A 
ATOM     27  N   UNL     1      47.799   6.501  20.837  0.00  0.00    +0.000 NA
ATOM     28  C   UNL     1      47.452   7.745  20.843  0.00  0.00    +0.000 A 
ATOM     29  N   UNL     1      47.491   8.573  19.749  0.00  0.00    +0.000 N 
ATOM     30  C   UNL     1      47.932   8.159  18.511  0.00  0.00    +0.000 A 
ATOM     31  O   UNL     1      47.997   8.933  17.561  0.00  0.00    +0.000 OA
ATOM     32  C   UNL     1      48.326   6.761  18.452  0.00  0.00    +0.000 A 
ATOM     33  H   UNL     1      47.207   9.539  19.822  0.00  0.00    +0.000 HD
ENDBRANCH  20  23
ENDBRANCH  18  19
ENDBRANCH   4  18
TORSDOF 8
ENDMDL
MODEL 3
REMARK VINA RESULT:    -7.954      1.546      1.999
REMARK INTER + INTRA:         -12.342
REMARK INTER:                 -11.062
REMARK INTRA:                  -1.280
REMARK UNBOUND:                -0.668
REMARK  Name = 
REMARK  9 active torsions:
REMARK  status: ('A' for Active; 'I' for Inactive)
REMARK    1  A    between atoms: C_1  and  C_2
REMARK    2  A    between atoms: C_2  and  O_3
REMARK    3  A    between atoms: O_3  and  C_4
REMARK    4  A    between atoms: C_4  and  C_5
REMARK    5  A    between atoms: C_4  and  C_12
REMARK    6  A    between atoms: C_5  and  C_6
REMARK    7  A    between atoms: C_15  and  C_16
REMARK    8  A    between atoms: C_16  and  N_17
REMARK    9  A    between atoms: C_18  and  C_20
REMARK                            x       y       z     vdW  Elec       q    Type
REMARK                         _______ _______ _______ _____ _____    ______ ____
ROOT
ATOM      1  C   UNL     1      45.106   5.888  10.987  0.00  0.00    +0.000 A 
ATOM      2  C   UNL     1      46.294   5.404  11.564  0.00  0.00    +0.000 A 
ATOM      3  C   UNL     1      47.057   6.205  12.424  0.00  0.00    +0.000 A 
ATOM      4  C   UNL     1      46.669   7.520  12.701  0.00  0.00    +0.000 A 
ATOM      5  C   UNL     1      45.534   8.032  12.071  0.00  0.00    +0.000 A 
ATOM      6  C   UNL     1      44.746   7.216  11.260  0.00  0.00    +0.000 A 
ENDROOT
BRANCH   1   7
ATOM      7  C   UNL     1      44.219   4.964  10.142  0.00  0.00    +0.000 C 
BRANCH   7   8
ATOM      8  O   UNL     1      42.900   4.821  10.700  0.00  0.00    +0.000 OA
BRANCH   8  10
ATOM      9  C   UNL     1      42.855   4.862  13.066  0.00  0.00    +0.000 C 
ATOM     10  C   UNL     1      42.812   3.967  11.840  0.00  0.00    +0.000 C 
ENDBRANCH   8  10
ENDBRANCH   7   8
BRANCH   7  11
ATOM     11  C   UNL     1      44.855   3.556  10.125  0.00  0.00    +0.000 C 
BRANCH  11  12
ATOM     12  C   UNL     1      45.546   3.187   8.834  0.00  0.00    +0.000 A 
ATOM     13  C   UNL     1      45.900   1.860   8.589  0.00  0.00    +0.000 A 
ATOM     14  C   UNL     1      46.646   1.556   7.455  0.00  0.00    +0.000 A 
ATOM     15  C   UNL     1      47.021   2.578   6.596  0.00  0.00    +0.000 A 
ATOM     16  C   UNL     1      46.614   3.867   6.900  0.00  0.00    +0.000 A 
ATOM     17  N   UNL     1      45.886   4.198   7.994  0.00  0.00    +0.000 NA
ENDBRANCH  11  12
ENDBRANCH   7  11
ENDBRANCH   1   7
BRANCH   4  18
ATOM     18  C   UNL     1      47.442   8.387  13.655  0.00  0.00    +0.000 C 
BRANCH  18  19
ATOM     19  N   UNL     1      47.782   7.676  14.858  0.00  0.00    +0.000 N 
ATOM     20  C   UNL     1      49.033   7.136  15.017  0.00  0.00    +0.000 C 
ATOM     21  O   UNL     1      49.914   7.280  14.175  0.00  0.00    +0.000 OA
ATOM     22  H   UNL     1      47.014   7.343  15.435  0.00  0.00    +0.000 HD
BRANCH  20  23
ATOM     23  C   UNL     1      49.288   6.427  16.276  0.00  0.00    +0.000 A 
ATOM     24  C   UNL     1      50.260   6.904  17.145  0.00  0.00    +0.000 A 
ATOM     25  S   UNL     1      50.394   6.002  18.584  0.00  0.00    +0.000 S 
ATOM     26  C   UNL     1      49.194   4.909  18.074  0.00  0.00    +0.000 A 
ATOM     27  N   UNL     1      48.835   3.853  18.852  0.00  0.00    +0.000 NA
ATOM     28  C   UNL     1      47.931   3.090  18.332  0.00  0.00    +0.000 A 
ATOM     29  N   UNL     1      47.351   3.289  17.105  0.00  0.00    +0.000 N 
ATOM     30  C   UNL     1      47.664   4.356  16.292  0.00  0.00    +0.000 A 
ATOM     31  O   UNL     1      47.097   4.534  15.218  0.00  0.00    +0.000 OA
ATOM     32  C   UNL     1      48.684   5.240  16.831  0.00  0.00    +0.000 A 
ATOM     33  H   UNL     1      46.647   2.655  16.757  0.00  0.00    +0.000 HD
ENDBRANCH  20  23
ENDBRANCH  18  19
ENDBRANCH   4  18
TORSDOF 8
ENDMDL
MODEL 4
REMARK VINA RESULT:    -7.869      1.869      3.090
REMARK INTER + INTRA:         -12.218
REMARK INTER:                 -10.915
REMARK INTRA:                  -1.303
REMARK UNBOUND:                -0.668
REMARK  Name = 
REMARK  9 active torsions:
REMARK  status: ('A' for Active; 'I' for Inactive)
REMARK    1  A    between atoms: C_1  and  C_2
REMARK    2  A    between atoms: C_2  and  O_3
REMARK    3  A    between atoms: O_3  and  C_4
REMARK    4  A    between atoms: C_4  and  C_5
REMARK    5  A    between atoms: C_4  and  C_12
REMARK    6  A    between atoms: C_5  and  C_6
REMARK    7  A    between atoms: C_15  and  C_16
REMARK    8  A    between atoms: C_16  and  N_17
REMARK    9  A    between atoms: C_18  and  C_20
REMARK                            x       y       z     vdW  Elec       q    Type
REMARK                         _______ _______ _______ _____ _____    ______ ____
ROOT
ATOM      1  C   UNL     1      45.765   4.847  11.924  0.00  0.00    +0.000 A 
ATOM      2  C   UNL     1      45.789   3.529  12.415  0.00  0.00    +0.000 A 
ATOM      3  C   UNL     1      46.431   3.219  13.621  0.00  0.00    +0.000 A 
ATOM      4  C   UNL     1      47.095   4.214  14.348  0.00  0.00    +0.000 A 
ATOM      5  C   UNL     1      47.141   5.508  13.828  0.00  0.00    +0.000 A 
ATOM      6  C   UNL     1      46.454   5.824  12.656  0.00  0.00    +0.000 A 
ENDROOT
BRANCH   1   7
ATOM      7  C   UNL     1      44.959   5.193  10.664  0.00  0.00    +0.000 C 
BRANCH   7   8
ATOM      8  O   UNL     1      43.809   6.004  10.964  0.00  0.00    +0.000 OA
BRANCH   8  10
ATOM      9  C   UNL     1      42.723   5.329  12.955  0.00  0.00    +0.000 C 
ATOM     10  C   UNL     1      42.669   5.290  11.438  0.00  0.00    +0.000 C 
ENDBRANCH   8  10
ENDBRANCH   7   8
BRANCH   7  11
ATOM     11  C   UNL     1      44.434   3.880  10.043  0.00  0.00    +0.000 C 
BRANCH  11  12
ATOM     12  C   UNL     1      45.271   3.333   8.911  0.00  0.00    +0.000 A 
ATOM     13  C   UNL     1      45.556   1.969   8.853  0.00  0.00    +0.000 A 
ATOM     14  C   UNL     1      46.430   1.501   7.877  0.00  0.00    +0.000 A 
ATOM     15  C   UNL     1      46.997   2.400   6.985  0.00  0.00    +0.000 A 
ATOM     16  C   UNL     1      46.648   3.736   7.098  0.00  0.00    +0.000 A 
ATOM     17  N   UNL     1      45.799   4.226   8.034  0.00  0.00    +0.000 NA
ENDBRANCH  11  12
ENDBRANCH   7  11
ENDBRANCH   1   7
BRANCH   4  18
ATOM     18  C   UNL     1      47.753   3.921  15.667  0.00  0.00    +0.000 C 
BRANCH  18  19
ATOM     19  N   UNL     1      47.554   4.991  16.606  0.00  0.00    +0.000 N 
ATOM     20  C   UNL     1      48.624   5.706  17.082  0.00  0.00    +0.000 C 
ATOM     21  O   UNL     1      49.769   5.499  16.692  0.00  0.00    +0.000 OA
ATOM     22  H   UNL     1      46.672   5.009  17.112  0.00  0.00    +0.000 HD
BRANCH  20  23
ATOM     23  C   UNL     1      48.325   6.778  18.038  0.00  0.00    +0.000 A 
ATOM     24  C   UNL     1      48.154   6.467  19.381  0.00  0.00    +0.000 A 
ATOM     25  S   UNL     1      47.869   7.828  20.367  0.00  0.00    +0.000 S 
ATOM     26  C   UNL     1      47.909   8.874  19.027  0.00  0.00    +0.000 A 
ATOM     27  N   UNL     1      47.708  10.211  19.178  0.00  0.00    +0.000 NA
ATOM     28  C   UNL     1      47.741  10.884  18.076  0.00  0.00    +0.000 A 
ATOM     29  N   UNL     1      47.961  10.342  16.835  0.00  0.00    +0.000 N 
ATOM     30  C   UNL     1      48.194   9.000  16.634  0.00  0.00    +0.000 A 
ATOM     31  O   UNL     1      48.432   8.549  15.518  0.00  0.00    +0.000 OA
ATOM     32  C   UNL     1      48.159   8.198  17.846  0.00  0.00    +0.000 A 
ATOM     33  H   UNL     1      47.977  10.926  16.012  0.00  0.00    +0.000 HD
ENDBRANCH  20  23
ENDBRANCH  18  19
ENDBRANCH   4  18
TORSDOF 8
ENDMDL
MODEL 5
REMARK VINA RESULT:    -7.803      1.631      2.205
REMARK INTER + INTRA:         -12.120
REMARK INTER:                 -11.362
REMARK INTRA:                  -0.758
REMARK UNBOUND:                -0.668
REMARK  Name = 
REMARK  9 active torsions:
REMARK  status: ('A' for Active; 'I' for Inactive)
REMARK    1  A    between atoms: C_1  and  C_2
REMARK    2  A    between atoms: C_2  and  O_3
REMARK    3  A    between atoms: O_3  and  C_4
REMARK    4  A    between atoms: C_4  and  C_5
REMARK    5  A    between atoms: C_4  and  C_12
REMARK    6  A    between atoms: C_5  and  C_6
REMARK    7  A    between atoms: C_15  and  C_16
REMARK    8  A    between atoms: C_16  and  N_17
REMARK    9  A    between atoms: C_18  and  C_20
REMARK                            x       y       z     vdW  Elec       q    Type
REMARK                         _______ _______ _______ _____ _____    ______ ____
ROOT
ATOM      1  C   UNL     1      45.287   4.819  11.063  0.00  0.00    +0.000 A 
ATOM      2  C   UNL     1      45.804   4.232  12.231  0.00  0.00    +0.000 A 
ATOM      3  C   UNL     1      46.702   4.926  13.052  0.00  0.00    +0.000 A 
ATOM      4  C   UNL     1      47.132   6.212  12.706  0.00  0.00    +0.000 A 
ATOM      5  C   UNL     1      46.683   6.771  11.509  0.00  0.00    +0.000 A 
ATOM      6  C   UNL     1      45.746   6.100  10.722  0.00  0.00    +0.000 A 
ENDROOT
BRANCH   1   7
ATOM      7  C   UNL     1      44.214   4.095  10.237  0.00  0.00    +0.000 C 
BRANCH   7   8
ATOM      8  O   UNL     1      42.974   3.966  10.955  0.00  0.00    +0.000 OA
BRANCH   8  10
ATOM      9  C   UNL     1      42.755   5.114  13.012  0.00  0.00    +0.000 C 
ATOM     10  C   UNL     1      42.471   5.174  11.522  0.00  0.00    +0.000 C 
ENDBRANCH   8  10
ENDBRANCH   7   8
BRANCH   7  11
ATOM     11  C   UNL     1      44.712   2.664   9.936  0.00  0.00    +0.000 C 
BRANCH  11  12
ATOM     12  C   UNL     1      45.597   2.542   8.718  0.00  0.00    +0.000 A 
ATOM     13  C   UNL     1      45.743   3.626   7.853  0.00  0.00    +0.000 A 
ATOM     14  C   UNL     1      46.460   3.460   6.673  0.00  0.00    +0.000 A 
ATOM     15  C   UNL     1      47.011   2.220   6.384  0.00  0.00    +0.000 A 
ATOM     16  C   UNL     1      46.838   1.199   7.303  0.00  0.00    +0.000 A 
ATOM     17  N   UNL     1      46.148   1.327   8.462  0.00  0.00    +0.000 NA
ENDBRANCH  11  12
ENDBRANCH   7  11
ENDBRANCH   1   7
BRANCH   4  18
ATOM     18  C   UNL     1      48.059   6.998  13.590  0.00  0.00    +0.000 C 
BRANCH  18  19
ATOM     19  N   UNL     1      48.517   6.215  14.705  0.00  0.00    +0.000 N 
ATOM     20  C   UNL     1      48.812   6.817  15.903  0.00  0.00    +0.000 C 
ATOM     21  O   UNL     1      48.650   8.020  16.082  0.00  0.00    +0.000 OA
ATOM     22  H   UNL     1      48.884   5.289  14.505  0.00  0.00    +0.000 HD
BRANCH  20  23
ATOM     23  C   UNL     1      49.275   5.939  16.983  0.00  0.00    +0.000 A 
ATOM     24  C   UNL     1      48.344   5.324  17.810  0.00  0.00    +0.000 A 
ATOM     25  S   UNL     1      49.041   4.295  18.976  0.00  0.00    +0.000 S 
ATOM     26  C   UNL     1      50.613   4.676  18.453  0.00  0.00    +0.000 A 
ATOM     27  N   UNL     1      51.703   4.136  19.062  0.00  0.00    +0.000 NA
ATOM     28  C   UNL     1      52.835   4.530  18.581  0.00  0.00    +0.000 A 
ATOM     29  N   UNL     1      52.976   5.414  17.540  0.00  0.00    +0.000 N 
ATOM     30  C   UNL     1      51.905   5.968  16.876  0.00  0.00    +0.000 A 
ATOM     31  O   UNL     1      52.061   6.722  15.920  0.00  0.00    +0.000 OA
ATOM     32  C   UNL     1      50.607   5.560  17.388  0.00  0.00    +0.000 A 
ATOM     33  H   UNL     1      53.892   5.680  17.209  0.00  0.00    +0.000 HD
ENDBRANCH  20  23
ENDBRANCH  18  19
ENDBRANCH   4  18
TORSDOF 8
ENDMDL
MODEL 6
REMARK VINA RESULT:    -7.210      3.423      4.703
REMARK INTER + INTRA:         -11.250
REMARK INTER:                  -9.895
REMARK INTRA:                  -1.355
REMARK UNBOUND:                -0.668
REMARK  Name = 
REMARK  9 active torsions:
REMARK  status: ('A' for Active; 'I' for Inactive)
REMARK    1  A    between atoms: C_1  and  C_2
REMARK    2  A    between atoms: C_2  and  O_3
REMARK    3  A    between atoms: O_3  and  C_4
REMARK    4  A    between atoms: C_4  and  C_5
REMARK    5  A    between atoms: C_4  and  C_12
REMARK    6  A    between atoms: C_5  and  C_6
REMARK    7  A    between atoms: C_15  and  C_16
REMARK    8  A    between atoms: C_16  and  N_17
REMARK    9  A    between atoms: C_18  and  C_20
REMARK                            x       y       z     vdW  Elec       q    Type
REMARK                         _______ _______ _______ _____ _____    ______ ____
ROOT
ATOM      1  C   UNL     1      47.139   5.770  13.529  0.00  0.00    +0.000 A 
ATOM      2  C   UNL     1      47.982   6.685  14.185  0.00  0.00    +0.000 A 
ATOM      3  C   UNL     1      48.492   6.411  15.460  0.00  0.00    +0.000 A 
ATOM      4  C   UNL     1      48.144   5.231  16.126  0.00  0.00    +0.000 A 
ATOM      5  C   UNL     1      47.247   4.354  15.514  0.00  0.00    +0.000 A 
ATOM      6  C   UNL     1      46.785   4.603  14.222  0.00  0.00    +0.000 A 
ENDROOT
BRANCH   1   7
ATOM      7  C   UNL     1      46.684   6.027  12.086  0.00  0.00    +0.000 C 
BRANCH   7   8
ATOM      8  O   UNL     1      46.551   7.432  11.803  0.00  0.00    +0.000 OA
BRANCH   8  10
ATOM      9  C   UNL     1      45.415   9.456  12.264  0.00  0.00    +0.000 C 
ATOM     10  C   UNL     1      45.245   7.971  12.000  0.00  0.00    +0.000 C 
ENDBRANCH   8  10
ENDBRANCH   7   8
BRANCH   7  11
ATOM     11  C   UNL     1      45.287   5.396  11.893  0.00  0.00    +0.000 C 
BRANCH  11  12
ATOM     12  C   UNL     1      45.139   4.549  10.652  0.00  0.00    +0.000 A 
ATOM     13  C   UNL     1      44.640   3.250  10.751  0.00  0.00    +0.000 A 
ATOM     14  C   UNL     1      44.626   2.441   9.620  0.00  0.00    +0.000 A 
ATOM     15  C   UNL     1      45.110   2.944   8.420  0.00  0.00    +0.000 A 
ATOM     16  C   UNL     1      45.571   4.250   8.400  0.00  0.00    +0.000 A 
ATOM     17  N   UNL     1      45.596   5.065   9.482  0.00  0.00    +0.000 NA
ENDBRANCH  11  12
ENDBRANCH   7  11
ENDBRANCH   1   7
BRANCH   4  18
ATOM     18  C   UNL     1      48.711   4.889  17.475  0.00  0.00    +0.000 C 
BRANCH  18  19
ATOM     19  N   UNL     1      50.054   4.388  17.372  0.00  0.00    +0.000 N 
ATOM     20  C   UNL     1      50.851   4.299  18.487  0.00  0.00    +0.000 C 
ATOM     21  O   UNL     1      50.437   4.591  19.605  0.00  0.00    +0.000 OA
ATOM     22  H   UNL     1      50.479   4.380  16.449  0.00  0.00    +0.000 HD
BRANCH  20  23
ATOM     23  C   UNL     1      52.207   3.778  18.285  0.00  0.00    +0.000 A 
ATOM     24  C   UNL     1      53.299   4.596  18.549  0.00  0.00    +0.000 A 
ATOM     25  S   UNL     1      54.801   3.825  18.318  0.00  0.00    +0.000 S 
ATOM     26  C   UNL     1      54.047   2.389  17.806  0.00  0.00    +0.000 A 
ATOM     27  N   UNL     1      54.783   1.309  17.428  0.00  0.00    +0.000 NA
ATOM     28  C   UNL     1      54.083   0.295  17.038  0.00  0.00    +0.000 A 
ATOM     29  N   UNL     1      52.712   0.262  16.996  0.00  0.00    +0.000 N 
ATOM     30  C   UNL     1      51.924   1.320  17.391  0.00  0.00    +0.000 A 
ATOM     31  O   UNL     1      50.699   1.246  17.384  0.00  0.00    +0.000 OA
ATOM     32  C   UNL     1      52.667   2.489  17.831  0.00  0.00    +0.000 A 
ATOM     33  H   UNL     1      52.225  -0.565  16.683  0.00  0.00    +0.000 HD
ENDBRANCH  20  23
ENDBRANCH  18  19
ENDBRANCH   4  18
TORSDOF 8
ENDMDL
MODEL 7
REMARK VINA RESULT:    -7.107      3.479      5.428
REMARK INTER + INTRA:         -11.099
REMARK INTER:                  -9.754
REMARK INTRA:                  -1.345
REMARK UNBOUND:                -0.668
REMARK  Name = 
REMARK  9 active torsions:
REMARK  status: ('A' for Active; 'I' for Inactive)
REMARK    1  A    between atoms: C_1  and  C_2
REMARK    2  A    between atoms: C_2  and  O_3
REMARK    3  A    between atoms: O_3  and  C_4
REMARK    4  A    between atoms: C_4  and  C_5
REMARK    5  A    between atoms: C_4  and  C_12
REMARK    6  A    between atoms: C_5  and  C_6
REMARK    7  A    between atoms: C_15  and  C_16
REMARK    8  A    between atoms: C_16  and  N_17
REMARK    9  A    between atoms: C_18  and  C_20
REMARK                            x       y       z     vdW  Elec       q    Type
REMARK                         _______ _______ _______ _____ _____    ______ ____
ROOT
ATOM      1  C   UNL     1      47.440   5.745  14.203  0.00  0.00    +0.000 A 
ATOM      2  C   UNL     1      46.890   4.452  14.274  0.00  0.00    +0.000 A 
ATOM      3  C   UNL     1      47.094   3.642  15.397  0.00  0.00    +0.000 A 
ATOM      4  C   UNL     1      47.883   4.089  16.463  0.00  0.00    +0.000 A 
ATOM      5  C   UNL     1      48.496   5.340  16.366  0.00  0.00    +0.000 A 
ATOM      6  C   UNL     1      48.245   6.167  15.271  0.00  0.00    +0.000 A 
ENDROOT
BRANCH   1   7
ATOM      7  C   UNL     1      47.111   6.667  13.021  0.00  0.00    +0.000 C 
BRANCH   7   8
ATOM      8  O   UNL     1      47.421   8.043  13.305  0.00  0.00    +0.000 OA
BRANCH   8  10
ATOM      9  C   UNL     1      48.978   7.866  11.532  0.00  0.00    +0.000 C 
ATOM     10  C   UNL     1      47.975   8.778  12.214  0.00  0.00    +0.000 C 
ENDBRANCH   8  10
ENDBRANCH   7   8
BRANCH   7  11
ATOM     11  C   UNL     1      45.591   6.595  12.753  0.00  0.00    +0.000 C 
BRANCH  11  12
ATOM     12  C   UNL     1      45.190   5.704  11.601  0.00  0.00    +0.000 A 
ATOM     13  C   UNL     1      45.927   5.725  10.417  0.00  0.00    +0.000 A 
ATOM     14  C   UNL     1      45.474   4.993   9.324  0.00  0.00    +0.000 A 
ATOM     15  C   UNL     1      44.301   4.261   9.437  0.00  0.00    +0.000 A 
ATOM     16  C   UNL     1      43.637   4.278  10.653  0.00  0.00    +0.000 A 
ATOM     17  N   UNL     1      44.051   4.978  11.737  0.00  0.00    +0.000 NA
ENDBRANCH  11  12
ENDBRANCH   7  11
ENDBRANCH   1   7
BRANCH   4  18
ATOM     18  C   UNL     1      48.083   3.260  17.700  0.00  0.00    +0.000 C 
BRANCH  18  19
ATOM     19  N   UNL     1      49.479   3.044  17.971  0.00  0.00    +0.000 N 
ATOM     20  C   UNL     1      50.219   2.203  17.178  0.00  0.00    +0.000 C 
ATOM     21  O   UNL     1      49.740   1.652  16.192  0.00  0.00    +0.000 OA
ATOM     22  H   UNL     1      49.816   3.286  18.899  0.00  0.00    +0.000 HD
BRANCH  20  23
ATOM     23  C   UNL     1      51.633   2.041  17.533  0.00  0.00    +0.000 A 
ATOM     24  C   UNL     1      52.159   0.764  17.681  0.00  0.00    +0.000 A 
ATOM     25  S   UNL     1      53.826   0.749  18.038  0.00  0.00    +0.000 S 
ATOM     26  C   UNL     1      53.892   2.448  18.060  0.00  0.00    +0.000 A 
ATOM     27  N   UNL     1      55.055   3.098  18.335  0.00  0.00    +0.000 NA
ATOM     28  C   UNL     1      54.958   4.386  18.343  0.00  0.00    +0.000 A 
ATOM     29  N   UNL     1      53.802   5.085  18.098  0.00  0.00    +0.000 N 
ATOM     30  C   UNL     1      52.607   4.472  17.791  0.00  0.00    +0.000 A 
ATOM     31  O   UNL     1      51.599   5.124  17.533  0.00  0.00    +0.000 OA
ATOM     32  C   UNL     1      52.664   3.020  17.778  0.00  0.00    +0.000 A 
ATOM     33  H   UNL     1      53.794   6.094  18.118  0.00  0.00    +0.000 HD
ENDBRANCH  20  23
ENDBRANCH  18  19
ENDBRANCH   4  18
TORSDOF 8
ENDMDL
MODEL 8
REMARK VINA RESULT:    -7.040      3.829     10.251
REMARK INTER + INTRA:         -11.000
REMARK INTER:                  -9.509
REMARK INTRA:                  -1.491
REMARK UNBOUND:                -0.668
REMARK  Name = 
REMARK  9 active torsions:
REMARK  status: ('A' for Active; 'I' for Inactive)
REMARK    1  A    between atoms: C_1  and  C_2
REMARK    2  A    between atoms: C_2  and  O_3
REMARK    3  A    between atoms: O_3  and  C_4
REMARK    4  A    between atoms: C_4  and  C_5
REMARK    5  A    between atoms: C_4  and  C_12
REMARK    6  A    between atoms: C_5  and  C_6
REMARK    7  A    between atoms: C_15  and  C_16
REMARK    8  A    between atoms: C_16  and  N_17
REMARK    9  A    between atoms: C_18  and  C_20
REMARK                            x       y       z     vdW  Elec       q    Type
REMARK                         _______ _______ _______ _____ _____    ______ ____
ROOT
ATOM      1  C   UNL     1      51.474   4.137  17.711  0.00  0.00    +0.000 A 
ATOM      2  C   UNL     1      50.614   5.226  17.477  0.00  0.00    +0.000 A 
ATOM      3  C   UNL     1      49.268   5.024  17.148  0.00  0.00    +0.000 A 
ATOM      4  C   UNL     1      48.756   3.730  17.011  0.00  0.00    +0.000 A 
ATOM      5  C   UNL     1      49.621   2.645  17.165  0.00  0.00    +0.000 A 
ATOM      6  C   UNL     1      50.947   2.848  17.547  0.00  0.00    +0.000 A 
ENDROOT
BRANCH   1   7
ATOM      7  C   UNL     1      52.915   4.372  18.186  0.00  0.00    +0.000 C 
BRANCH   7   8
ATOM      8  O   UNL     1      53.846   3.477  17.551  0.00  0.00    +0.000 OA
BRANCH   8  10
ATOM      9  C   UNL     1      54.749   1.294  17.670  0.00  0.00    +0.000 C 
ATOM     10  C   UNL     1      54.533   2.590  18.431  0.00  0.00    +0.000 C 
ENDBRANCH   8  10
ENDBRANCH   7   8
BRANCH   7  11
ATOM     11  C   UNL     1      52.982   4.088  19.703  0.00  0.00    +0.000 C 
BRANCH  11  12
ATOM     12  C   UNL     1      52.348   5.145  20.575  0.00  0.00    +0.000 A 
ATOM     13  C   UNL     1      51.284   4.809  21.412  0.00  0.00    +0.000 A 
ATOM     14  C   UNL     1      50.630   5.816  22.115  0.00  0.00    +0.000 A 
ATOM     15  C   UNL     1      51.052   7.129  21.967  0.00  0.00    +0.000 A 
ATOM     16  C   UNL     1      52.128   7.378  21.132  0.00  0.00    +0.000 A 
ATOM     17  N   UNL     1      52.788   6.422  20.434  0.00  0.00    +0.000 NA
ENDBRANCH  11  12
ENDBRANCH   7  11
ENDBRANCH   1   7
BRANCH   4  18
ATOM     18  C   UNL     1      47.306   3.483  16.703  0.00  0.00    +0.000 C 
BRANCH  18  19
ATOM     19  N   UNL     1      46.788   4.454  15.778  0.00  0.00    +0.000 N 
ATOM     20  C   UNL     1      46.821   4.214  14.427  0.00  0.00    +0.000 C 
ATOM     21  O   UNL     1      47.239   3.157  13.965  0.00  0.00    +0.000 OA
ATOM     22  H   UNL     1      46.675   5.406  16.117  0.00  0.00    +0.000 HD
BRANCH  20  23
ATOM     23  C   UNL     1      46.274   5.264  13.560  0.00  0.00    +0.000 A 
ATOM     24  C   UNL     1      47.023   6.407  13.315  0.00  0.00    +0.000 A 
ATOM     25  S   UNL     1      46.271   7.501  12.246  0.00  0.00    +0.000 S 
ATOM     26  C   UNL     1      44.895   6.510  12.115  0.00  0.00    +0.000 A 
ATOM     27  N   UNL     1      43.835   6.885  11.349  0.00  0.00    +0.000 NA
ATOM     28  C   UNL     1      42.848   6.052  11.359  0.00  0.00    +0.000 A 
ATOM     29  N   UNL     1      42.826   4.874  12.063  0.00  0.00    +0.000 N 
ATOM     30  C   UNL     1      43.883   4.441  12.833  0.00  0.00    +0.000 A 
ATOM     31  O   UNL     1      43.852   3.362  13.417  0.00  0.00    +0.000 OA
ATOM     32  C   UNL     1      45.016   5.351  12.860  0.00  0.00    +0.000 A 
ATOM     33  H   UNL     1      42.021   4.265  12.026  0.00  0.00    +0.000 HD
ENDBRANCH  20  23
ENDBRANCH  18  19
ENDBRANCH   4  18
TORSDOF 8
ENDMDL
MODEL 9
REMARK VINA RESULT:    -7.027      4.496      9.652
REMARK INTER + INTRA:         -10.981
REMARK INTER:                  -9.622
REMARK INTRA:                  -1.360
REMARK UNBOUND:                -0.668
REMARK  Name = 
REMARK  9 active torsions:
REMARK  status: ('A' for Active; 'I' for Inactive)
REMARK    1  A    between atoms: C_1  and  C_2
REMARK    2  A    between atoms: C_2  and  O_3
REMARK    3  A    between atoms: O_3  and  C_4
REMARK    4  A    between atoms: C_4  and  C_5
REMARK    5  A    between atoms: C_4  and  C_12
REMARK    6  A    between atoms: C_5  and  C_6
REMARK    7  A    between atoms: C_15  and  C_16
REMARK    8  A    between atoms: C_16  and  N_17
REMARK    9  A    between atoms: C_18  and  C_20
REMARK                            x       y       z     vdW  Elec       q    Type
REMARK                         _______ _______ _______ _____ _____    ______ ____
ROOT
ATOM      1  C   UNL     1      51.659   3.015  18.024  0.00  0.00    +0.000 A 
ATOM      2  C   UNL     1      50.952   4.159  18.436  0.00  0.00    +0.000 A 
ATOM      3  C   UNL     1      49.596   4.320  18.126  0.00  0.00    +0.000 A 
ATOM      4  C   UNL     1      48.921   3.358  17.366  0.00  0.00    +0.000 A 
ATOM      5  C   UNL     1      49.636   2.258  16.888  0.00  0.00    +0.000 A 
ATOM      6  C   UNL     1      50.971   2.073  17.245  0.00  0.00    +0.000 A 
ENDROOT
BRANCH   1   7
ATOM      7  C   UNL     1      53.111   2.794  18.470  0.00  0.00    +0.000 C 
BRANCH   7   8
ATOM      8  O   UNL     1      53.778   4.033  18.771  0.00  0.00    +0.000 OA
BRANCH   8  10
ATOM      9  C   UNL     1      54.048   6.054  17.570  0.00  0.00    +0.000 C 
ATOM     10  C   UNL     1      54.504   4.610  17.688  0.00  0.00    +0.000 C 
ENDBRANCH   8  10
ENDBRANCH   7   8
BRANCH   7  11
ATOM     11  C   UNL     1      53.886   2.136  17.307  0.00  0.00    +0.000 C 
BRANCH  11  12
ATOM     12  C   UNL     1      54.324   0.713  17.560  0.00  0.00    +0.000 A 
ATOM     13  C   UNL     1      54.557  -0.144  16.485  0.00  0.00    +0.000 A 
ATOM     14  C   UNL     1      54.838  -1.483  16.735  0.00  0.00    +0.000 A 
ATOM     15  C   UNL     1      54.878  -1.935  18.046  0.00  0.00    +0.000 A 
ATOM     16  C   UNL     1      54.654  -1.016  19.059  0.00  0.00    +0.000 A 
ATOM     17  N   UNL     1      54.380   0.294  18.851  0.00  0.00    +0.000 NA
ENDBRANCH  11  12
ENDBRANCH   7  11
ENDBRANCH   1   7
BRANCH   4  18
ATOM     18  C   UNL     1      47.456   3.482  17.056  0.00  0.00    +0.000 C 
BRANCH  18  19
ATOM     19  N   UNL     1      47.206   4.509  16.082  0.00  0.00    +0.000 N 
ATOM     20  C   UNL     1      47.235   4.218  14.741  0.00  0.00    +0.000 C 
ATOM     21  O   UNL     1      47.420   3.077  14.328  0.00  0.00    +0.000 OA
ATOM     22  H   UNL     1      47.298   5.474  16.388  0.00  0.00    +0.000 HD
BRANCH  20  23
ATOM     23  C   UNL     1      46.972   5.330  13.821  0.00  0.00    +0.000 A 
ATOM     24  C   UNL     1      47.942   6.307  13.634  0.00  0.00    +0.000 A 
ATOM     25  S   UNL     1      47.503   7.496  12.495  0.00  0.00    +0.000 S 
ATOM     26  C   UNL     1      45.980   6.779  12.251  0.00  0.00    +0.000 A 
ATOM     27  N   UNL     1      45.080   7.327  11.392  0.00  0.00    +0.000 NA
ATOM     28  C   UNL     1      43.955   6.695  11.322  0.00  0.00    +0.000 A 
ATOM     29  N   UNL     1      43.651   5.560  12.031  0.00  0.00    +0.000 N 
ATOM     30  C   UNL     1      44.538   4.954  12.893  0.00  0.00    +0.000 A 
ATOM     31  O   UNL     1      44.254   3.915  13.481  0.00  0.00    +0.000 OA
ATOM     32  C   UNL     1      45.817   5.635  13.013  0.00  0.00    +0.000 A 
ATOM     33  H   UNL     1      42.752   5.112  11.928  0.00  0.00    +0.000 HD
ENDBRANCH  20  23
ENDBRANCH  18  19
ENDBRANCH   4  18
TORSDOF 8
ENDMDL
