MODEL 1
REMARK VINA RESULT:    -8.525      0.000      0.000
REMARK INTER + INTRA:         -13.518
REMARK INTER:                 -12.512
REMARK INTRA:                  -1.006
REMARK UNBOUND:                -1.006
REMARK  Name = 
REMARK  9 active torsions:
REMARK  status: ('A' for Active; 'I' for Inactive)
REMARK    1  A    between atoms: C_1  and  N_2
REMARK    2  A    between atoms: N_2  and  C_3
REMARK    3  A    between atoms: C_3  and  C_4
REMARK    4  A    between atoms: C_3  and  C_25
REMARK    5  A    between atoms: C_4  and  C_5
REMARK    6  A    between atoms: C_8  and  C_9
REMARK    7  A    between atoms: C_9  and  N_10
REMARK    8  A    between atoms: C_11  and  C_13
REMARK    9  A    between atoms: C_25  and  C_26
REMARK                            x       y       z     vdW  Elec       q    Type
REMARK                         _______ _______ _______ _____ _____    ______ ____
ROOT
ATOM      1  C   UNL     1      45.963   4.506  12.520  0.00  0.00    +0.000 A 
ATOM      2  C   UNL     1      46.405   5.766  12.095  0.00  0.00    +0.000 A 
ATOM      3  C   UNL     1      47.227   6.550  12.921  0.00  0.00    +0.000 A 
ATOM      4  C   UNL     1      47.674   6.068  14.159  0.00  0.00    +0.000 A 
ATOM      5  C   UNL     1      47.317   4.766  14.532  0.00  0.00    +0.000 A 
ATOM      6  C   UNL     1      46.470   3.998  13.725  0.00  0.00    +0.000 A 
ENDROOT
BRANCH   1   7
ATOM      7  C   UNL     1      44.854   3.769  11.788  0.00  0.00    +0.000 C 
BRANCH   7   8
ATOM      8  C   UNL     1      44.550   4.176  10.327  0.00  0.00    +0.000 C 
BRANCH   8  10
ATOM      9  C   UNL     1      42.605   5.295  11.412  0.00  0.00    +0.000 C 
ATOM     10  N   UNL     1      43.468   5.191  10.243  0.00  0.00    +0.000 NA
ATOM     11  H   UNL     1      43.842   6.106  10.003  0.00  0.00    +0.000 HD
ENDBRANCH   8  10
BRANCH   8  12
ATOM     12  C   UNL     1      44.285   2.950   9.416  0.00  0.00    +0.000 C 
BRANCH  12  13
ATOM     13  C   UNL     1      45.446   2.639   8.500  0.00  0.00    +0.000 A 
ATOM     14  C   UNL     1      45.927   3.610   7.623  0.00  0.00    +0.000 A 
ATOM     15  C   UNL     1      46.900   3.256   6.696  0.00  0.00    +0.000 A 
ATOM     16  C   UNL     1      47.390   1.957   6.690  0.00  0.00    +0.000 A 
ATOM     17  C   UNL     1      46.898   1.068   7.630  0.00  0.00    +0.000 A 
ATOM     18  N   UNL     1      45.946   1.379   8.536  0.00  0.00    +0.000 NA
ENDBRANCH  12  13
ENDBRANCH   8  12
ENDBRANCH   7   8
ENDBRANCH   1   7
BRANCH   4  19
ATOM     19  C   UNL     1      48.467   6.942  15.101  0.00  0.00    +0.000 C 
BRANCH  19  20
ATOM     20  N   UNL     1      49.578   6.226  15.692  0.00  0.00    +0.000 N 
ATOM     21  C   UNL     1      49.503   5.727  16.968  0.00  0.00    +0.000 C 
ATOM     22  O   UNL     1      48.482   5.823  17.643  0.00  0.00    +0.000 OA
ATOM     23  H   UNL     1      50.487   6.325  15.248  0.00  0.00    +0.000 HD
BRANCH  21  24
ATOM     24  C   UNL     1      50.684   5.011  17.472  0.00  0.00    +0.000 A 
ATOM     25  C   UNL     1      51.738   5.727  18.026  0.00  0.00    +0.000 A 
ATOM     26  S   UNL     1      53.019   4.746  18.578  0.00  0.00    +0.000 S 
ATOM     27  C   UNL     1      52.240   3.332  18.039  0.00  0.00    +0.000 A 
ATOM     28  N   UNL     1      52.831   2.112  18.164  0.00  0.00    +0.000 NA
ATOM     29  C   UNL     1      52.142   1.131  17.692  0.00  0.00    +0.000 A 
ATOM     30  N   UNL     1      50.910   1.258  17.103  0.00  0.00    +0.000 N 
ATOM     31  C   UNL     1      50.252   2.462  16.999  0.00  0.00    +0.000 A 
ATOM     32  O   UNL     1      49.109   2.529  16.549  0.00  0.00    +0.000 OA
ATOM     33  C   UNL     1      51.000   3.603  17.491  0.00  0.00    +0.000 A 
ATOM     34  H   UNL     1      50.414   0.446  16.768  0.00  0.00    +0.000 HD
ENDBRANCH  21  24
ENDBRANCH  19  20
ENDBRANCH   4  19
TORSDOF 8
ENDMDL
MODEL 2
REMARK VINA RESULT:    -8.316      2.287      2.739
REMARK INTER + INTRA:         -13.211
REMARK INTER:                 -12.086
REMARK INTRA:                  -1.125
REMARK UNBOUND:                -1.006
REMARK  Name = 
REMARK  9 active torsions:
REMARK  status: ('A' for Active; 'I' for Inactive)
REMARK    1  A    between atoms: C_1  and  N_2
REMARK    2  A    between atoms: N_2  and  C_3
REMARK    3  A    between atoms: C_3  and  C_4
REMARK    4  A    between atoms: C_3  and  C_25
REMARK    5  A    between atoms: C_4  and  C_5
REMARK    6  A    between atoms: C_8  and  C_9
REMARK    7  A    between atoms: C_9  and  N_10
REMARK    8  A    between atoms: C_11  and  C_13
REMARK    9  A    between atoms: C_25  and  C_26
REMARK                            x       y       z     vdW  Elec       q    Type
REMARK                         _______ _______ _______ _____ _____    ______ ____
ROOT
ATOM      1  C   UNL     1      45.889   4.362  12.597  0.00  0.00    +0.000 A 
ATOM      2  C   UNL     1      46.361   4.270  13.914  0.00  0.00    +0.000 A 
ATOM      3  C   UNL     1      47.195   5.266  14.445  0.00  0.00    +0.000 A 
ATOM      4  C   UNL     1      47.524   6.405  13.696  0.00  0.00    +0.000 A 
ATOM      5  C   UNL     1      46.964   6.544  12.420  0.00  0.00    +0.000 A 
ATOM      6  C   UNL     1      46.161   5.534  11.877  0.00  0.00    +0.000 A 
ENDROOT
BRANCH   1   7
ATOM      7  C   UNL     1      45.236   3.176  11.907  0.00  0.00    +0.000 C 
BRANCH   7   8
ATOM      8  C   UNL     1      44.195   3.462  10.799  0.00  0.00    +0.000 C 
BRANCH   8  10
ATOM      9  C   UNL     1      42.530   5.133  11.604  0.00  0.00    +0.000 C 
ATOM     10  N   UNL     1      42.844   3.732  11.358  0.00  0.00    +0.000 NA
ATOM     11  H   UNL     1      42.120   3.307  10.783  0.00  0.00    +0.000 HD
ENDBRANCH   8  10
BRANCH   8  12
ATOM     12  C   UNL     1      44.175   2.361   9.708  0.00  0.00    +0.000 C 
BRANCH  12  13
ATOM     13  C   UNL     1      45.337   2.467   8.748  0.00  0.00    +0.000 A 
ATOM     14  C   UNL     1      45.655   3.693   8.165  0.00  0.00    +0.000 A 
ATOM     15  C   UNL     1      46.636   3.735   7.182  0.00  0.00    +0.000 A 
ATOM     16  C   UNL     1      47.295   2.565   6.830  0.00  0.00    +0.000 A 
ATOM     17  C   UNL     1      46.957   1.399   7.496  0.00  0.00    +0.000 A 
ATOM     18  N   UNL     1      46.002   1.323   8.448  0.00  0.00    +0.000 NA
ENDBRANCH  12  13
ENDBRANCH   8  12
ENDBRANCH   7   8
ENDBRANCH   1   7
BRANCH   4  19
ATOM     19  C   UNL     1      48.505   7.429  14.215  0.00  0.00    +0.000 C 
BRANCH  19  20
ATOM     20  N   UNL     1      48.506   7.489  15.661  0.00  0.00    +0.000 N 
ATOM     21  C   UNL     1      49.480   6.864  16.397  0.00  0.00    +0.000 C 
ATOM     22  O   UNL     1      50.413   6.269  15.865  0.00  0.00    +0.000 OA
ATOM     23  H   UNL     1      47.645   7.779  16.117  0.00  0.00    +0.000 HD
BRANCH  21  24
ATOM     24  C   UNL     1      49.393   6.991  17.859  0.00  0.00    +0.000 A 
ATOM     25  C   UNL     1      49.663   8.214  18.460  0.00  0.00    +0.000 A 
ATOM     26  S   UNL     1      49.499   8.195  20.158  0.00  0.00    +0.000 S 
ATOM     27  C   UNL     1      49.123   6.535  20.157  0.00  0.00    +0.000 A 
ATOM     28  N   UNL     1      48.908   5.862  21.320  0.00  0.00    +0.000 NA
ATOM     29  C   UNL     1      48.657   4.606  21.175  0.00  0.00    +0.000 A 
ATOM     30  N   UNL     1      48.602   3.958  19.968  0.00  0.00    +0.000 N 
ATOM     31  C   UNL     1      48.763   4.606  18.765  0.00  0.00    +0.000 A 
ATOM     32  O   UNL     1      48.616   4.014  17.696  0.00  0.00    +0.000 OA
ATOM     33  C   UNL     1      49.076   6.018  18.876  0.00  0.00    +0.000 A 
ATOM     34  H   UNL     1      48.384   2.975  19.922  0.00  0.00    +0.000 HD
ENDBRANCH  21  24
ENDBRANCH  19  20
ENDBRANCH   4  19
TORSDOF 8
ENDMDL
MODEL 3
REMARK VINA RESULT:    -8.116      2.506      3.685
REMARK INTER + INTRA:         -12.918
REMARK INTER:                 -11.907
REMARK INTRA:                  -1.011
REMARK UNBOUND:                -1.006
REMARK  Name = 
REMARK  9 active torsions:
REMARK  status: ('A' for Active; 'I' for Inactive)
REMARK    1  A    between atoms: C_1  and  N_2
REMARK    2  A    between atoms: N_2  and  C_3
REMARK    3  A    between atoms: C_3  and  C_4
REMARK    4  A    between atoms: C_3  and  C_25
REMARK    5  A    between atoms: C_4  and  C_5
REMARK    6  A    between atoms: C_8  and  C_9
REMARK    7  A    between atoms: C_9  and  N_10
REMARK    8  A    between atoms: C_11  and  C_13
REMARK    9  A    between atoms: C_25  and  C_26
REMARK                            x       y       z     vdW  Elec       q    Type
REMARK                         _______ _______ _______ _____ _____    ______ ____
ROOT
ATOM      1  C   UNL     1      45.969   4.622  12.462  0.00  0.00    +0.000 A 
ATOM      2  C   UNL     1      46.448   5.832  11.941  0.00  0.00    +0.000 A 
ATOM      3  C   UNL     1      47.307   6.645  12.697  0.00  0.00    +0.000 A 
ATOM      4  C   UNL     1      47.754   6.239  13.962  0.00  0.00    +0.000 A 
ATOM      5  C   UNL     1      47.359   4.981  14.433  0.00  0.00    +0.000 A 
ATOM      6  C   UNL     1      46.475   4.186  13.695  0.00  0.00    +0.000 A 
ENDROOT
BRANCH   1   7
ATOM      7  C   UNL     1      44.825   3.873  11.799  0.00  0.00    +0.000 C 
BRANCH   7   8
ATOM      8  C   UNL     1      44.593   4.092  10.285  0.00  0.00    +0.000 C 
BRANCH   8  10
ATOM      9  C   UNL     1      42.784   5.543  11.198  0.00  0.00    +0.000 C 
ATOM     10  N   UNL     1      43.485   5.046  10.021  0.00  0.00    +0.000 NA
ATOM     11  H   UNL     1      43.802   5.825   9.449  0.00  0.00    +0.000 HD
ENDBRANCH   8  10
BRANCH   8  12
ATOM     12  C   UNL     1      44.421   2.757   9.516  0.00  0.00    +0.000 C 
BRANCH  12  13
ATOM     13  C   UNL     1      45.508   2.526   8.493  0.00  0.00    +0.000 A 
ATOM     14  C   UNL     1      45.854   3.536   7.596  0.00  0.00    +0.000 A 
ATOM     15  C   UNL     1      46.756   3.253   6.578  0.00  0.00    +0.000 A 
ATOM     16  C   UNL     1      47.312   1.983   6.500  0.00  0.00    +0.000 A 
ATOM     17  C   UNL     1      46.957   1.052   7.461  0.00  0.00    +0.000 A 
ATOM     18  N   UNL     1      46.077   1.295   8.456  0.00  0.00    +0.000 NA
ENDBRANCH  12  13
ENDBRANCH   8  12
ENDBRANCH   7   8
ENDBRANCH   1   7
BRANCH   4  19
ATOM     19  C   UNL     1      48.590   7.151  14.829  0.00  0.00    +0.000 C 
BRANCH  19  20
ATOM     20  N   UNL     1      48.362   6.912  16.238  0.00  0.00    +0.000 N 
ATOM     21  C   UNL     1      49.280   6.233  17.000  0.00  0.00    +0.000 C 
ATOM     22  O   UNL     1      50.347   5.842  16.535  0.00  0.00    +0.000 OA
ATOM     23  H   UNL     1      47.414   7.027  16.586  0.00  0.00    +0.000 HD
BRANCH  21  24
ATOM     24  C   UNL     1      48.956   6.048  18.422  0.00  0.00    +0.000 A 
ATOM     25  C   UNL     1      49.184   4.818  19.026  0.00  0.00    +0.000 A 
ATOM     26  S   UNL     1      48.772   4.779  20.680  0.00  0.00    +0.000 S 
ATOM     27  C   UNL     1      48.215   6.386  20.635  0.00  0.00    +0.000 A 
ATOM     28  N   UNL     1      47.673   6.973  21.737  0.00  0.00    +0.000 NA
ATOM     29  C   UNL     1      47.270   8.184  21.556  0.00  0.00    +0.000 A 
ATOM     30  N   UNL     1      47.358   8.864  20.368  0.00  0.00    +0.000 N 
ATOM     31  C   UNL     1      47.942   8.329  19.243  0.00  0.00    +0.000 A 
ATOM     32  O   UNL     1      48.088   8.998  18.221  0.00  0.00    +0.000 OA
ATOM     33  C   UNL     1      48.387   6.957  19.388  0.00  0.00    +0.000 A 
ATOM     34  H   UNL     1      47.038   9.818  20.297  0.00  0.00    +0.000 HD
ENDBRANCH  21  24
ENDBRANCH  19  20
ENDBRANCH   4  19
TORSDOF 8
ENDMDL
MODEL 4
REMARK VINA RESULT:    -7.748      2.272      2.646
REMARK INTER + INTRA:         -12.377
REMARK INTER:                 -10.908
REMARK INTRA:                  -1.468
REMARK UNBOUND:                -1.006
REMARK  Name = 
REMARK  9 active torsions:
REMARK  status: ('A' for Active; 'I' for Inactive)
REMARK    1  A    between atoms: C_1  and  N_2
REMARK    2  A    between atoms: N_2  and  C_3
REMARK    3  A    between atoms: C_3  and  C_4
REMARK    4  A    between atoms: C_3  and  C_25
REMARK    5  A    between atoms: C_4  and  C_5
REMARK    6  A    between atoms: C_8  and  C_9
REMARK    7  A    between atoms: C_9  and  N_10
REMARK    8  A    between atoms: C_11  and  C_13
REMARK    9  A    between atoms: C_25  and  C_26
REMARK                            x       y       z     vdW  Elec       q    Type
REMARK                         _______ _______ _______ _____ _____    ______ ____
ROOT
ATOM      1  C   UNL     1      46.393   6.520  10.857  0.00  0.00    +0.000 A 
ATOM      2  C   UNL     1      45.474   6.970  11.814  0.00  0.00    +0.000 A 
ATOM      3  C   UNL     1      45.908   7.694  12.936  0.00  0.00    +0.000 A 
ATOM      4  C   UNL     1      47.259   8.036  13.093  0.00  0.00    +0.000 A 
ATOM      5  C   UNL     1      48.157   7.677  12.080  0.00  0.00    +0.000 A 
ATOM      6  C   UNL     1      47.729   6.925  10.980  0.00  0.00    +0.000 A 
ENDROOT
BRANCH   1   7
ATOM      7  C   UNL     1      45.999   5.499   9.802  0.00  0.00    +0.000 C 
BRANCH   7   8
ATOM      8  C   UNL     1      44.746   4.630  10.061  0.00  0.00    +0.000 C 
BRANCH   8  10
ATOM      9  C   UNL     1      43.723   3.085  11.728  0.00  0.00    +0.000 C 
ATOM     10  N   UNL     1      44.936   3.703  11.208  0.00  0.00    +0.000 NA
ATOM     11  H   UNL     1      45.626   2.989  10.990  0.00  0.00    +0.000 HD
ENDBRANCH   8  10
BRANCH   8  12
ATOM     12  C   UNL     1      44.260   3.900   8.784  0.00  0.00    +0.000 C 
BRANCH  12  13
ATOM     13  C   UNL     1      45.341   3.062   8.140  0.00  0.00    +0.000 A 
ATOM     14  C   UNL     1      45.998   3.522   7.000  0.00  0.00    +0.000 A 
ATOM     15  C   UNL     1      46.886   2.675   6.348  0.00  0.00    +0.000 A 
ATOM     16  C   UNL     1      47.119   1.408   6.867  0.00  0.00    +0.000 A 
ATOM     17  C   UNL     1      46.467   1.049   8.034  0.00  0.00    +0.000 A 
ATOM     18  N   UNL     1      45.591   1.845   8.684  0.00  0.00    +0.000 NA
ENDBRANCH  12  13
ENDBRANCH   8  12
ENDBRANCH   7   8
ENDBRANCH   1   7
BRANCH   4  19
ATOM     19  C   UNL     1      47.754   8.719  14.346  0.00  0.00    +0.000 C 
BRANCH  19  20
ATOM     20  N   UNL     1      47.968   7.778  15.424  0.00  0.00    +0.000 N 
ATOM     21  C   UNL     1      49.185   7.169  15.604  0.00  0.00    +0.000 C 
ATOM     22  O   UNL     1      50.151   7.429  14.893  0.00  0.00    +0.000 OA
ATOM     23  H   UNL     1      47.145   7.390  15.877  0.00  0.00    +0.000 HD
BRANCH  21  24
ATOM     24  C   UNL     1      49.300   6.234  16.732  0.00  0.00    +0.000 A 
ATOM     25  C   UNL     1      50.233   6.474  17.732  0.00  0.00    +0.000 A 
ATOM     26  S   UNL     1      50.224   5.305  18.974  0.00  0.00    +0.000 S 
ATOM     27  C   UNL     1      49.014   4.401  18.189  0.00  0.00    +0.000 A 
ATOM     28  N   UNL     1      48.567   3.225  18.707  0.00  0.00    +0.000 NA
ATOM     29  C   UNL     1      47.668   2.633  17.998  0.00  0.00    +0.000 A 
ATOM     30  N   UNL     1      47.175   3.111  16.810  0.00  0.00    +0.000 N 
ATOM     31  C   UNL     1      47.560   4.318  16.274  0.00  0.00    +0.000 A 
ATOM     32  O   UNL     1      47.031   4.761  15.255  0.00  0.00    +0.000 OA
ATOM     33  C   UNL     1      48.592   5.010  17.021  0.00  0.00    +0.000 A 
ATOM     34  H   UNL     1      46.458   2.607  16.311  0.00  0.00    +0.000 HD
ENDBRANCH  21  24
ENDBRANCH  19  20
ENDBRANCH   4  19
TORSDOF 8
ENDMDL
MODEL 5
REMARK VINA RESULT:    -7.453      3.985      4.926
REMARK INTER + INTRA:         -11.944
REMARK INTER:                 -10.646
REMARK INTRA:                  -1.298
REMARK UNBOUND:                -1.006
REMARK  Name = 
REMARK  9 active torsions:
REMARK  status: ('A' for Active; 'I' for Inactive)
REMARK    1  A    between atoms: C_1  and  N_2
REMARK    2  A    between atoms: N_2  and  C_3
REMARK    3  A    between atoms: C_3  and  C_4
REMARK    4  A    between atoms: C_3  and  C_25
REMARK    5  A    between atoms: C_4  and  C_5
REMARK    6  A    between atoms: C_8  and  C_9
REMARK    7  A    between atoms: C_9  and  N_10
REMARK    8  A    between atoms: C_11  and  C_13
REMARK    9  A    between atoms: C_25  and  C_26
REMARK                            x       y       z     vdW  Elec       q    Type
REMARK                         _______ _______ _______ _____ _____    ______ ____
ROOT
ATOM      1  C   UNL     1      46.066   5.013  12.514  0.00  0.00    +0.000 A 
ATOM      2  C   UNL     1      46.578   6.103  11.797  0.00  0.00    +0.000 A 
ATOM      3  C   UNL     1      47.532   6.953  12.378  0.00  0.00    +0.000 A 
ATOM      4  C   UNL     1      48.039   6.699  13.660  0.00  0.00    +0.000 A 
ATOM      5  C   UNL     1      47.603   5.549  14.330  0.00  0.00    +0.000 A 
ATOM      6  C   UNL     1      46.626   4.720  13.766  0.00  0.00    +0.000 A 
ENDROOT
BRANCH   1   7
ATOM      7  C   UNL     1      44.838   4.257  12.033  0.00  0.00    +0.000 C 
BRANCH   7   8
ATOM      8  C   UNL     1      44.444   4.383  10.543  0.00  0.00    +0.000 C 
BRANCH   8  10
ATOM      9  C   UNL     1      42.534   5.616  11.565  0.00  0.00    +0.000 C 
ATOM     10  N   UNL     1      43.251   5.249  10.351  0.00  0.00    +0.000 NA
ATOM     11  H   UNL     1      43.488   6.084   9.820  0.00  0.00    +0.000 HD
ENDBRANCH   8  10
BRANCH   8  12
ATOM     12  C   UNL     1      44.289   3.002   9.855  0.00  0.00    +0.000 C 
BRANCH  12  13
ATOM     13  C   UNL     1      45.343   2.752   8.801  0.00  0.00    +0.000 A 
ATOM     14  C   UNL     1      45.738   3.780   7.946  0.00  0.00    +0.000 A 
ATOM     15  C   UNL     1      46.603   3.489   6.899  0.00  0.00    +0.000 A 
ATOM     16  C   UNL     1      47.076   2.191   6.751  0.00  0.00    +0.000 A 
ATOM     17  C   UNL     1      46.677   1.240   7.674  0.00  0.00    +0.000 A 
ATOM     18  N   UNL     1      45.831   1.490   8.696  0.00  0.00    +0.000 NA
ENDBRANCH  12  13
ENDBRANCH   8  12
ENDBRANCH   7   8
ENDBRANCH   1   7
BRANCH   4  19
ATOM     19  C   UNL     1      48.983   7.665  14.336  0.00  0.00    +0.000 C 
BRANCH  19  20
ATOM     20  N   UNL     1      50.302   7.636  13.740  0.00  0.00    +0.000 N 
ATOM     21  C   UNL     1      51.102   8.751  13.734  0.00  0.00    +0.000 C 
ATOM     22  O   UNL     1      50.757   9.800  14.270  0.00  0.00    +0.000 OA
ATOM     23  H   UNL     1      50.514   6.866  13.112  0.00  0.00    +0.000 HD
BRANCH  21  24
ATOM     24  C   UNL     1      52.425   8.615  13.109  0.00  0.00    +0.000 A 
ATOM     25  C   UNL     1      53.563   8.971  13.821  0.00  0.00    +0.000 A 
ATOM     26  S   UNL     1      55.015   8.735  12.959  0.00  0.00    +0.000 S 
ATOM     27  C   UNL     1      54.172   8.207  11.577  0.00  0.00    +0.000 A 
ATOM     28  N   UNL     1      54.832   7.883  10.432  0.00  0.00    +0.000 NA
ATOM     29  C   UNL     1      54.070   7.523   9.457  0.00  0.00    +0.000 A 
ATOM     30  N   UNL     1      52.701   7.459   9.523  0.00  0.00    +0.000 N 
ATOM     31  C   UNL     1      51.995   7.729  10.672  0.00  0.00    +0.000 A 
ATOM     32  O   UNL     1      50.776   7.573  10.723  0.00  0.00    +0.000 OA
ATOM     33  C   UNL     1      52.807   8.166  11.791  0.00  0.00    +0.000 A 
ATOM     34  H   UNL     1      52.163   7.152   8.727  0.00  0.00    +0.000 HD
ENDBRANCH  21  24
ENDBRANCH  19  20
ENDBRANCH   4  19
TORSDOF 8
ENDMDL
MODEL 6
REMARK VINA RESULT:    -7.405      3.718      8.923
REMARK INTER + INTRA:         -11.873
REMARK INTER:                  -9.934
REMARK INTRA:                  -1.939
REMARK UNBOUND:                -1.006
REMARK  Name = 
REMARK  9 active torsions:
REMARK  status: ('A' for Active; 'I' for Inactive)
REMARK    1  A    between atoms: C_1  and  N_2
REMARK    2  A    between atoms: N_2  and  C_3
REMARK    3  A    between atoms: C_3  and  C_4
REMARK    4  A    between atoms: C_3  and  C_25
REMARK    5  A    between atoms: C_4  and  C_5
REMARK    6  A    between atoms: C_8  and  C_9
REMARK    7  A    between atoms: C_9  and  N_10
REMARK    8  A    between atoms: C_11  and  C_13
REMARK    9  A    between atoms: C_25  and  C_26
REMARK                            x       y       z     vdW  Elec       q    Type
REMARK                         _______ _______ _______ _____ _____    ______ ____
ROOT
ATOM      1  C   UNL     1      48.897   7.774  16.419  0.00  0.00    +0.000 A 
ATOM      2  C   UNL     1      49.105   6.647  15.613  0.00  0.00    +0.000 A 
ATOM      3  C   UNL     1      48.726   6.656  14.262  0.00  0.00    +0.000 A 
ATOM      4  C   UNL     1      48.187   7.809  13.672  0.00  0.00    +0.000 A 
ATOM      5  C   UNL     1      48.081   8.966  14.454  0.00  0.00    +0.000 A 
ATOM      6  C   UNL     1      48.427   8.947  15.810  0.00  0.00    +0.000 A 
ENDROOT
BRANCH   1   7
ATOM      7  C   UNL     1      49.025   7.700  17.931  0.00  0.00    +0.000 C 
BRANCH   7   8
ATOM      8  C   UNL     1      47.748   7.414  18.756  0.00  0.00    +0.000 C 
BRANCH   8  10
ATOM      9  C   UNL     1      48.496   9.255  20.261  0.00  0.00    +0.000 C 
ATOM     10  N   UNL     1      47.382   8.556  19.634  0.00  0.00    +0.000 NA
ATOM     11  H   UNL     1      46.787   9.219  19.142  0.00  0.00    +0.000 HD
ENDBRANCH   8  10
BRANCH   8  12
ATOM     12  C   UNL     1      47.835   6.075  19.533  0.00  0.00    +0.000 C 
BRANCH  12  13
ATOM     13  C   UNL     1      47.987   4.879  18.623  0.00  0.00    +0.000 A 
ATOM     14  C   UNL     1      49.179   4.155  18.609  0.00  0.00    +0.000 A 
ATOM     15  C   UNL     1      49.344   3.149  17.666  0.00  0.00    +0.000 A 
ATOM     16  C   UNL     1      48.309   2.869  16.784  0.00  0.00    +0.000 A 
ATOM     17  C   UNL     1      47.137   3.598  16.899  0.00  0.00    +0.000 A 
ATOM     18  N   UNL     1      46.950   4.588  17.799  0.00  0.00    +0.000 NA
ENDBRANCH  12  13
ENDBRANCH   8  12
ENDBRANCH   7   8
ENDBRANCH   1   7
BRANCH   4  19
ATOM     19  C   UNL     1      47.676   7.798  12.251  0.00  0.00    +0.000 C 
BRANCH  19  20
ATOM     20  N   UNL     1      46.960   6.577  11.946  0.00  0.00    +0.000 N 
ATOM     21  C   UNL     1      45.609   6.474  12.164  0.00  0.00    +0.000 C 
ATOM     22  O   UNL     1      44.945   7.419  12.580  0.00  0.00    +0.000 OA
ATOM     23  H   UNL     1      47.509   5.733  11.814  0.00  0.00    +0.000 HD
BRANCH  21  24
ATOM     24  C   UNL     1      44.976   5.194  11.815  0.00  0.00    +0.000 A 
ATOM     25  C   UNL     1      44.267   4.491  12.781  0.00  0.00    +0.000 A 
ATOM     26  S   UNL     1      43.581   3.039  12.208  0.00  0.00    +0.000 S 
ATOM     27  C   UNL     1      44.260   3.264  10.663  0.00  0.00    +0.000 A 
ATOM     28  N   UNL     1      44.095   2.337   9.680  0.00  0.00    +0.000 NA
ATOM     29  C   UNL     1      44.682   2.623   8.569  0.00  0.00    +0.000 A 
ATOM     30  N   UNL     1      45.424   3.756   8.350  0.00  0.00    +0.000 N 
ATOM     31  C   UNL     1      45.577   4.743   9.297  0.00  0.00    +0.000 A 
ATOM     32  O   UNL     1      46.172   5.788   9.038  0.00  0.00    +0.000 OA
ATOM     33  C   UNL     1      44.957   4.455  10.576  0.00  0.00    +0.000 A 
ATOM     34  H   UNL     1      45.845   3.928   7.450  0.00  0.00    +0.000 HD
ENDBRANCH  21  24
ENDBRANCH  19  20
ENDBRANCH   4  19
TORSDOF 8
ENDMDL
MODEL 7
REMARK VINA RESULT:    -7.403      4.376      6.265
REMARK INTER + INTRA:         -11.871
REMARK INTER:                 -10.960
REMARK INTRA:                  -0.911
REMARK UNBOUND:                -1.006
REMARK  Name = 
REMARK  9 active torsions:
REMARK  status: ('A' for Active; 'I' for Inactive)
REMARK    1  A    between atoms: C_1  and  N_2
REMARK    2  A    between atoms: N_2  and  C_3
REMARK    3  A    between atoms: C_3  and  C_4
REMARK    4  A    between atoms: C_3  and  C_25
REMARK    5  A    between atoms: C_4  and  C_5
REMARK    6  A    between atoms: C_8  and  C_9
REMARK    7  A    between atoms: C_9  and  N_10
REMARK    8  A    between atoms: C_11  and  C_13
REMARK    9  A    between atoms: C_25  and  C_26
REMARK                            x       y       z     vdW  Elec       q    Type
REMARK                         _______ _______ _______ _____ _____    ______ ____
ROOT
ATOM      1  C   UNL     1      45.836   4.819  12.435  0.00  0.00    +0.000 A 
ATOM      2  C   UNL     1      46.312   4.576  13.731  0.00  0.00    +0.000 A 
ATOM      3  C   UNL     1      47.396   5.307  14.242  0.00  0.00    +0.000 A 
ATOM      4  C   UNL     1      47.987   6.336  13.495  0.00  0.00    +0.000 A 
ATOM      5  C   UNL     1      47.439   6.648  12.244  0.00  0.00    +0.000 A 
ATOM      6  C   UNL     1      46.381   5.896  11.720  0.00  0.00    +0.000 A 
ENDROOT
BRANCH   1   7
ATOM      7  C   UNL     1      44.871   3.862  11.755  0.00  0.00    +0.000 C 
BRANCH   7   8
ATOM      8  C   UNL     1      44.518   4.118  10.271  0.00  0.00    +0.000 C 
BRANCH   8  10
ATOM      9  C   UNL     1      42.678   5.400  11.358  0.00  0.00    +0.000 C 
ATOM     10  N   UNL     1      43.356   5.034  10.122  0.00  0.00    +0.000 NA
ATOM     11  H   UNL     1      43.614   5.870   9.604  0.00  0.00    +0.000 HD
ENDBRANCH   8  10
BRANCH   8  12
ATOM     12  C   UNL     1      44.340   2.802   9.471  0.00  0.00    +0.000 C 
BRANCH  12  13
ATOM     13  C   UNL     1      45.480   2.539   8.515  0.00  0.00    +0.000 A 
ATOM     14  C   UNL     1      45.935   3.552   7.672  0.00  0.00    +0.000 A 
ATOM     15  C   UNL     1      46.886   3.247   6.707  0.00  0.00    +0.000 A 
ATOM     16  C   UNL     1      47.381   1.952   6.628  0.00  0.00    +0.000 A 
ATOM     17  C   UNL     1      46.916   1.017   7.537  0.00  0.00    +0.000 A 
ATOM     18  N   UNL     1      45.985   1.281   8.480  0.00  0.00    +0.000 NA
ENDBRANCH  12  13
ENDBRANCH   8  12
ENDBRANCH   7   8
ENDBRANCH   1   7
BRANCH   4  19
ATOM     19  C   UNL     1      49.220   7.056  13.988  0.00  0.00    +0.000 C 
BRANCH  19  20
ATOM     20  N   UNL     1      50.031   7.547  12.894  0.00  0.00    +0.000 N 
ATOM     21  C   UNL     1      50.805   8.671  13.034  0.00  0.00    +0.000 C 
ATOM     22  O   UNL     1      50.880   9.279  14.099  0.00  0.00    +0.000 OA
ATOM     23  H   UNL     1      49.820   7.201  11.963  0.00  0.00    +0.000 HD
BRANCH  21  24
ATOM     24  C   UNL     1      51.595   9.084  11.866  0.00  0.00    +0.000 A 
ATOM     25  C   UNL     1      52.845   8.518  11.646  0.00  0.00    +0.000 A 
ATOM     26  S   UNL     1      53.620   9.091  10.239  0.00  0.00    +0.000 S 
ATOM     27  C   UNL     1      52.341  10.163   9.906  0.00  0.00    +0.000 A 
ATOM     28  N   UNL     1      52.390  11.007   8.839  0.00  0.00    +0.000 NA
ATOM     29  C   UNL     1      51.367  11.781   8.719  0.00  0.00    +0.000 A 
ATOM     30  N   UNL     1      50.293  11.790   9.574  0.00  0.00    +0.000 N 
ATOM     31  C   UNL     1      50.177  10.922  10.634  0.00  0.00    +0.000 A 
ATOM     32  O   UNL     1      49.160  10.893  11.326  0.00  0.00    +0.000 OA
ATOM     33  C   UNL     1      51.318  10.048  10.829  0.00  0.00    +0.000 A 
ATOM     34  H   UNL     1      49.515  12.410   9.414  0.00  0.00    +0.000 HD
ENDBRANCH  21  24
ENDBRANCH  19  20
ENDBRANCH   4  19
TORSDOF 8
ENDMDL
MODEL 8
REMARK VINA RESULT:    -6.990      3.752      9.971
REMARK INTER + INTRA:         -11.265
REMARK INTER:                  -9.989
REMARK INTRA:                  -1.276
REMARK UNBOUND:                -1.006
REMARK  Name = 
REMARK  9 active torsions:
REMARK  status: ('A' for Active; 'I' for Inactive)
REMARK    1  A    between atoms: C_1  and  N_2
REMARK    2  A    between atoms: N_2  and  C_3
REMARK    3  A    between atoms: C_3  and  C_4
REMARK    4  A    between atoms: C_3  and  C_25
REMARK    5  A    between atoms: C_4  and  C_5
REMARK    6  A    between atoms: C_8  and  C_9
REMARK    7  A    between atoms: C_9  and  N_10
REMARK    8  A    between atoms: C_11  and  C_13
REMARK    9  A    between atoms: C_25  and  C_26
REMARK                            x       y       z     vdW  Elec       q    Type
REMARK                         _______ _______ _______ _____ _____    ______ ____
ROOT
ATOM      1  C   UNL     1      51.436   4.386  17.857  0.00  0.00    +0.000 A 
ATOM      2  C   UNL     1      51.027   3.055  17.701  0.00  0.00    +0.000 A 
ATOM      3  C   UNL     1      49.714   2.752  17.309  0.00  0.00    +0.000 A 
ATOM      4  C   UNL     1      48.800   3.771  17.005  0.00  0.00    +0.000 A 
ATOM      5  C   UNL     1      49.244   5.098  17.058  0.00  0.00    +0.000 A 
ATOM      6  C   UNL     1      50.543   5.401  17.483  0.00  0.00    +0.000 A 
ENDROOT
BRANCH   1   7
ATOM      7  C   UNL     1      52.741   4.737  18.552  0.00  0.00    +0.000 C 
BRANCH   7   8
ATOM      8  C   UNL     1      53.238   3.803  19.680  0.00  0.00    +0.000 C 
BRANCH   8  10
ATOM      9  C   UNL     1      51.748   4.663  21.483  0.00  0.00    +0.000 C 
ATOM     10  N   UNL     1      53.110   4.429  21.022  0.00  0.00    +0.000 NA
ATOM     11  H   UNL     1      53.630   3.904  21.722  0.00  0.00    +0.000 HD
ENDBRANCH   8  10
BRANCH   8  12
ATOM     12  C   UNL     1      54.667   3.263  19.413  0.00  0.00    +0.000 C 
BRANCH  12  13
ATOM     13  C   UNL     1      54.666   1.923  18.715  0.00  0.00    +0.000 A 
ATOM     14  C   UNL     1      54.646   1.857  17.323  0.00  0.00    +0.000 A 
ATOM     15  C   UNL     1      54.503   0.618  16.710  0.00  0.00    +0.000 A 
ATOM     16  C   UNL     1      54.418  -0.522  17.498  0.00  0.00    +0.000 A 
ATOM     17  C   UNL     1      54.500  -0.375  18.872  0.00  0.00    +0.000 A 
ATOM     18  N   UNL     1      54.628   0.815  19.497  0.00  0.00    +0.000 NA
ENDBRANCH  12  13
ENDBRANCH   8  12
ENDBRANCH   7   8
ENDBRANCH   1   7
BRANCH   4  19
ATOM     19  C   UNL     1      47.357   3.461  16.687  0.00  0.00    +0.000 C 
BRANCH  19  20
ATOM     20  N   UNL     1      46.798   4.407  15.743  0.00  0.00    +0.000 N 
ATOM     21  C   UNL     1      46.808   4.153  14.395  0.00  0.00    +0.000 C 
ATOM     22  O   UNL     1      47.245   3.101  13.936  0.00  0.00    +0.000 OA
ATOM     23  H   UNL     1      46.637   5.355  16.071  0.00  0.00    +0.000 HD
BRANCH  21  24
ATOM     24  C   UNL     1      46.211   5.174  13.523  0.00  0.00    +0.000 A 
ATOM     25  C   UNL     1      46.870   6.380  13.323  0.00  0.00    +0.000 A 
ATOM     26  S   UNL     1      46.052   7.445  12.271  0.00  0.00    +0.000 S 
ATOM     27  C   UNL     1      44.755   6.358  12.093  0.00  0.00    +0.000 A 
ATOM     28  N   UNL     1      43.667   6.679  11.341  0.00  0.00    +0.000 NA
ATOM     29  C   UNL     1      42.748   5.774  11.313  0.00  0.00    +0.000 A 
ATOM     30  N   UNL     1      42.818   4.574  11.972  0.00  0.00    +0.000 N 
ATOM     31  C   UNL     1      43.918   4.186  12.702  0.00  0.00    +0.000 A 
ATOM     32  O   UNL     1      43.987   3.065  13.205  0.00  0.00    +0.000 OA
ATOM     33  C   UNL     1      44.968   5.182  12.788  0.00  0.00    +0.000 A 
ATOM     34  H   UNL     1      42.071   3.901  11.895  0.00  0.00    +0.000 HD
ENDBRANCH  21  24
ENDBRANCH  19  20
ENDBRANCH   4  19
TORSDOF 8
ENDMDL
MODEL 9
REMARK VINA RESULT:    -6.842      3.688      9.658
REMARK INTER + INTRA:         -11.048
REMARK INTER:                  -9.180
REMARK INTRA:                  -1.868
REMARK UNBOUND:                -1.006
REMARK  Name = 
REMARK  9 active torsions:
REMARK  status: ('A' for Active; 'I' for Inactive)
REMARK    1  A    between atoms: C_1  and  N_2
REMARK    2  A    between atoms: N_2  and  C_3
REMARK    3  A    between atoms: C_3  and  C_4
REMARK    4  A    between atoms: C_3  and  C_25
REMARK    5  A    between atoms: C_4  and  C_5
REMARK    6  A    between atoms: C_8  and  C_9
REMARK    7  A    between atoms: C_9  and  N_10
REMARK    8  A    between atoms: C_11  and  C_13
REMARK    9  A    between atoms: C_25  and  C_26
REMARK                            x       y       z     vdW  Elec       q    Type
REMARK                         _______ _______ _______ _____ _____    ______ ____
ROOT
ATOM      1  C   UNL     1      50.608   4.811  17.724  0.00  0.00    +0.000 A 
ATOM      2  C   UNL     1      49.258   4.769  17.350  0.00  0.00    +0.000 A 
ATOM      3  C   UNL     1      48.717   5.759  16.515  0.00  0.00    +0.000 A 
ATOM      4  C   UNL     1      49.524   6.776  15.987  0.00  0.00    +0.000 A 
ATOM      5  C   UNL     1      50.894   6.753  16.276  0.00  0.00    +0.000 A 
ATOM      6  C   UNL     1      51.427   5.786  17.137  0.00  0.00    +0.000 A 
ENDROOT
BRANCH   1   7
ATOM      7  C   UNL     1      51.146   3.935  18.842  0.00  0.00    +0.000 C 
BRANCH   7   8
ATOM      8  C   UNL     1      51.837   4.628  20.040  0.00  0.00    +0.000 C 
BRANCH   8  10
ATOM      9  C   UNL     1      53.663   3.012  19.520  0.00  0.00    +0.000 C 
ATOM     10  N   UNL     1      53.031   3.875  20.509  0.00  0.00    +0.000 NA
ATOM     11  H   UNL     1      53.720   4.501  20.918  0.00  0.00    +0.000 HD
ENDBRANCH   8  10
BRANCH   8  12
ATOM     12  C   UNL     1      50.848   4.945  21.191  0.00  0.00    +0.000 C 
BRANCH  12  13
ATOM     13  C   UNL     1      49.713   5.842  20.756  0.00  0.00    +0.000 A 
ATOM     14  C   UNL     1      48.395   5.393  20.829  0.00  0.00    +0.000 A 
ATOM     15  C   UNL     1      47.385   6.181  20.294  0.00  0.00    +0.000 A 
ATOM     16  C   UNL     1      47.709   7.409  19.731  0.00  0.00    +0.000 A 
ATOM     17  C   UNL     1      49.035   7.806  19.746  0.00  0.00    +0.000 A 
ATOM     18  N   UNL     1      50.040   7.058  20.250  0.00  0.00    +0.000 NA
ENDBRANCH  12  13
ENDBRANCH   8  12
ENDBRANCH   7   8
ENDBRANCH   1   7
BRANCH   4  19
ATOM     19  C   UNL     1      48.934   7.906  15.177  0.00  0.00    +0.000 C 
BRANCH  19  20
ATOM     20  N   UNL     1      47.737   7.496  14.473  0.00  0.00    +0.000 N 
ATOM     21  C   UNL     1      47.811   6.755  13.321  0.00  0.00    +0.000 C 
ATOM     22  O   UNL     1      48.884   6.370  12.865  0.00  0.00    +0.000 OA
ATOM     23  H   UNL     1      46.872   7.977  14.702  0.00  0.00    +0.000 HD
BRANCH  21  24
ATOM     24  C   UNL     1      46.537   6.386  12.686  0.00  0.00    +0.000 A 
ATOM     25  C   UNL     1      45.754   7.368  12.093  0.00  0.00    +0.000 A 
ATOM     26  S   UNL     1      44.321   6.769  11.388  0.00  0.00    +0.000 S 
ATOM     27  C   UNL     1      44.664   5.184  11.905  0.00  0.00    +0.000 A 
ATOM     28  N   UNL     1      43.797   4.163  11.666  0.00  0.00    +0.000 NA
ATOM     29  C   UNL     1      44.170   3.021  12.134  0.00  0.00    +0.000 A 
ATOM     30  N   UNL     1      45.336   2.807  12.824  0.00  0.00    +0.000 N 
ATOM     31  C   UNL     1      46.265   3.797  13.047  0.00  0.00    +0.000 A 
ATOM     32  O   UNL     1      47.342   3.551  13.588  0.00  0.00    +0.000 OA
ATOM     33  C   UNL     1      45.878   5.108  12.563  0.00  0.00    +0.000 A 
ATOM     34  H   UNL     1      45.577   1.884  13.150  0.00  0.00    +0.000 HD
ENDBRANCH  21  24
ENDBRANCH  19  20
ENDBRANCH   4  19
TORSDOF 8
ENDMDL
