MODEL 1
REMARK VINA RESULT:    -8.296      0.000      0.000
REMARK INTER + INTRA:         -12.359
REMARK INTER:                 -11.206
REMARK INTRA:                  -1.154
REMARK UNBOUND:                -1.154
REMARK  Name = 
REMARK  7 active torsions:
REMARK  status: ('A' for Active; 'I' for Inactive)
REMARK    1  A    between atoms: C_1  and  C_2
REMARK    2  A    between atoms: C_2  and  N_3
REMARK    3  A    between atoms: C_2  and  C_16
REMARK    4  A    between atoms: C_4  and  C_6
REMARK    5  A    between atoms: C_19  and  C_20
REMARK    6  A    between atoms: C_20  and  N_21
REMARK    7  A    between atoms: C_22  and  C_24
REMARK                            x       y       z     vdW  Elec       q    Type
REMARK                         _______ _______ _______ _____ _____    ______ ____
ROOT
ATOM      1  C   UNL     1      48.130   8.825  12.696  0.00  0.00    +0.000 C 
ATOM      2  C   UNL     1      47.316   7.886  13.594  0.00  0.00    +0.000 C 
ENDROOT
BRANCH   2   3
ATOM      3  C   UNL     1      46.360   6.974  12.838  0.00  0.00    +0.000 A 
ATOM      4  C   UNL     1      46.567   5.584  12.868  0.00  0.00    +0.000 A 
ATOM      5  C   UNL     1      45.734   4.713  12.156  0.00  0.00    +0.000 A 
ATOM      6  C   UNL     1      44.682   5.211  11.376  0.00  0.00    +0.000 A 
ATOM      7  C   UNL     1      44.467   6.594  11.347  0.00  0.00    +0.000 A 
ATOM      8  C   UNL     1      45.304   7.464  12.054  0.00  0.00    +0.000 A 
BRANCH   6   9
ATOM      9  C   UNL     1      43.795   4.282  10.588  0.00  0.00    +0.000 C 
BRANCH   9  10
ATOM     10  N   UNL     1      44.566   3.372   9.773  0.00  0.00    +0.000 N 
ATOM     11  C   UNL     1      45.277   3.843   8.690  0.00  0.00    +0.000 C 
ATOM     12  O   UNL     1      45.283   5.019   8.339  0.00  0.00    +0.000 OA
ATOM     13  H   UNL     1      44.789   2.466  10.162  0.00  0.00    +0.000 HD
BRANCH  11  14
ATOM     14  C   UNL     1      46.097   2.842   7.959  0.00  0.00    +0.000 A 
ATOM     15  C   UNL     1      46.070   1.489   8.301  0.00  0.00    +0.000 A 
ATOM     16  C   UNL     1      46.860   0.623   7.569  0.00  0.00    +0.000 A 
ATOM     17  N   UNL     1      47.650   1.010   6.545  0.00  0.00    +0.000 NA
ATOM     18  C   UNL     1      47.639   2.322   6.224  0.00  0.00    +0.000 A 
ATOM     19  C   UNL     1      46.882   3.269   6.888  0.00  0.00    +0.000 A 
ENDBRANCH  11  14
ENDBRANCH   9  10
ENDBRANCH   6   9
ENDBRANCH   2   3
BRANCH   2  20
ATOM     20  N   UNL     1      48.207   7.071  14.400  0.00  0.00    +0.000 N 
ATOM     21  C   UNL     1      48.705   7.483  15.609  0.00  0.00    +0.000 C 
ATOM     22  O   UNL     1      48.368   8.539  16.137  0.00  0.00    +0.000 OA
ATOM     23  H   UNL     1      48.653   6.298  13.920  0.00  0.00    +0.000 HD
BRANCH  21  24
ATOM     24  C   UNL     1      49.618   6.548  16.278  0.00  0.00    +0.000 A 
ATOM     25  C   UNL     1      50.922   6.931  16.557  0.00  0.00    +0.000 A 
ATOM     26  S   UNL     1      51.818   5.743  17.392  0.00  0.00    +0.000 S 
ATOM     27  C   UNL     1      50.511   4.654  17.358  0.00  0.00    +0.000 A 
ATOM     28  N   UNL     1      50.621   3.412  17.900  0.00  0.00    +0.000 NA
ATOM     29  C   UNL     1      49.567   2.676  17.767  0.00  0.00    +0.000 A 
ATOM     30  N   UNL     1      48.412   3.074  17.143  0.00  0.00    +0.000 N 
ATOM     31  C   UNL     1      48.242   4.332  16.617  0.00  0.00    +0.000 A 
ATOM     32  O   UNL     1      47.174   4.676  16.121  0.00  0.00    +0.000 OA
ATOM     33  C   UNL     1      49.404   5.194  16.729  0.00  0.00    +0.000 A 
ATOM     34  H   UNL     1      47.619   2.453  17.082  0.00  0.00    +0.000 HD
ENDBRANCH  21  24
ENDBRANCH   2  20
TORSDOF 6
ENDMDL
MODEL 2
REMARK VINA RESULT:    -7.977      2.507      3.825
REMARK INTER + INTRA:         -11.928
REMARK INTER:                 -10.613
REMARK INTRA:                  -1.315
REMARK UNBOUND:                -1.154
REMARK  Name = 
REMARK  7 active torsions:
REMARK  status: ('A' for Active; 'I' for Inactive)
REMARK    1  A    between atoms: C_1  and  C_2
REMARK    2  A    between atoms: C_2  and  N_3
REMARK    3  A    between atoms: C_2  and  C_16
REMARK    4  A    between atoms: C_4  and  C_6
REMARK    5  A    between atoms: C_19  and  C_20
REMARK    6  A    between atoms: C_20  and  N_21
REMARK    7  A    between atoms: C_22  and  C_24
REMARK                            x       y       z     vdW  Elec       q    Type
REMARK                         _______ _______ _______ _____ _____    ______ ____
ROOT
ATOM      1  C   UNL     1      47.237   4.050  16.629  0.00  0.00    +0.000 C 
ATOM      2  C   UNL     1      47.732   4.820  15.399  0.00  0.00    +0.000 C 
ENDROOT
BRANCH   2   3
ATOM      3  C   UNL     1      46.865   4.640  14.160  0.00  0.00    +0.000 A 
ATOM      4  C   UNL     1      46.279   5.768  13.562  0.00  0.00    +0.000 A 
ATOM      5  C   UNL     1      45.445   5.643  12.445  0.00  0.00    +0.000 A 
ATOM      6  C   UNL     1      45.157   4.382  11.908  0.00  0.00    +0.000 A 
ATOM      7  C   UNL     1      45.743   3.254  12.496  0.00  0.00    +0.000 A 
ATOM      8  C   UNL     1      46.572   3.380  13.617  0.00  0.00    +0.000 A 
BRANCH   6   9
ATOM      9  C   UNL     1      44.242   4.237  10.720  0.00  0.00    +0.000 C 
BRANCH   9  10
ATOM     10  N   UNL     1      44.828   3.410   9.691  0.00  0.00    +0.000 N 
ATOM     11  C   UNL     1      45.629   3.974   8.720  0.00  0.00    +0.000 C 
ATOM     12  O   UNL     1      45.867   5.175   8.648  0.00  0.00    +0.000 OA
ATOM     13  H   UNL     1      44.867   2.413   9.854  0.00  0.00    +0.000 HD
BRANCH  11  14
ATOM     14  C   UNL     1      46.245   3.031   7.751  0.00  0.00    +0.000 A 
ATOM     15  C   UNL     1      46.704   3.463   6.506  0.00  0.00    +0.000 A 
ATOM     16  C   UNL     1      47.267   2.522   5.663  0.00  0.00    +0.000 A 
ATOM     17  N   UNL     1      47.400   1.216   5.978  0.00  0.00    +0.000 NA
ATOM     18  C   UNL     1      46.967   0.832   7.199  0.00  0.00    +0.000 A 
ATOM     19  C   UNL     1      46.394   1.693   8.117  0.00  0.00    +0.000 A 
ENDBRANCH  11  14
ENDBRANCH   9  10
ENDBRANCH   6   9
ENDBRANCH   2   3
BRANCH   2  20
ATOM     20  N   UNL     1      47.832   6.235  15.703  0.00  0.00    +0.000 N 
ATOM     21  C   UNL     1      49.023   6.858  15.975  0.00  0.00    +0.000 C 
ATOM     22  O   UNL     1      50.103   6.279  15.899  0.00  0.00    +0.000 OA
ATOM     23  H   UNL     1      46.966   6.693  15.963  0.00  0.00    +0.000 HD
BRANCH  21  24
ATOM     24  C   UNL     1      48.940   8.288  16.293  0.00  0.00    +0.000 A 
ATOM     25  C   UNL     1      49.523   9.222  15.449  0.00  0.00    +0.000 A 
ATOM     26  S   UNL     1      49.274  10.837  15.942  0.00  0.00    +0.000 S 
ATOM     27  C   UNL     1      48.427  10.340  17.332  0.00  0.00    +0.000 A 
ATOM     28  N   UNL     1      47.942  11.250  18.219  0.00  0.00    +0.000 NA
ATOM     29  C   UNL     1      47.358  10.733  19.248  0.00  0.00    +0.000 A 
ATOM     30  N   UNL     1      47.212   9.387  19.468  0.00  0.00    +0.000 N 
ATOM     31  C   UNL     1      47.650   8.433  18.581  0.00  0.00    +0.000 A 
ATOM     32  O   UNL     1      47.448   7.239  18.778  0.00  0.00    +0.000 OA
ATOM     33  C   UNL     1      48.326   8.963  17.412  0.00  0.00    +0.000 A 
ATOM     34  H   UNL     1      46.735   9.047  20.290  0.00  0.00    +0.000 HD
ENDBRANCH  21  24
ENDBRANCH   2  20
TORSDOF 6
ENDMDL
MODEL 3
REMARK VINA RESULT:    -7.877      2.001      2.280
REMARK INTER + INTRA:         -11.793
REMARK INTER:                 -10.702
REMARK INTRA:                  -1.091
REMARK UNBOUND:                -1.154
REMARK  Name = 
REMARK  7 active torsions:
REMARK  status: ('A' for Active; 'I' for Inactive)
REMARK    1  A    between atoms: C_1  and  C_2
REMARK    2  A    between atoms: C_2  and  N_3
REMARK    3  A    between atoms: C_2  and  C_16
REMARK    4  A    between atoms: C_4  and  C_6
REMARK    5  A    between atoms: C_19  and  C_20
REMARK    6  A    between atoms: C_20  and  N_21
REMARK    7  A    between atoms: C_22  and  C_24
REMARK                            x       y       z     vdW  Elec       q    Type
REMARK                         _______ _______ _______ _____ _____    ______ ____
ROOT
ATOM      1  C   UNL     1      49.610   7.554  13.496  0.00  0.00    +0.000 C 
ATOM      2  C   UNL     1      48.160   7.694  13.971  0.00  0.00    +0.000 C 
ENDROOT
BRANCH   2   3
ATOM      3  C   UNL     1      47.183   6.751  13.282  0.00  0.00    +0.000 A 
ATOM      4  C   UNL     1      46.959   5.476  13.826  0.00  0.00    +0.000 A 
ATOM      5  C   UNL     1      46.099   4.564  13.202  0.00  0.00    +0.000 A 
ATOM      6  C   UNL     1      45.455   4.898  12.004  0.00  0.00    +0.000 A 
ATOM      7  C   UNL     1      45.669   6.170  11.460  0.00  0.00    +0.000 A 
ATOM      8  C   UNL     1      46.534   7.078  12.082  0.00  0.00    +0.000 A 
BRANCH   6   9
ATOM      9  C   UNL     1      44.545   3.914  11.314  0.00  0.00    +0.000 C 
BRANCH   9  10
ATOM     10  N   UNL     1      45.242   3.170  10.291  0.00  0.00    +0.000 N 
ATOM     11  C   UNL     1      45.055   3.478   8.960  0.00  0.00    +0.000 C 
ATOM     12  O   UNL     1      44.291   4.352   8.565  0.00  0.00    +0.000 OA
ATOM     13  H   UNL     1      46.048   2.629  10.570  0.00  0.00    +0.000 HD
BRANCH  11  14
ATOM     14  C   UNL     1      45.872   2.705   7.988  0.00  0.00    +0.000 A 
ATOM     15  C   UNL     1      46.373   3.295   6.827  0.00  0.00    +0.000 A 
ATOM     16  C   UNL     1      47.127   2.508   5.976  0.00  0.00    +0.000 A 
ATOM     17  N   UNL     1      47.405   1.207   6.207  0.00  0.00    +0.000 NA
ATOM     18  C   UNL     1      46.924   0.669   7.349  0.00  0.00    +0.000 A 
ATOM     19  C   UNL     1      46.165   1.370   8.268  0.00  0.00    +0.000 A 
ENDBRANCH  11  14
ENDBRANCH   9  10
ENDBRANCH   6   9
ENDBRANCH   2   3
BRANCH   2  20
ATOM     20  N   UNL     1      48.082   7.487  15.405  0.00  0.00    +0.000 N 
ATOM     21  C   UNL     1      48.490   8.425  16.318  0.00  0.00    +0.000 C 
ATOM     22  O   UNL     1      48.874   9.543  15.990  0.00  0.00    +0.000 OA
ATOM     23  H   UNL     1      47.960   6.527  15.707  0.00  0.00    +0.000 HD
BRANCH  21  24
ATOM     24  C   UNL     1      48.372   8.040  17.730  0.00  0.00    +0.000 A 
ATOM     25  C   UNL     1      47.934   8.964  18.667  0.00  0.00    +0.000 A 
ATOM     26  S   UNL     1      47.797   8.325  20.244  0.00  0.00    +0.000 S 
ATOM     27  C   UNL     1      48.375   6.805  19.737  0.00  0.00    +0.000 A 
ATOM     28  N   UNL     1      48.522   5.783  20.621  0.00  0.00    +0.000 NA
ATOM     29  C   UNL     1      49.008   4.701  20.109  0.00  0.00    +0.000 A 
ATOM     30  N   UNL     1      49.356   4.549  18.791  0.00  0.00    +0.000 N 
ATOM     31  C   UNL     1      49.187   5.541  17.854  0.00  0.00    +0.000 A 
ATOM     32  O   UNL     1      49.449   5.353  16.671  0.00  0.00    +0.000 OA
ATOM     33  C   UNL     1      48.655   6.784  18.384  0.00  0.00    +0.000 A 
ATOM     34  H   UNL     1      49.721   3.673  18.451  0.00  0.00    +0.000 HD
ENDBRANCH  21  24
ENDBRANCH   2  20
TORSDOF 6
ENDMDL
MODEL 4
REMARK VINA RESULT:    -7.776      2.103      4.187
REMARK INTER + INTRA:         -11.657
REMARK INTER:                 -10.271
REMARK INTRA:                  -1.386
REMARK UNBOUND:                -1.154
REMARK  Name = 
REMARK  7 active torsions:
REMARK  status: ('A' for Active; 'I' for Inactive)
REMARK    1  A    between atoms: C_1  and  C_2
REMARK    2  A    between atoms: C_2  and  N_3
REMARK    3  A    between atoms: C_2  and  C_16
REMARK    4  A    between atoms: C_4  and  C_6
REMARK    5  A    between atoms: C_19  and  C_20
REMARK    6  A    between atoms: C_20  and  N_21
REMARK    7  A    between atoms: C_22  and  C_24
REMARK                            x       y       z     vdW  Elec       q    Type
REMARK                         _______ _______ _______ _____ _____    ______ ____
ROOT
ATOM      1  C   UNL     1      47.160   4.302  16.629  0.00  0.00    +0.000 C 
ATOM      2  C   UNL     1      47.704   4.887  15.322  0.00  0.00    +0.000 C 
ENDROOT
BRANCH   2   3
ATOM      3  C   UNL     1      46.814   4.644  14.111  0.00  0.00    +0.000 A 
ATOM      4  C   UNL     1      46.181   5.736  13.494  0.00  0.00    +0.000 A 
ATOM      5  C   UNL     1      45.324   5.552  12.402  0.00  0.00    +0.000 A 
ATOM      6  C   UNL     1      45.062   4.267  11.910  0.00  0.00    +0.000 A 
ATOM      7  C   UNL     1      45.694   3.176  12.518  0.00  0.00    +0.000 A 
ATOM      8  C   UNL     1      46.546   3.360  13.613  0.00  0.00    +0.000 A 
BRANCH   6   9
ATOM      9  C   UNL     1      44.122   4.059  10.750  0.00  0.00    +0.000 C 
BRANCH   9  10
ATOM     10  N   UNL     1      44.739   3.289   9.696  0.00  0.00    +0.000 N 
ATOM     11  C   UNL     1      45.504   3.915   8.734  0.00  0.00    +0.000 C 
ATOM     12  O   UNL     1      45.684   5.128   8.692  0.00  0.00    +0.000 OA
ATOM     13  H   UNL     1      44.826   2.291   9.832  0.00  0.00    +0.000 HD
BRANCH  11  14
ATOM     14  C   UNL     1      46.156   3.029   7.736  0.00  0.00    +0.000 A 
ATOM     15  C   UNL     1      46.586   3.516   6.501  0.00  0.00    +0.000 A 
ATOM     16  C   UNL     1      47.186   2.625   5.629  0.00  0.00    +0.000 A 
ATOM     17  N   UNL     1      47.380   1.318   5.907  0.00  0.00    +0.000 NA
ATOM     18  C   UNL     1      46.973   0.881   7.119  0.00  0.00    +0.000 A 
ATOM     19  C   UNL     1      46.367   1.689   8.063  0.00  0.00    +0.000 A 
ENDBRANCH  11  14
ENDBRANCH   9  10
ENDBRANCH   6   9
ENDBRANCH   2   3
BRANCH   2  20
ATOM     20  N   UNL     1      47.923   6.314  15.468  0.00  0.00    +0.000 N 
ATOM     21  C   UNL     1      49.128   6.850  15.846  0.00  0.00    +0.000 C 
ATOM     22  O   UNL     1      50.133   6.165  16.009  0.00  0.00    +0.000 OA
ATOM     23  H   UNL     1      47.088   6.885  15.533  0.00  0.00    +0.000 HD
BRANCH  21  24
ATOM     24  C   UNL     1      49.167   8.311  15.975  0.00  0.00    +0.000 A 
ATOM     25  C   UNL     1      49.326   8.893  17.225  0.00  0.00    +0.000 A 
ATOM     26  S   UNL     1      49.412  10.597  17.178  0.00  0.00    +0.000 S 
ATOM     27  C   UNL     1      49.181  10.618  15.492  0.00  0.00    +0.000 A 
ATOM     28  N   UNL     1      49.133  11.791  14.807  0.00  0.00    +0.000 NA
ATOM     29  C   UNL     1      48.912  11.661  13.541  0.00  0.00    +0.000 A 
ATOM     30  N   UNL     1      48.738  10.462  12.898  0.00  0.00    +0.000 N 
ATOM     31  C   UNL     1      48.818   9.250  13.543  0.00  0.00    +0.000 A 
ATOM     32  O   UNL     1      48.720   8.193  12.928  0.00  0.00    +0.000 OA
ATOM     33  C   UNL     1      49.053   9.343  14.972  0.00  0.00    +0.000 A 
ATOM     34  H   UNL     1      48.578  10.427  11.903  0.00  0.00    +0.000 HD
ENDBRANCH  21  24
ENDBRANCH   2  20
TORSDOF 6
ENDMDL
MODEL 5
REMARK VINA RESULT:    -7.463      2.778      4.173
REMARK INTER + INTRA:         -11.235
REMARK INTER:                 -10.082
REMARK INTRA:                  -1.153
REMARK UNBOUND:                -1.154
REMARK  Name = 
REMARK  7 active torsions:
REMARK  status: ('A' for Active; 'I' for Inactive)
REMARK    1  A    between atoms: C_1  and  C_2
REMARK    2  A    between atoms: C_2  and  N_3
REMARK    3  A    between atoms: C_2  and  C_16
REMARK    4  A    between atoms: C_4  and  C_6
REMARK    5  A    between atoms: C_19  and  C_20
REMARK    6  A    between atoms: C_20  and  N_21
REMARK    7  A    between atoms: C_22  and  C_24
REMARK                            x       y       z     vdW  Elec       q    Type
REMARK                         _______ _______ _______ _____ _____    ______ ____
ROOT
ATOM      1  C   UNL     1      47.798   3.523  16.610  0.00  0.00    +0.000 C 
ATOM      2  C   UNL     1      48.101   4.858  15.922  0.00  0.00    +0.000 C 
ENDROOT
BRANCH   2   3
ATOM      3  C   UNL     1      47.344   5.074  14.619  0.00  0.00    +0.000 A 
ATOM      4  C   UNL     1      46.464   4.079  14.163  0.00  0.00    +0.000 A 
ATOM      5  C   UNL     1      45.777   4.221  12.951  0.00  0.00    +0.000 A 
ATOM      6  C   UNL     1      45.969   5.355  12.151  0.00  0.00    +0.000 A 
ATOM      7  C   UNL     1      46.841   6.352  12.604  0.00  0.00    +0.000 A 
ATOM      8  C   UNL     1      47.531   6.207  13.812  0.00  0.00    +0.000 A 
BRANCH   6   9
ATOM      9  C   UNL     1      45.252   5.504  10.834  0.00  0.00    +0.000 C 
BRANCH   9  10
ATOM     10  N   UNL     1      45.864   4.705   9.799  0.00  0.00    +0.000 N 
ATOM     11  C   UNL     1      45.167   3.665   9.221  0.00  0.00    +0.000 C 
ATOM     12  O   UNL     1      44.031   3.340   9.552  0.00  0.00    +0.000 OA
ATOM     13  H   UNL     1      46.676   5.084   9.331  0.00  0.00    +0.000 HD
BRANCH  11  14
ATOM     14  C   UNL     1      45.855   2.950   8.115  0.00  0.00    +0.000 A 
ATOM     15  C   UNL     1      46.166   3.592   6.915  0.00  0.00    +0.000 A 
ATOM     16  C   UNL     1      46.809   2.856   5.937  0.00  0.00    +0.000 A 
ATOM     17  N   UNL     1      47.154   1.558   6.079  0.00  0.00    +0.000 NA
ATOM     18  C   UNL     1      46.860   0.970   7.260  0.00  0.00    +0.000 A 
ATOM     19  C   UNL     1      46.223   1.618   8.302  0.00  0.00    +0.000 A 
ENDBRANCH  11  14
ENDBRANCH   9  10
ENDBRANCH   6   9
ENDBRANCH   2   3
BRANCH   2  20
ATOM     20  N   UNL     1      47.815   5.960  16.822  0.00  0.00    +0.000 N 
ATOM     21  C   UNL     1      48.667   6.346  17.824  0.00  0.00    +0.000 C 
ATOM     22  O   UNL     1      49.774   5.840  17.981  0.00  0.00    +0.000 OA
ATOM     23  H   UNL     1      46.849   6.266  16.851  0.00  0.00    +0.000 HD
BRANCH  21  24
ATOM     24  C   UNL     1      48.207   7.459  18.663  0.00  0.00    +0.000 A 
ATOM     25  C   UNL     1      47.918   7.245  20.003  0.00  0.00    +0.000 A 
ATOM     26  S   UNL     1      47.460   8.661  20.837  0.00  0.00    +0.000 S 
ATOM     27  C   UNL     1      47.576   9.599  19.421  0.00  0.00    +0.000 A 
ATOM     28  N   UNL     1      47.291  10.929  19.437  0.00  0.00    +0.000 NA
ATOM     29  C   UNL     1      47.380  11.507  18.285  0.00  0.00    +0.000 A 
ATOM     30  N   UNL     1      47.733  10.876  17.120  0.00  0.00    +0.000 N 
ATOM     31  C   UNL     1      48.068   9.544  17.064  0.00  0.00    +0.000 A 
ATOM     32  O   UNL     1      48.440   9.024  16.017  0.00  0.00    +0.000 OA
ATOM     33  C   UNL     1      47.970   8.844  18.332  0.00  0.00    +0.000 A 
ATOM     34  H   UNL     1      47.794  11.388  16.253  0.00  0.00    +0.000 HD
ENDBRANCH  21  24
ENDBRANCH   2  20
TORSDOF 6
ENDMDL
MODEL 6
REMARK VINA RESULT:    -7.187      4.255      7.034
REMARK INTER + INTRA:         -10.861
REMARK INTER:                  -9.906
REMARK INTRA:                  -0.956
REMARK UNBOUND:                -1.154
REMARK  Name = 
REMARK  7 active torsions:
REMARK  status: ('A' for Active; 'I' for Inactive)
REMARK    1  A    between atoms: C_1  and  C_2
REMARK    2  A    between atoms: C_2  and  N_3
REMARK    3  A    between atoms: C_2  and  C_16
REMARK    4  A    between atoms: C_4  and  C_6
REMARK    5  A    between atoms: C_19  and  C_20
REMARK    6  A    between atoms: C_20  and  N_21
REMARK    7  A    between atoms: C_22  and  C_24
REMARK                            x       y       z     vdW  Elec       q    Type
REMARK                         _______ _______ _______ _____ _____    ______ ____
ROOT
ATOM      1  C   UNL     1      44.914   4.171  12.918  0.00  0.00    +0.000 C 
ATOM      2  C   UNL     1      46.041   5.210  12.939  0.00  0.00    +0.000 C 
ENDROOT
BRANCH   2   3
ATOM      3  C   UNL     1      45.609   6.607  12.514  0.00  0.00    +0.000 A 
ATOM      4  C   UNL     1      46.196   7.724  13.130  0.00  0.00    +0.000 A 
ATOM      5  C   UNL     1      45.800   9.025  12.797  0.00  0.00    +0.000 A 
ATOM      6  C   UNL     1      44.791   9.242  11.850  0.00  0.00    +0.000 A 
ATOM      7  C   UNL     1      44.207   8.132  11.228  0.00  0.00    +0.000 A 
ATOM      8  C   UNL     1      44.599   6.832  11.567  0.00  0.00    +0.000 A 
BRANCH   6   9
ATOM      9  C   UNL     1      44.344  10.639  11.502  0.00  0.00    +0.000 C 
BRANCH   9  10
ATOM     10  N   UNL     1      43.022  10.918  12.012  0.00  0.00    +0.000 N 
ATOM     11  C   UNL     1      41.930  10.877  11.171  0.00  0.00    +0.000 C 
ATOM     12  O   UNL     1      42.005  10.638   9.971  0.00  0.00    +0.000 OA
ATOM     13  H   UNL     1      42.885  10.870  13.013  0.00  0.00    +0.000 HD
BRANCH  11  14
ATOM     14  C   UNL     1      40.606  11.106  11.806  0.00  0.00    +0.000 A 
ATOM     15  C   UNL     1      39.471  10.403  11.398  0.00  0.00    +0.000 A 
ATOM     16  C   UNL     1      38.278  10.674  12.041  0.00  0.00    +0.000 A 
ATOM     17  N   UNL     1      38.151  11.575  13.039  0.00  0.00    +0.000 NA
ATOM     18  C   UNL     1      39.270  12.224  13.427  0.00  0.00    +0.000 A 
ATOM     19  C   UNL     1      40.512  12.024  12.853  0.00  0.00    +0.000 A 
ENDBRANCH  11  14
ENDBRANCH   9  10
ENDBRANCH   6   9
ENDBRANCH   2   3
BRANCH   2  20
ATOM     20  N   UNL     1      46.630   5.280  14.263  0.00  0.00    +0.000 N 
ATOM     21  C   UNL     1      47.235   4.209  14.869  0.00  0.00    +0.000 C 
ATOM     22  O   UNL     1      47.395   3.133  14.301  0.00  0.00    +0.000 OA
ATOM     23  H   UNL     1      46.351   6.074  14.828  0.00  0.00    +0.000 HD
BRANCH  21  24
ATOM     24  C   UNL     1      47.750   4.446  16.222  0.00  0.00    +0.000 A 
ATOM     25  C   UNL     1      47.303   3.669  17.281  0.00  0.00    +0.000 A 
ATOM     26  S   UNL     1      48.055   4.041  18.767  0.00  0.00    +0.000 S 
ATOM     27  C   UNL     1      48.963   5.294  18.057  0.00  0.00    +0.000 A 
ATOM     28  N   UNL     1      49.817   6.047  18.800  0.00  0.00    +0.000 NA
ATOM     29  C   UNL     1      50.409   6.987  18.141  0.00  0.00    +0.000 A 
ATOM     30  N   UNL     1      50.226   7.240  16.806  0.00  0.00    +0.000 N 
ATOM     31  C   UNL     1      49.404   6.480  16.007  0.00  0.00    +0.000 A 
ATOM     32  O   UNL     1      49.310   6.694  14.803  0.00  0.00    +0.000 OA
ATOM     33  C   UNL     1      48.704   5.417  16.704  0.00  0.00    +0.000 A 
ATOM     34  H   UNL     1      50.728   7.985  16.347  0.00  0.00    +0.000 HD
ENDBRANCH  21  24
ENDBRANCH   2  20
TORSDOF 6
ENDMDL
MODEL 7
REMARK VINA RESULT:    -6.932      1.985      2.500
REMARK INTER + INTRA:         -10.518
REMARK INTER:                  -9.949
REMARK INTRA:                  -0.568
REMARK UNBOUND:                -1.154
REMARK  Name = 
REMARK  7 active torsions:
REMARK  status: ('A' for Active; 'I' for Inactive)
REMARK    1  A    between atoms: C_1  and  C_2
REMARK    2  A    between atoms: C_2  and  N_3
REMARK    3  A    between atoms: C_2  and  C_16
REMARK    4  A    between atoms: C_4  and  C_6
REMARK    5  A    between atoms: C_19  and  C_20
REMARK    6  A    between atoms: C_20  and  N_21
REMARK    7  A    between atoms: C_22  and  C_24
REMARK                            x       y       z     vdW  Elec       q    Type
REMARK                         _______ _______ _______ _____ _____    ______ ____
ROOT
ATOM      1  C   UNL     1      48.787   8.798  12.917  0.00  0.00    +0.000 C 
ATOM      2  C   UNL     1      47.443   8.449  13.565  0.00  0.00    +0.000 C 
ENDROOT
BRANCH   2   3
ATOM      3  C   UNL     1      46.546   7.568  12.707  0.00  0.00    +0.000 A 
ATOM      4  C   UNL     1      47.086   6.930  11.578  0.00  0.00    +0.000 A 
ATOM      5  C   UNL     1      46.287   6.142  10.741  0.00  0.00    +0.000 A 
ATOM      6  C   UNL     1      44.920   5.989  10.999  0.00  0.00    +0.000 A 
ATOM      7  C   UNL     1      44.376   6.618  12.126  0.00  0.00    +0.000 A 
ATOM      8  C   UNL     1      45.175   7.410  12.959  0.00  0.00    +0.000 A 
BRANCH   6   9
ATOM      9  C   UNL     1      44.048   5.162  10.089  0.00  0.00    +0.000 C 
BRANCH   9  10
ATOM     10  N   UNL     1      44.820   4.514   9.055  0.00  0.00    +0.000 N 
ATOM     11  C   UNL     1      45.274   3.224   9.232  0.00  0.00    +0.000 C 
ATOM     12  O   UNL     1      45.087   2.571  10.253  0.00  0.00    +0.000 OA
ATOM     13  H   UNL     1      44.781   4.907   8.124  0.00  0.00    +0.000 HD
BRANCH  11  14
ATOM     14  C   UNL     1      45.995   2.620   8.081  0.00  0.00    +0.000 A 
ATOM     15  C   UNL     1      46.394   1.283   8.092  0.00  0.00    +0.000 A 
ATOM     16  C   UNL     1      47.057   0.798   6.980  0.00  0.00    +0.000 A 
ATOM     17  N   UNL     1      47.335   1.541   5.888  0.00  0.00    +0.000 NA
ATOM     18  C   UNL     1      46.917   2.826   5.897  0.00  0.00    +0.000 A 
ATOM     19  C   UNL     1      46.243   3.407   6.956  0.00  0.00    +0.000 A 
ENDBRANCH  11  14
ENDBRANCH   9  10
ENDBRANCH   6   9
ENDBRANCH   2   3
BRANCH   2  20
ATOM     20  N   UNL     1      47.660   7.798  14.844  0.00  0.00    +0.000 N 
ATOM     21  C   UNL     1      48.424   6.668  14.985  0.00  0.00    +0.000 C 
ATOM     22  O   UNL     1      49.047   6.171  14.053  0.00  0.00    +0.000 OA
ATOM     23  H   UNL     1      47.019   8.056  15.585  0.00  0.00    +0.000 HD
BRANCH  21  24
ATOM     24  C   UNL     1      48.513   6.121  16.345  0.00  0.00    +0.000 A 
ATOM     25  C   UNL     1      48.135   4.809  16.591  0.00  0.00    +0.000 A 
ATOM     26  S   UNL     1      48.365   4.325  18.212  0.00  0.00    +0.000 S 
ATOM     27  C   UNL     1      48.922   5.872  18.652  0.00  0.00    +0.000 A 
ATOM     28  N   UNL     1      49.279   6.148  19.935  0.00  0.00    +0.000 NA
ATOM     29  C   UNL     1      49.643   7.371  20.136  0.00  0.00    +0.000 A 
ATOM     30  N   UNL     1      49.686   8.342  19.168  0.00  0.00    +0.000 N 
ATOM     31  C   UNL     1      49.373   8.099  17.851  0.00  0.00    +0.000 A 
ATOM     32  O   UNL     1      49.481   8.973  16.998  0.00  0.00    +0.000 OA
ATOM     33  C   UNL     1      48.944   6.740  17.576  0.00  0.00    +0.000 A 
ATOM     34  H   UNL     1      49.990   9.278  19.388  0.00  0.00    +0.000 HD
ENDBRANCH  21  24
ENDBRANCH   2  20
TORSDOF 6
ENDMDL
MODEL 8
REMARK VINA RESULT:    -6.720      4.743      7.559
REMARK INTER + INTRA:         -10.230
REMARK INTER:                  -9.063
REMARK INTRA:                  -1.168
REMARK UNBOUND:                -1.154
REMARK  Name = 
REMARK  7 active torsions:
REMARK  status: ('A' for Active; 'I' for Inactive)
REMARK    1  A    between atoms: C_1  and  C_2
REMARK    2  A    between atoms: C_2  and  N_3
REMARK    3  A    between atoms: C_2  and  C_16
REMARK    4  A    between atoms: C_4  and  C_6
REMARK    5  A    between atoms: C_19  and  C_20
REMARK    6  A    between atoms: C_20  and  N_21
REMARK    7  A    between atoms: C_22  and  C_24
REMARK                            x       y       z     vdW  Elec       q    Type
REMARK                         _______ _______ _______ _____ _____    ______ ____
ROOT
ATOM      1  C   UNL     1      46.354   8.778  13.558  0.00  0.00    +0.000 C 
ATOM      2  C   UNL     1      46.709   8.351  12.129  0.00  0.00    +0.000 C 
ENDROOT
BRANCH   2   3
ATOM      3  C   UNL     1      48.197   8.411  11.811  0.00  0.00    +0.000 A 
ATOM      4  C   UNL     1      48.943   7.221  11.792  0.00  0.00    +0.000 A 
ATOM      5  C   UNL     1      50.320   7.235  11.542  0.00  0.00    +0.000 A 
ATOM      6  C   UNL     1      50.992   8.445  11.325  0.00  0.00    +0.000 A 
ATOM      7  C   UNL     1      50.253   9.633  11.337  0.00  0.00    +0.000 A 
ATOM      8  C   UNL     1      48.877   9.618  11.592  0.00  0.00    +0.000 A 
BRANCH   6   9
ATOM      9  C   UNL     1      52.479   8.471  11.078  0.00  0.00    +0.000 C 
BRANCH   9  10
ATOM     10  N   UNL     1      52.806   8.038   9.739  0.00  0.00    +0.000 N 
ATOM     11  C   UNL     1      53.367   6.797   9.528  0.00  0.00    +0.000 C 
ATOM     12  O   UNL     1      53.645   6.014  10.430  0.00  0.00    +0.000 OA
ATOM     13  H   UNL     1      52.374   8.530   8.968  0.00  0.00    +0.000 HD
BRANCH  11  14
ATOM     14  C   UNL     1      53.598   6.415   8.110  0.00  0.00    +0.000 A 
ATOM     15  C   UNL     1      53.688   5.078   7.721  0.00  0.00    +0.000 A 
ATOM     16  C   UNL     1      53.901   4.808   6.382  0.00  0.00    +0.000 A 
ATOM     17  N   UNL     1      54.024   5.762   5.435  0.00  0.00    +0.000 NA
ATOM     18  C   UNL     1      53.911   7.046   5.838  0.00  0.00    +0.000 A 
ATOM     19  C   UNL     1      53.694   7.423   7.150  0.00  0.00    +0.000 A 
ENDBRANCH  11  14
ENDBRANCH   9  10
ENDBRANCH   6   9
ENDBRANCH   2   3
BRANCH   2  20
ATOM     20  N   UNL     1      46.226   7.007  11.876  0.00  0.00    +0.000 N 
ATOM     21  C   UNL     1      44.918   6.728  11.574  0.00  0.00    +0.000 C 
ATOM     22  O   UNL     1      44.075   7.606  11.414  0.00  0.00    +0.000 OA
ATOM     23  H   UNL     1      46.831   6.255  12.184  0.00  0.00    +0.000 HD
BRANCH  21  24
ATOM     24  C   UNL     1      44.593   5.310  11.378  0.00  0.00    +0.000 A 
ATOM     25  C   UNL     1      43.871   4.624  12.344  0.00  0.00    +0.000 A 
ATOM     26  S   UNL     1      43.531   3.005  11.922  0.00  0.00    +0.000 S 
ATOM     27  C   UNL     1      44.389   3.150  10.459  0.00  0.00    +0.000 A 
ATOM     28  N   UNL     1      44.506   2.095   9.609  0.00  0.00    +0.000 NA
ATOM     29  C   UNL     1      45.218   2.333   8.557  0.00  0.00    +0.000 A 
ATOM     30  N   UNL     1      45.820   3.533   8.278  0.00  0.00    +0.000 N 
ATOM     31  C   UNL     1      45.696   4.637   9.087  0.00  0.00    +0.000 A 
ATOM     32  O   UNL     1      46.196   5.714   8.777  0.00  0.00    +0.000 OA
ATOM     33  C   UNL     1      44.916   4.417  10.291  0.00  0.00    +0.000 A 
ATOM     34  H   UNL     1      46.356   3.657   7.432  0.00  0.00    +0.000 HD
ENDBRANCH  21  24
ENDBRANCH   2  20
TORSDOF 6
ENDMDL
MODEL 9
REMARK VINA RESULT:    -6.716      4.525      6.866
REMARK INTER + INTRA:         -10.225
REMARK INTER:                  -8.991
REMARK INTRA:                  -1.234
REMARK UNBOUND:                -1.154
REMARK  Name = 
REMARK  7 active torsions:
REMARK  status: ('A' for Active; 'I' for Inactive)
REMARK    1  A    between atoms: C_1  and  C_2
REMARK    2  A    between atoms: C_2  and  N_3
REMARK    3  A    between atoms: C_2  and  C_16
REMARK    4  A    between atoms: C_4  and  C_6
REMARK    5  A    between atoms: C_19  and  C_20
REMARK    6  A    between atoms: C_20  and  N_21
REMARK    7  A    between atoms: C_22  and  C_24
REMARK                            x       y       z     vdW  Elec       q    Type
REMARK                         _______ _______ _______ _____ _____    ______ ____
ROOT
ATOM      1  C   UNL     1      45.423   4.884  12.202  0.00  0.00    +0.000 C 
ATOM      2  C   UNL     1      46.270   6.143  12.418  0.00  0.00    +0.000 C 
ENDROOT
BRANCH   2   3
ATOM      3  C   UNL     1      45.529   7.447  12.156  0.00  0.00    +0.000 A 
ATOM      4  C   UNL     1      44.361   7.428  11.376  0.00  0.00    +0.000 A 
ATOM      5  C   UNL     1      43.670   8.609  11.080  0.00  0.00    +0.000 A 
ATOM      6  C   UNL     1      44.142   9.845  11.539  0.00  0.00    +0.000 A 
ATOM      7  C   UNL     1      45.303   9.869  12.322  0.00  0.00    +0.000 A 
ATOM      8  C   UNL     1      45.996   8.689  12.612  0.00  0.00    +0.000 A 
BRANCH   6   9
ATOM      9  C   UNL     1      43.418  11.124  11.205  0.00  0.00    +0.000 C 
BRANCH   9  10
ATOM     10  N   UNL     1      42.007  10.898  10.994  0.00  0.00    +0.000 N 
ATOM     11  C   UNL     1      41.095  11.242  11.970  0.00  0.00    +0.000 C 
ATOM     12  O   UNL     1      41.409  11.718  13.056  0.00  0.00    +0.000 OA
ATOM     13  H   UNL     1      41.691  10.750  10.045  0.00  0.00    +0.000 HD
BRANCH  11  14
ATOM     14  C   UNL     1      39.663  11.039  11.629  0.00  0.00    +0.000 A 
ATOM     15  C   UNL     1      38.655  11.242  12.572  0.00  0.00    +0.000 A 
ATOM     16  C   UNL     1      37.347  11.034  12.173  0.00  0.00    +0.000 A 
ATOM     17  N   UNL     1      36.994  10.651  10.927  0.00  0.00    +0.000 NA
ATOM     18  C   UNL     1      37.991  10.485  10.031  0.00  0.00    +0.000 A 
ATOM     19  C   UNL     1      39.328  10.670  10.326  0.00  0.00    +0.000 A 
ENDBRANCH  11  14
ENDBRANCH   9  10
ENDBRANCH   6   9
ENDBRANCH   2   3
BRANCH   2  20
ATOM     20  N   UNL     1      46.798   6.163  13.770  0.00  0.00    +0.000 N 
ATOM     21  C   UNL     1      48.136   6.266  14.047  0.00  0.00    +0.000 C 
ATOM     22  O   UNL     1      48.982   6.430  13.173  0.00  0.00    +0.000 OA
ATOM     23  H   UNL     1      46.167   5.839  14.495  0.00  0.00    +0.000 HD
BRANCH  21  24
ATOM     24  C   UNL     1      48.500   6.240  15.469  0.00  0.00    +0.000 A 
ATOM     25  C   UNL     1      49.079   7.354  16.059  0.00  0.00    +0.000 A 
ATOM     26  S   UNL     1      49.375   7.168  17.729  0.00  0.00    +0.000 S 
ATOM     27  C   UNL     1      48.792   5.568  17.709  0.00  0.00    +0.000 A 
ATOM     28  N   UNL     1      48.784   4.813  18.840  0.00  0.00    +0.000 NA
ATOM     29  C   UNL     1      48.354   3.606  18.672  0.00  0.00    +0.000 A 
ATOM     30  N   UNL     1      47.929   3.089  17.475  0.00  0.00    +0.000 N 
ATOM     31  C   UNL     1      47.881   3.827  16.317  0.00  0.00    +0.000 A 
ATOM     32  O   UNL     1      47.436   3.353  15.277  0.00  0.00    +0.000 OA
ATOM     33  C   UNL     1      48.367   5.188  16.450  0.00  0.00    +0.000 A 
ATOM     34  H   UNL     1      47.594   2.139  17.413  0.00  0.00    +0.000 HD
ENDBRANCH  21  24
ENDBRANCH   2  20
TORSDOF 6
ENDMDL
