MODEL 1
REMARK VINA RESULT:    -7.930      0.000      0.000
REMARK INTER + INTRA:          -9.563
REMARK INTER:                  -9.553
REMARK INTRA:                  -0.010
REMARK UNBOUND:                -0.010
REMARK  Name = 
REMARK  4 active torsions:
REMARK  status: ('A' for Active; 'I' for Inactive)
REMARK    1  A    between atoms: C_2  and  C_5
REMARK    2  A    between atoms: N_3  and  O_4
REMARK    3  A    between atoms: C_8  and  C_9
REMARK    4  A    between atoms: C_9  and  N_10
REMARK                            x       y       z     vdW  Elec       q    Type
REMARK                         _______ _______ _______ _____ _____    ______ ____
ROOT
ATOM      1  C   UNL     1      46.198   2.926   7.678  0.00  0.00    +0.000 A 
ATOM      2  C   UNL     1      45.705   1.847   8.418  0.00  0.00    +0.000 A 
ATOM      3  C   UNL     1      44.866   2.070   9.506  0.00  0.00    +0.000 A 
ATOM      4  C   UNL     1      44.504   3.378   9.871  0.00  0.00    +0.000 A 
ATOM      5  C   UNL     1      45.005   4.458   9.122  0.00  0.00    +0.000 A 
ATOM      6  C   UNL     1      45.855   4.233   8.033  0.00  0.00    +0.000 A 
ENDROOT
BRANCH   1   8
ATOM      7  N   UNL     1      46.978   3.455   5.395  0.00  0.00    +0.000 N 
ATOM      8  C   UNL     1      47.099   2.666   6.517  0.00  0.00    +0.000 C 
ATOM      9  N   UNL     1      47.972   1.703   6.597  0.00  0.00    +0.000 NA
ATOM     10  H   UNL     1      47.779   3.302   4.788  0.00  0.00    +0.000 HD
ATOM     11  H   UNL     1      46.816   4.437   5.582  0.00  0.00    +0.000 HD
BRANCH   9  12
ATOM     12  O   UNL     1      48.718   1.607   5.410  0.00  0.00    +0.000 OA
ATOM     13  H   UNL     1      48.864   2.544   5.187  0.00  0.00    +0.000 HD
ENDBRANCH   9  12
ENDBRANCH   1   8
BRANCH   4  14
ATOM     14  C   UNL     1      43.563   3.607  11.034  0.00  0.00    +0.000 C 
BRANCH  14  15
ATOM     15  N   UNL     1      44.175   4.287  12.197  0.00  0.00    +0.000 NA
ATOM     16  C   UNL     1      45.474   3.671  12.533  0.00  0.00    +0.000 C 
ATOM     17  C   UNL     1      46.297   4.472  13.544  0.00  0.00    +0.000 C 
ATOM     18  C   UNL     1      46.468   5.913  13.089  0.00  0.00    +0.000 C 
ATOM     19  C   UNL     1      45.093   6.532  12.895  0.00  0.00    +0.000 C 
ATOM     20  C   UNL     1      44.276   5.725  11.888  0.00  0.00    +0.000 C 
ENDBRANCH  14  15
ENDBRANCH   4  14
TORSDOF 4
ENDMDL
MODEL 2
REMARK VINA RESULT:    -6.844      3.209      6.148
REMARK INTER + INTRA:          -8.254
REMARK INTER:                  -8.556
REMARK INTRA:                   0.302
REMARK UNBOUND:                -0.010
REMARK  Name = 
REMARK  4 active torsions:
REMARK  status: ('A' for Active; 'I' for Inactive)
REMARK    1  A    between atoms: C_2  and  C_5
REMARK    2  A    between atoms: N_3  and  O_4
REMARK    3  A    between atoms: C_8  and  C_9
REMARK    4  A    between atoms: C_9  and  N_10
REMARK                            x       y       z     vdW  Elec       q    Type
REMARK                         _______ _______ _______ _____ _____    ______ ____
ROOT
ATOM      1  C   UNL     1      46.237   4.371  12.855  0.00  0.00    +0.000 A 
ATOM      2  C   UNL     1      45.501   3.228  12.527  0.00  0.00    +0.000 A 
ATOM      3  C   UNL     1      44.833   3.152  11.308  0.00  0.00    +0.000 A 
ATOM      4  C   UNL     1      44.893   4.218  10.395  0.00  0.00    +0.000 A 
ATOM      5  C   UNL     1      45.634   5.364  10.733  0.00  0.00    +0.000 A 
ATOM      6  C   UNL     1      46.298   5.444  11.963  0.00  0.00    +0.000 A 
ENDROOT
BRANCH   1   8
ATOM      7  N   UNL     1      47.100   5.658  14.778  0.00  0.00    +0.000 N 
ATOM      8  C   UNL     1      46.943   4.434  14.169  0.00  0.00    +0.000 C 
ATOM      9  N   UNL     1      47.388   3.331  14.701  0.00  0.00    +0.000 NA
ATOM     10  H   UNL     1      47.402   5.520  15.739  0.00  0.00    +0.000 HD
ATOM     11  H   UNL     1      46.298   6.274  14.708  0.00  0.00    +0.000 HD
BRANCH   9  12
ATOM     12  O   UNL     1      48.027   3.592  15.925  0.00  0.00    +0.000 OA
ATOM     13  H   UNL     1      48.968   3.572  15.670  0.00  0.00    +0.000 HD
ENDBRANCH   9  12
ENDBRANCH   1   8
BRANCH   4  14
ATOM     14  C   UNL     1      44.192   4.111   9.058  0.00  0.00    +0.000 C 
BRANCH  14  15
ATOM     15  N   UNL     1      44.855   3.214   8.085  0.00  0.00    +0.000 NA
ATOM     16  C   UNL     1      45.923   3.932   7.363  0.00  0.00    +0.000 C 
ATOM     17  C   UNL     1      46.833   3.020   6.535  0.00  0.00    +0.000 C 
ATOM     18  C   UNL     1      47.399   1.896   7.387  0.00  0.00    +0.000 C 
ATOM     19  C   UNL     1      46.245   1.110   7.991  0.00  0.00    +0.000 C 
ATOM     20  C   UNL     1      45.339   2.027   8.811  0.00  0.00    +0.000 C 
ENDBRANCH  14  15
ENDBRANCH   4  14
TORSDOF 4
ENDMDL
MODEL 3
REMARK VINA RESULT:    -6.625      3.400      6.245
REMARK INTER + INTRA:          -7.990
REMARK INTER:                  -8.055
REMARK INTRA:                   0.065
REMARK UNBOUND:                -0.010
REMARK  Name = 
REMARK  4 active torsions:
REMARK  status: ('A' for Active; 'I' for Inactive)
REMARK    1  A    between atoms: C_2  and  C_5
REMARK    2  A    between atoms: N_3  and  O_4
REMARK    3  A    between atoms: C_8  and  C_9
REMARK    4  A    between atoms: C_9  and  N_10
REMARK                            x       y       z     vdW  Elec       q    Type
REMARK                         _______ _______ _______ _____ _____    ______ ____
ROOT
ATOM      1  C   UNL     1      46.964   5.771  13.100  0.00  0.00    +0.000 A 
ATOM      2  C   UNL     1      46.767   6.500  11.924  0.00  0.00    +0.000 A 
ATOM      3  C   UNL     1      45.746   6.148  11.045  0.00  0.00    +0.000 A 
ATOM      4  C   UNL     1      44.903   5.061  11.330  0.00  0.00    +0.000 A 
ATOM      5  C   UNL     1      45.109   4.332  12.515  0.00  0.00    +0.000 A 
ATOM      6  C   UNL     1      46.141   4.681  13.394  0.00  0.00    +0.000 A 
ENDROOT
BRANCH   1   8
ATOM      7  N   UNL     1      47.878   6.008  15.382  0.00  0.00    +0.000 N 
ATOM      8  C   UNL     1      48.066   6.162  14.027  0.00  0.00    +0.000 C 
ATOM      9  N   UNL     1      49.172   6.637  13.530  0.00  0.00    +0.000 NA
ATOM     10  H   UNL     1      48.769   6.113  15.860  0.00  0.00    +0.000 HD
ATOM     11  H   UNL     1      47.392   5.160  15.650  0.00  0.00    +0.000 HD
BRANCH   9  12
ATOM     12  O   UNL     1      50.083   6.954  14.553  0.00  0.00    +0.000 OA
ATOM     13  H   UNL     1      50.233   7.905  14.402  0.00  0.00    +0.000 HD
ENDBRANCH   9  12
ENDBRANCH   1   8
BRANCH   4  14
ATOM     14  C   UNL     1      43.775   4.709  10.385  0.00  0.00    +0.000 C 
BRANCH  14  15
ATOM     15  N   UNL     1      44.166   3.838   9.254  0.00  0.00    +0.000 NA
ATOM     16  C   UNL     1      45.329   4.405   8.543  0.00  0.00    +0.000 C 
ATOM     17  C   UNL     1      45.965   3.446   7.533  0.00  0.00    +0.000 C 
ATOM     18  C   UNL     1      46.309   2.116   8.186  0.00  0.00    +0.000 C 
ATOM     19  C   UNL     1      45.043   1.520   8.779  0.00  0.00    +0.000 C 
ATOM     20  C   UNL     1      44.410   2.484   9.782  0.00  0.00    +0.000 C 
ENDBRANCH  14  15
ENDBRANCH   4  14
TORSDOF 4
ENDMDL
MODEL 4
REMARK VINA RESULT:    -6.084      3.611      6.599
REMARK INTER + INTRA:          -7.339
REMARK INTER:                  -7.255
REMARK INTRA:                  -0.084
REMARK UNBOUND:                -0.010
REMARK  Name = 
REMARK  4 active torsions:
REMARK  status: ('A' for Active; 'I' for Inactive)
REMARK    1  A    between atoms: C_2  and  C_5
REMARK    2  A    between atoms: N_3  and  O_4
REMARK    3  A    between atoms: C_8  and  C_9
REMARK    4  A    between atoms: C_9  and  N_10
REMARK                            x       y       z     vdW  Elec       q    Type
REMARK                         _______ _______ _______ _____ _____    ______ ____
ROOT
ATOM      1  C   UNL     1      44.906   6.882  11.362  0.00  0.00    +0.000 A 
ATOM      2  C   UNL     1      43.724   6.136  11.395  0.00  0.00    +0.000 A 
ATOM      3  C   UNL     1      43.610   4.972  10.640  0.00  0.00    +0.000 A 
ATOM      4  C   UNL     1      44.679   4.533   9.841  0.00  0.00    +0.000 A 
ATOM      5  C   UNL     1      45.864   5.290   9.812  0.00  0.00    +0.000 A 
ATOM      6  C   UNL     1      45.975   6.465  10.564  0.00  0.00    +0.000 A 
ENDROOT
BRANCH   1   8
ATOM      7  N   UNL     1      45.762   8.110  13.326  0.00  0.00    +0.000 N 
ATOM      8  C   UNL     1      45.007   8.130  12.175  0.00  0.00    +0.000 C 
ATOM      9  N   UNL     1      44.380   9.198  11.774  0.00  0.00    +0.000 NA
ATOM     10  H   UNL     1      45.907   9.063  13.650  0.00  0.00    +0.000 HD
ATOM     11  H   UNL     1      46.629   7.589  13.257  0.00  0.00    +0.000 HD
BRANCH   9  12
ATOM     12  O   UNL     1      44.586  10.262  12.670  0.00  0.00    +0.000 OA
ATOM     13  H   UNL     1      45.519  10.490  12.500  0.00  0.00    +0.000 HD
ENDBRANCH   9  12
ENDBRANCH   1   8
BRANCH   4  14
ATOM     14  C   UNL     1      44.557   3.247   9.053  0.00  0.00    +0.000 C 
BRANCH  14  15
ATOM     15  N   UNL     1      45.820   2.776   8.442  0.00  0.00    +0.000 NA
ATOM     16  C   UNL     1      45.848   1.301   8.384  0.00  0.00    +0.000 C 
ATOM     17  C   UNL     1      46.988   0.736   7.532  0.00  0.00    +0.000 C 
ATOM     18  C   UNL     1      46.982   1.347   6.139  0.00  0.00    +0.000 C 
ATOM     19  C   UNL     1      47.095   2.858   6.266  0.00  0.00    +0.000 C 
ATOM     20  C   UNL     1      45.958   3.414   7.121  0.00  0.00    +0.000 C 
ENDBRANCH  14  15
ENDBRANCH   4  14
TORSDOF 4
ENDMDL
MODEL 5
REMARK VINA RESULT:    -5.779      4.007      6.045
REMARK INTER + INTRA:          -6.971
REMARK INTER:                  -6.637
REMARK INTRA:                  -0.334
REMARK UNBOUND:                -0.010
REMARK  Name = 
REMARK  4 active torsions:
REMARK  status: ('A' for Active; 'I' for Inactive)
REMARK    1  A    between atoms: C_2  and  C_5
REMARK    2  A    between atoms: N_3  and  O_4
REMARK    3  A    between atoms: C_8  and  C_9
REMARK    4  A    between atoms: C_9  and  N_10
REMARK                            x       y       z     vdW  Elec       q    Type
REMARK                         _______ _______ _______ _____ _____    ______ ____
ROOT
ATOM      1  C   UNL     1      45.349   4.341  11.956  0.00  0.00    +0.000 A 
ATOM      2  C   UNL     1      45.496   5.433  11.094  0.00  0.00    +0.000 A 
ATOM      3  C   UNL     1      46.276   6.523  11.472  0.00  0.00    +0.000 A 
ATOM      4  C   UNL     1      46.926   6.536  12.717  0.00  0.00    +0.000 A 
ATOM      5  C   UNL     1      46.773   5.435  13.578  0.00  0.00    +0.000 A 
ATOM      6  C   UNL     1      45.981   4.344  13.201  0.00  0.00    +0.000 A 
ENDROOT
BRANCH   1   8
ATOM      7  N   UNL     1      44.756   2.591  10.317  0.00  0.00    +0.000 N 
ATOM      8  C   UNL     1      44.505   3.185  11.534  0.00  0.00    +0.000 C 
ATOM      9  N   UNL     1      43.558   2.772  12.326  0.00  0.00    +0.000 NA
ATOM     10  H   UNL     1      44.255   1.708  10.264  0.00  0.00    +0.000 HD
ATOM     11  H   UNL     1      45.738   2.493  10.087  0.00  0.00    +0.000 HD
BRANCH   9  12
ATOM     12  O   UNL     1      42.871   1.686  11.756  0.00  0.00    +0.000 OA
ATOM     13  H   UNL     1      42.812   1.067  12.507  0.00  0.00    +0.000 HD
ENDBRANCH   9  12
ENDBRANCH   1   8
BRANCH   4  14
ATOM     14  C   UNL     1      47.801   7.710  13.102  0.00  0.00    +0.000 C 
BRANCH  14  15
ATOM     15  N   UNL     1      48.614   8.262  11.996  0.00  0.00    +0.000 NA
ATOM     16  C   UNL     1      48.631   9.737  12.051  0.00  0.00    +0.000 C 
ATOM     17  C   UNL     1      49.657  10.380  11.115  0.00  0.00    +0.000 C 
ATOM     18  C   UNL     1      51.044   9.801  11.344  0.00  0.00    +0.000 C 
ATOM     19  C   UNL     1      50.987   8.296  11.136  0.00  0.00    +0.000 C 
ATOM     20  C   UNL     1      49.958   7.661  12.070  0.00  0.00    +0.000 C 
ENDBRANCH  14  15
ENDBRANCH   4  14
TORSDOF 4
ENDMDL
MODEL 6
REMARK VINA RESULT:    -5.655      3.878      5.816
REMARK INTER + INTRA:          -6.822
REMARK INTER:                  -6.539
REMARK INTRA:                  -0.283
REMARK UNBOUND:                -0.010
REMARK  Name = 
REMARK  4 active torsions:
REMARK  status: ('A' for Active; 'I' for Inactive)
REMARK    1  A    between atoms: C_2  and  C_5
REMARK    2  A    between atoms: N_3  and  O_4
REMARK    3  A    between atoms: C_8  and  C_9
REMARK    4  A    between atoms: C_9  and  N_10
REMARK                            x       y       z     vdW  Elec       q    Type
REMARK                         _______ _______ _______ _____ _____    ______ ____
ROOT
ATOM      1  C   UNL     1      44.828   4.415  11.798  0.00  0.00    +0.000 A 
ATOM      2  C   UNL     1      45.604   4.505  12.958  0.00  0.00    +0.000 A 
ATOM      3  C   UNL     1      46.128   5.732  13.356  0.00  0.00    +0.000 A 
ATOM      4  C   UNL     1      45.880   6.891  12.602  0.00  0.00    +0.000 A 
ATOM      5  C   UNL     1      45.100   6.792  11.436  0.00  0.00    +0.000 A 
ATOM      6  C   UNL     1      44.582   5.557  11.031  0.00  0.00    +0.000 A 
ENDROOT
BRANCH   1   8
ATOM      7  N   UNL     1      44.810   2.470  10.276  0.00  0.00    +0.000 N 
ATOM      8  C   UNL     1      44.280   3.090  11.386  0.00  0.00    +0.000 C 
ATOM      9  N   UNL     1      43.318   2.558  12.085  0.00  0.00    +0.000 NA
ATOM     10  H   UNL     1      44.491   1.505  10.245  0.00  0.00    +0.000 HD
ATOM     11  H   UNL     1      45.816   2.548  10.186  0.00  0.00    +0.000 HD
BRANCH   9  12
ATOM     12  O   UNL     1      42.931   1.322  11.540  0.00  0.00    +0.000 OA
ATOM     13  H   UNL     1      43.179   0.702  12.251  0.00  0.00    +0.000 HD
ENDBRANCH   9  12
ENDBRANCH   1   8
BRANCH   4  14
ATOM     14  C   UNL     1      46.425   8.225  13.064  0.00  0.00    +0.000 C 
BRANCH  14  15
ATOM     15  N   UNL     1      46.799   9.150  11.970  0.00  0.00    +0.000 NA
ATOM     16  C   UNL     1      45.916  10.333  11.968  0.00  0.00    +0.000 C 
ATOM     17  C   UNL     1      46.394  11.461  11.049  0.00  0.00    +0.000 C 
ATOM     18  C   UNL     1      47.832  11.843  11.357  0.00  0.00    +0.000 C 
ATOM     19  C   UNL     1      48.710  10.611  11.207  0.00  0.00    +0.000 C 
ATOM     20  C   UNL     1      48.225   9.488  12.123  0.00  0.00    +0.000 C 
ENDBRANCH  14  15
ENDBRANCH   4  14
TORSDOF 4
ENDMDL
MODEL 7
REMARK VINA RESULT:    -5.629      5.368      8.497
REMARK INTER + INTRA:          -6.791
REMARK INTER:                  -6.509
REMARK INTRA:                  -0.282
REMARK UNBOUND:                -0.010
REMARK  Name = 
REMARK  4 active torsions:
REMARK  status: ('A' for Active; 'I' for Inactive)
REMARK    1  A    between atoms: C_2  and  C_5
REMARK    2  A    between atoms: N_3  and  O_4
REMARK    3  A    between atoms: C_8  and  C_9
REMARK    4  A    between atoms: C_9  and  N_10
REMARK                            x       y       z     vdW  Elec       q    Type
REMARK                         _______ _______ _______ _____ _____    ______ ____
ROOT
ATOM      1  C   UNL     1      48.554   4.362  17.253  0.00  0.00    +0.000 A 
ATOM      2  C   UNL     1      48.705   5.587  16.596  0.00  0.00    +0.000 A 
ATOM      3  C   UNL     1      48.113   5.790  15.352  0.00  0.00    +0.000 A 
ATOM      4  C   UNL     1      47.357   4.772  14.747  0.00  0.00    +0.000 A 
ATOM      5  C   UNL     1      47.211   3.543  15.414  0.00  0.00    +0.000 A 
ATOM      6  C   UNL     1      47.814   3.336  16.660  0.00  0.00    +0.000 A 
ENDROOT
BRANCH   1   8
ATOM      7  N   UNL     1      48.474   3.560  19.588  0.00  0.00    +0.000 N 
ATOM      8  C   UNL     1      49.199   4.162  18.584  0.00  0.00    +0.000 C 
ATOM      9  N   UNL     1      50.427   4.561  18.758  0.00  0.00    +0.000 NA
ATOM     10  H   UNL     1      49.099   3.306  20.349  0.00  0.00    +0.000 HD
ATOM     11  H   UNL     1      47.895   2.785  19.288  0.00  0.00    +0.000 HD
BRANCH   9  12
ATOM     12  O   UNL     1      50.856   4.296  20.070  0.00  0.00    +0.000 OA
ATOM     13  H   UNL     1      50.333   3.505  20.297  0.00  0.00    +0.000 HD
ENDBRANCH   9  12
ENDBRANCH   1   8
BRANCH   4  14
ATOM     14  C   UNL     1      46.689   5.017  13.411  0.00  0.00    +0.000 C 
BRANCH  14  15
ATOM     15  N   UNL     1      45.284   4.557  13.331  0.00  0.00    +0.000 NA
ATOM     16  C   UNL     1      44.392   5.678  12.976  0.00  0.00    +0.000 C 
ATOM     17  C   UNL     1      42.969   5.246  12.610  0.00  0.00    +0.000 C 
ATOM     18  C   UNL     1      42.984   4.183  11.523  0.00  0.00    +0.000 C 
ATOM     19  C   UNL     1      43.805   2.998  12.008  0.00  0.00    +0.000 C 
ATOM     20  C   UNL     1      45.222   3.437  12.375  0.00  0.00    +0.000 C 
ENDBRANCH  14  15
ENDBRANCH   4  14
TORSDOF 4
ENDMDL
MODEL 8
REMARK VINA RESULT:    -5.458      3.922      5.891
REMARK INTER + INTRA:          -6.585
REMARK INTER:                  -6.259
REMARK INTRA:                  -0.326
REMARK UNBOUND:                -0.010
REMARK  Name = 
REMARK  4 active torsions:
REMARK  status: ('A' for Active; 'I' for Inactive)
REMARK    1  A    between atoms: C_2  and  C_5
REMARK    2  A    between atoms: N_3  and  O_4
REMARK    3  A    between atoms: C_8  and  C_9
REMARK    4  A    between atoms: C_9  and  N_10
REMARK                            x       y       z     vdW  Elec       q    Type
REMARK                         _______ _______ _______ _____ _____    ______ ____
ROOT
ATOM      1  C   UNL     1      45.418   4.599  12.038  0.00  0.00    +0.000 A 
ATOM      2  C   UNL     1      46.076   4.370  13.251  0.00  0.00    +0.000 A 
ATOM      3  C   UNL     1      47.055   5.255  13.693  0.00  0.00    +0.000 A 
ATOM      4  C   UNL     1      47.390   6.387  12.931  0.00  0.00    +0.000 A 
ATOM      5  C   UNL     1      46.725   6.609  11.712  0.00  0.00    +0.000 A 
ATOM      6  C   UNL     1      45.747   5.713  11.263  0.00  0.00    +0.000 A 
ENDROOT
BRANCH   1   8
ATOM      7  N   UNL     1      43.977   3.668  10.261  0.00  0.00    +0.000 N 
ATOM      8  C   UNL     1      44.374   3.635  11.579  0.00  0.00    +0.000 C 
ATOM      9  N   UNL     1      43.871   2.794  12.436  0.00  0.00    +0.000 NA
ATOM     10  H   UNL     1      43.431   2.835  10.054  0.00  0.00    +0.000 HD
ATOM     11  H   UNL     1      44.726   3.815   9.595  0.00  0.00    +0.000 HD
BRANCH   9  12
ATOM     12  O   UNL     1      42.903   1.979  11.823  0.00  0.00    +0.000 OA
ATOM     13  H   UNL     1      43.274   1.088  11.960  0.00  0.00    +0.000 HD
ENDBRANCH   9  12
ENDBRANCH   1   8
BRANCH   4  14
ATOM     14  C   UNL     1      48.431   7.361  13.439  0.00  0.00    +0.000 C 
BRANCH  14  15
ATOM     15  N   UNL     1      48.462   7.519  14.910  0.00  0.00    +0.000 NA
ATOM     16  C   UNL     1      49.764   7.081  15.451  0.00  0.00    +0.000 C 
ATOM     17  C   UNL     1      49.983   7.456  16.919  0.00  0.00    +0.000 C 
ATOM     18  C   UNL     1      49.762   8.943  17.141  0.00  0.00    +0.000 C 
ATOM     19  C   UNL     1      48.354   9.302  16.693  0.00  0.00    +0.000 C 
ATOM     20  C   UNL     1      48.141   8.921  15.228  0.00  0.00    +0.000 C 
ENDBRANCH  14  15
ENDBRANCH   4  14
TORSDOF 4
ENDMDL
MODEL 9
REMARK VINA RESULT:    -5.443      4.045      6.880
REMARK INTER + INTRA:          -6.566
REMARK INTER:                  -6.219
REMARK INTRA:                  -0.348
REMARK UNBOUND:                -0.010
REMARK  Name = 
REMARK  4 active torsions:
REMARK  status: ('A' for Active; 'I' for Inactive)
REMARK    1  A    between atoms: C_2  and  C_5
REMARK    2  A    between atoms: N_3  and  O_4
REMARK    3  A    between atoms: C_8  and  C_9
REMARK    4  A    between atoms: C_9  and  N_10
REMARK                            x       y       z     vdW  Elec       q    Type
REMARK                         _______ _______ _______ _____ _____    ______ ____
ROOT
ATOM      1  C   UNL     1      47.354   7.517  13.684  0.00  0.00    +0.000 A 
ATOM      2  C   UNL     1      47.483   6.124  13.688  0.00  0.00    +0.000 A 
ATOM      3  C   UNL     1      46.558   5.334  13.009  0.00  0.00    +0.000 A 
ATOM      4  C   UNL     1      45.490   5.926  12.314  0.00  0.00    +0.000 A 
ATOM      5  C   UNL     1      45.367   7.327  12.316  0.00  0.00    +0.000 A 
ATOM      6  C   UNL     1      46.292   8.119  13.006  0.00  0.00    +0.000 A 
ENDROOT
BRANCH   1   8
ATOM      7  N   UNL     1      47.931   9.503  15.034  0.00  0.00    +0.000 N 
ATOM      8  C   UNL     1      48.354   8.345  14.421  0.00  0.00    +0.000 C 
ATOM      9  N   UNL     1      49.594   7.950  14.463  0.00  0.00    +0.000 NA
ATOM     10  H   UNL     1      48.660   9.839  15.657  0.00  0.00    +0.000 HD
ATOM     11  H   UNL     1      47.029   9.437  15.492  0.00  0.00    +0.000 HD
BRANCH   9  12
ATOM     12  O   UNL     1      50.382   8.859  15.190  0.00  0.00    +0.000 OA
ATOM     13  H   UNL     1      49.905   9.698  15.048  0.00  0.00    +0.000 HD
ENDBRANCH   9  12
ENDBRANCH   1   8
BRANCH   4  14
ATOM     14  C   UNL     1      44.511   5.060  11.551  0.00  0.00    +0.000 C 
BRANCH  14  15
ATOM     15  N   UNL     1      45.131   4.168  10.545  0.00  0.00    +0.000 NA
ATOM     16  C   UNL     1      44.226   3.049  10.218  0.00  0.00    +0.000 C 
ATOM     17  C   UNL     1      44.667   2.232   9.000  0.00  0.00    +0.000 C 
ATOM     18  C   UNL     1      44.897   3.130   7.795  0.00  0.00    +0.000 C 
ATOM     19  C   UNL     1      45.941   4.175   8.155  0.00  0.00    +0.000 C 
ATOM     20  C   UNL     1      45.497   4.983   9.373  0.00  0.00    +0.000 C 
ENDBRANCH  14  15
ENDBRANCH   4  14
TORSDOF 4
ENDMDL
