MODEL 1
REMARK VINA RESULT:    -7.355      0.000      0.000
REMARK INTER + INTRA:          -9.169
REMARK INTER:                  -8.645
REMARK INTRA:                  -0.524
REMARK UNBOUND:                -0.524
REMARK  Name = 
REMARK  3 active torsions:
REMARK  status: ('A' for Active; 'I' for Inactive)
REMARK    1  A    between atoms: C_3  and  N_4
REMARK    2  A    between atoms: N_4  and  C_5
REMARK    3  A    between atoms: C_5  and  C_6
REMARK                            x       y       z     vdW  Elec       q    Type
REMARK                         _______ _______ _______ _____ _____    ______ ____
ROOT
ATOM      1  C   UNL     1      44.944   4.585  10.586  0.00  0.00    +0.000 A 
ATOM      2  C   UNL     1      44.742   3.550  11.493  0.00  0.00    +0.000 A 
ATOM      3  C   UNL     1      45.355   3.644  12.731  0.00  0.00    +0.000 A 
ATOM      4  N   UNL     1      46.136   4.681  13.115  0.00  0.00    +0.000 NA
ATOM      5  C   UNL     1      46.317   5.709  12.260  0.00  0.00    +0.000 A 
ATOM      6  N   UNL     1      47.192   6.714  12.592  0.00  0.00    +0.000 N 
ATOM      7  C   UNL     1      47.024   8.099  12.138  0.00  0.00    +0.000 C 
ATOM      8  C   UNL     1      48.416   8.710  11.915  0.00  0.00    +0.000 C 
ATOM      9  O   UNL     1      49.228   8.632  13.100  0.00  0.00    +0.000 OA
ATOM     10  C   UNL     1      49.368   7.265  13.532  0.00  0.00    +0.000 C 
ATOM     11  C   UNL     1      48.000   6.613  13.817  0.00  0.00    +0.000 C 
ATOM     12  C   UNL     1      45.713   5.679  11.002  0.00  0.00    +0.000 A 
ENDROOT
BRANCH   1  13
ATOM     13  C   UNL     1      44.440   4.531   9.165  0.00  0.00    +0.000 C 
BRANCH  13  14
ATOM     14  N   UNL     1      44.454   3.172   8.654  0.00  0.00    +0.000 N 
ATOM     15  H   UNL     1      43.961   2.503   9.239  0.00  0.00    +0.000 HD
BRANCH  14  18
ATOM     16  C   UNL     1      47.613   2.709   6.751  0.00  0.00    +0.000 A 
ATOM     17  C   UNL     1      46.519   3.360   7.308  0.00  0.00    +0.000 A 
ATOM     18  C   UNL     1      45.623   2.637   8.098  0.00  0.00    +0.000 A 
ATOM     19  C   UNL     1      45.863   1.268   8.242  0.00  0.00    +0.000 A 
ATOM     20  C   UNL     1      46.974   0.700   7.636  0.00  0.00    +0.000 A 
ATOM     21  N   UNL     1      47.864   1.394   6.899  0.00  0.00    +0.000 NA
ENDBRANCH  14  18
ENDBRANCH  13  14
ENDBRANCH   1  13
TORSDOF 3
ENDMDL
MODEL 2
REMARK VINA RESULT:    -7.028      1.307      1.504
REMARK INTER + INTRA:          -8.785
REMARK INTER:                  -8.266
REMARK INTRA:                  -0.519
REMARK UNBOUND:                -0.524
REMARK  Name = 
REMARK  3 active torsions:
REMARK  status: ('A' for Active; 'I' for Inactive)
REMARK    1  A    between atoms: C_3  and  N_4
REMARK    2  A    between atoms: N_4  and  C_5
REMARK    3  A    between atoms: C_5  and  C_6
REMARK                            x       y       z     vdW  Elec       q    Type
REMARK                         _______ _______ _______ _____ _____    ______ ____
ROOT
ATOM      1  C   UNL     1      44.583   4.694  11.559  0.00  0.00    +0.000 A 
ATOM      2  C   UNL     1      45.190   3.740  12.367  0.00  0.00    +0.000 A 
ATOM      3  C   UNL     1      46.124   4.173  13.293  0.00  0.00    +0.000 A 
ATOM      4  N   UNL     1      46.481   5.468  13.462  0.00  0.00    +0.000 NA
ATOM      5  C   UNL     1      45.880   6.412  12.708  0.00  0.00    +0.000 A 
ATOM      6  N   UNL     1      46.309   7.713  12.790  0.00  0.00    +0.000 N 
ATOM      7  C   UNL     1      45.421   8.860  12.572  0.00  0.00    +0.000 C 
ATOM      8  C   UNL     1      46.233   9.985  11.910  0.00  0.00    +0.000 C 
ATOM      9  O   UNL     1      47.383  10.344  12.696  0.00  0.00    +0.000 OA
ATOM     10  C   UNL     1      48.233   9.199  12.908  0.00  0.00    +0.000 C 
ATOM     11  C   UNL     1      47.481   8.053  13.612  0.00  0.00    +0.000 C 
ATOM     12  C   UNL     1      44.920   6.038  11.766  0.00  0.00    +0.000 A 
ENDROOT
BRANCH   1  13
ATOM     13  C   UNL     1      43.654   4.329  10.427  0.00  0.00    +0.000 C 
BRANCH  13  14
ATOM     14  N   UNL     1      44.271   4.582   9.138  0.00  0.00    +0.000 N 
ATOM     15  H   UNL     1      43.631   4.943   8.435  0.00  0.00    +0.000 HD
BRANCH  14  18
ATOM     16  C   UNL     1      47.009   3.018   7.170  0.00  0.00    +0.000 A 
ATOM     17  C   UNL     1      46.187   4.014   7.684  0.00  0.00    +0.000 A 
ATOM     18  C   UNL     1      45.195   3.675   8.605  0.00  0.00    +0.000 A 
ATOM     19  C   UNL     1      45.056   2.320   8.920  0.00  0.00    +0.000 A 
ATOM     20  C   UNL     1      45.913   1.392   8.346  0.00  0.00    +0.000 A 
ATOM     21  N   UNL     1      46.896   1.713   7.481  0.00  0.00    +0.000 NA
ENDBRANCH  14  18
ENDBRANCH  13  14
ENDBRANCH   1  13
TORSDOF 3
ENDMDL
MODEL 3
REMARK VINA RESULT:    -6.766      2.453      3.569
REMARK INTER + INTRA:          -8.477
REMARK INTER:                  -7.951
REMARK INTRA:                  -0.526
REMARK UNBOUND:                -0.524
REMARK  Name = 
REMARK  3 active torsions:
REMARK  status: ('A' for Active; 'I' for Inactive)
REMARK    1  A    between atoms: C_3  and  N_4
REMARK    2  A    between atoms: N_4  and  C_5
REMARK    3  A    between atoms: C_5  and  C_6
REMARK                            x       y       z     vdW  Elec       q    Type
REMARK                         _______ _______ _______ _____ _____    ______ ____
ROOT
ATOM      1  C   UNL     1      45.538   5.456  11.996  0.00  0.00    +0.000 A 
ATOM      2  C   UNL     1      46.214   6.525  11.419  0.00  0.00    +0.000 A 
ATOM      3  C   UNL     1      47.319   7.030  12.086  0.00  0.00    +0.000 A 
ATOM      4  N   UNL     1      47.783   6.545  13.262  0.00  0.00    +0.000 NA
ATOM      5  C   UNL     1      47.158   5.488  13.820  0.00  0.00    +0.000 A 
ATOM      6  N   UNL     1      47.548   5.055  15.064  0.00  0.00    +0.000 N 
ATOM      7  C   UNL     1      47.447   3.654  15.488  0.00  0.00    +0.000 C 
ATOM      8  C   UNL     1      47.128   3.624  16.991  0.00  0.00    +0.000 C 
ATOM      9  O   UNL     1      48.109   4.343  17.758  0.00  0.00    +0.000 OA
ATOM     10  C   UNL     1      48.198   5.712  17.315  0.00  0.00    +0.000 C 
ATOM     11  C   UNL     1      48.563   5.805  15.820  0.00  0.00    +0.000 C 
ATOM     12  C   UNL     1      46.047   4.926  13.188  0.00  0.00    +0.000 A 
ENDROOT
BRANCH   1  13
ATOM     13  C   UNL     1      44.249   4.911  11.433  0.00  0.00    +0.000 C 
BRANCH  13  14
ATOM     14  N   UNL     1      44.242   4.969   9.983  0.00  0.00    +0.000 N 
ATOM     15  H   UNL     1      43.348   5.240   9.582  0.00  0.00    +0.000 HD
BRANCH  14  18
ATOM     16  C   UNL     1      45.571   1.724   8.749  0.00  0.00    +0.000 A 
ATOM     17  C   UNL     1      44.836   2.614   9.524  0.00  0.00    +0.000 A 
ATOM     18  C   UNL     1      44.887   3.978   9.232  0.00  0.00    +0.000 A 
ATOM     19  C   UNL     1      45.730   4.375   8.191  0.00  0.00    +0.000 A 
ATOM     20  C   UNL     1      46.439   3.417   7.480  0.00  0.00    +0.000 A 
ATOM     21  N   UNL     1      46.371   2.094   7.731  0.00  0.00    +0.000 NA
ENDBRANCH  14  18
ENDBRANCH  13  14
ENDBRANCH   1  13
TORSDOF 3
ENDMDL
MODEL 4
REMARK VINA RESULT:    -6.681      1.321      1.985
REMARK INTER + INTRA:          -8.376
REMARK INTER:                  -7.780
REMARK INTRA:                  -0.596
REMARK UNBOUND:                -0.524
REMARK  Name = 
REMARK  3 active torsions:
REMARK  status: ('A' for Active; 'I' for Inactive)
REMARK    1  A    between atoms: C_3  and  N_4
REMARK    2  A    between atoms: N_4  and  C_5
REMARK    3  A    between atoms: C_5  and  C_6
REMARK                            x       y       z     vdW  Elec       q    Type
REMARK                         _______ _______ _______ _____ _____    ______ ____
ROOT
ATOM      1  C   UNL     1      45.033   4.892  12.237  0.00  0.00    +0.000 A 
ATOM      2  C   UNL     1      45.561   3.793  12.906  0.00  0.00    +0.000 A 
ATOM      3  C   UNL     1      46.801   3.934  13.508  0.00  0.00    +0.000 A 
ATOM      4  N   UNL     1      47.529   5.075  13.488  0.00  0.00    +0.000 NA
ATOM      5  C   UNL     1      47.019   6.160  12.870  0.00  0.00    +0.000 A 
ATOM      6  N   UNL     1      47.791   7.289  12.747  0.00  0.00    +0.000 N 
ATOM      7  C   UNL     1      47.223   8.642  12.709  0.00  0.00    +0.000 C 
ATOM      8  C   UNL     1      48.088   9.506  11.778  0.00  0.00    +0.000 C 
ATOM      9  O   UNL     1      49.466   9.517  12.191  0.00  0.00    +0.000 OA
ATOM     10  C   UNL     1      49.996   8.178  12.232  0.00  0.00    +0.000 C 
ATOM     11  C   UNL     1      49.193   7.275  13.189  0.00  0.00    +0.000 C 
ATOM     12  C   UNL     1      45.767   6.084  12.257  0.00  0.00    +0.000 A 
ENDROOT
BRANCH   1  13
ATOM     13  C   UNL     1      43.759   4.818  11.433  0.00  0.00    +0.000 C 
BRANCH  13  14
ATOM     14  N   UNL     1      44.022   4.979  10.014  0.00  0.00    +0.000 N 
ATOM     15  H   UNL     1      43.248   5.381   9.491  0.00  0.00    +0.000 HD
BRANCH  14  18
ATOM     16  C   UNL     1      45.285   1.702   8.799  0.00  0.00    +0.000 A 
ATOM     17  C   UNL     1      44.521   2.609   9.523  0.00  0.00    +0.000 A 
ATOM     18  C   UNL     1      44.689   3.977   9.300  0.00  0.00    +0.000 A 
ATOM     19  C   UNL     1      45.671   4.355   8.380  0.00  0.00    +0.000 A 
ATOM     20  C   UNL     1      46.398   3.379   7.714  0.00  0.00    +0.000 A 
ATOM     21  N   UNL     1      46.221   2.056   7.897  0.00  0.00    +0.000 NA
ENDBRANCH  14  18
ENDBRANCH  13  14
ENDBRANCH   1  13
TORSDOF 3
ENDMDL
MODEL 5
REMARK VINA RESULT:    -6.229      2.641      4.226
REMARK INTER + INTRA:          -7.845
REMARK INTER:                  -7.392
REMARK INTRA:                  -0.453
REMARK UNBOUND:                -0.524
REMARK  Name = 
REMARK  3 active torsions:
REMARK  status: ('A' for Active; 'I' for Inactive)
REMARK    1  A    between atoms: C_3  and  N_4
REMARK    2  A    between atoms: N_4  and  C_5
REMARK    3  A    between atoms: C_5  and  C_6
REMARK                            x       y       z     vdW  Elec       q    Type
REMARK                         _______ _______ _______ _____ _____    ______ ____
ROOT
ATOM      1  C   UNL     1      46.692   6.479  12.394  0.00  0.00    +0.000 A 
ATOM      2  C   UNL     1      47.754   7.191  11.847  0.00  0.00    +0.000 A 
ATOM      3  C   UNL     1      48.913   7.305  12.597  0.00  0.00    +0.000 A 
ATOM      4  N   UNL     1      49.077   6.765  13.827  0.00  0.00    +0.000 NA
ATOM      5  C   UNL     1      48.069   6.044  14.360  0.00  0.00    +0.000 A 
ATOM      6  N   UNL     1      48.179   5.582  15.649  0.00  0.00    +0.000 N 
ATOM      7  C   UNL     1      47.542   4.343  16.109  0.00  0.00    +0.000 C 
ATOM      8  C   UNL     1      47.121   4.529  17.575  0.00  0.00    +0.000 C 
ATOM      9  O   UNL     1      48.237   4.894  18.407  0.00  0.00    +0.000 OA
ATOM     10  C   UNL     1      48.853   6.106  17.928  0.00  0.00    +0.000 C 
ATOM     11  C   UNL     1      49.338   5.963  16.471  0.00  0.00    +0.000 C 
ATOM     12  C   UNL     1      46.880   5.881  13.646  0.00  0.00    +0.000 A 
ENDROOT
BRANCH   1  13
ATOM     13  C   UNL     1      45.339   6.401  11.731  0.00  0.00    +0.000 C 
BRANCH  13  14
ATOM     14  N   UNL     1      45.461   6.062  10.325  0.00  0.00    +0.000 N 
ATOM     15  H   UNL     1      45.143   6.792   9.692  0.00  0.00    +0.000 HD
BRANCH  14  18
ATOM     16  C   UNL     1      44.285   2.542  10.134  0.00  0.00    +0.000 A 
ATOM     17  C   UNL     1      44.512   3.805  10.666  0.00  0.00    +0.000 A 
ATOM     18  C   UNL     1      45.124   4.780   9.875  0.00  0.00    +0.000 A 
ATOM     19  C   UNL     1      45.521   4.399   8.590  0.00  0.00    +0.000 A 
ATOM     20  C   UNL     1      45.266   3.109   8.148  0.00  0.00    +0.000 A 
ATOM     21  N   UNL     1      44.647   2.170   8.891  0.00  0.00    +0.000 NA
ENDBRANCH  14  18
ENDBRANCH  13  14
ENDBRANCH   1  13
TORSDOF 3
ENDMDL
MODEL 6
REMARK VINA RESULT:    -5.898      3.536      7.235
REMARK INTER + INTRA:          -7.456
REMARK INTER:                  -6.981
REMARK INTRA:                  -0.475
REMARK UNBOUND:                -0.524
REMARK  Name = 
REMARK  3 active torsions:
REMARK  status: ('A' for Active; 'I' for Inactive)
REMARK    1  A    between atoms: C_3  and  N_4
REMARK    2  A    between atoms: N_4  and  C_5
REMARK    3  A    between atoms: C_5  and  C_6
REMARK                            x       y       z     vdW  Elec       q    Type
REMARK                         _______ _______ _______ _____ _____    ______ ____
ROOT
ATOM      1  C   UNL     1      47.715   6.604  13.713  0.00  0.00    +0.000 A 
ATOM      2  C   UNL     1      48.259   7.377  12.693  0.00  0.00    +0.000 A 
ATOM      3  C   UNL     1      47.681   7.292  11.437  0.00  0.00    +0.000 A 
ATOM      4  N   UNL     1      46.618   6.506  11.142  0.00  0.00    +0.000 NA
ATOM      5  C   UNL     1      46.058   5.774  12.127  0.00  0.00    +0.000 A 
ATOM      6  N   UNL     1      45.052   4.891  11.821  0.00  0.00    +0.000 N 
ATOM      7  C   UNL     1      43.982   4.545  12.763  0.00  0.00    +0.000 C 
ATOM      8  C   UNL     1      43.593   3.075  12.537  0.00  0.00    +0.000 C 
ATOM      9  O   UNL     1      43.202   2.832  11.174  0.00  0.00    +0.000 OA
ATOM     10  C   UNL     1      44.264   3.191  10.268  0.00  0.00    +0.000 C 
ATOM     11  C   UNL     1      44.665   4.672  10.419  0.00  0.00    +0.000 C 
ATOM     12  C   UNL     1      46.588   5.828  13.418  0.00  0.00    +0.000 A 
ENDROOT
BRANCH   1  13
ATOM     13  C   UNL     1      48.341   6.512  15.083  0.00  0.00    +0.000 C 
BRANCH  13  14
ATOM     14  N   UNL     1      47.670   5.519  15.902  0.00  0.00    +0.000 N 
ATOM     15  H   UNL     1      46.955   5.901  16.516  0.00  0.00    +0.000 HD
BRANCH  14  18
ATOM     16  C   UNL     1      50.223   3.587  17.788  0.00  0.00    +0.000 A 
ATOM     17  C   UNL     1      49.536   4.688  17.293  0.00  0.00    +0.000 A 
ATOM     18  C   UNL     1      48.400   4.489  16.506  0.00  0.00    +0.000 A 
ATOM     19  C   UNL     1      48.049   3.166  16.220  0.00  0.00    +0.000 A 
ATOM     20  C   UNL     1      48.804   2.128  16.745  0.00  0.00    +0.000 A 
ATOM     21  N   UNL     1      49.882   2.309  17.534  0.00  0.00    +0.000 NA
ENDBRANCH  14  18
ENDBRANCH  13  14
ENDBRANCH   1  13
TORSDOF 3
ENDMDL
MODEL 7
REMARK VINA RESULT:    -5.786      3.778      7.990
REMARK INTER + INTRA:          -7.325
REMARK INTER:                  -7.000
REMARK INTRA:                  -0.325
REMARK UNBOUND:                -0.524
REMARK  Name = 
REMARK  3 active torsions:
REMARK  status: ('A' for Active; 'I' for Inactive)
REMARK    1  A    between atoms: C_3  and  N_4
REMARK    2  A    between atoms: N_4  and  C_5
REMARK    3  A    between atoms: C_5  and  C_6
REMARK                            x       y       z     vdW  Elec       q    Type
REMARK                         _______ _______ _______ _____ _____    ______ ____
ROOT
ATOM      1  C   UNL     1      47.769   6.420  13.784  0.00  0.00    +0.000 A 
ATOM      2  C   UNL     1      48.324   7.252  12.817  0.00  0.00    +0.000 A 
ATOM      3  C   UNL     1      47.745   7.260  11.559  0.00  0.00    +0.000 A 
ATOM      4  N   UNL     1      46.671   6.512  11.212  0.00  0.00    +0.000 NA
ATOM      5  C   UNL     1      46.100   5.723  12.146  0.00  0.00    +0.000 A 
ATOM      6  N   UNL     1      45.082   4.878  11.781  0.00  0.00    +0.000 N 
ATOM      7  C   UNL     1      44.006   4.484  12.699  0.00  0.00    +0.000 C 
ATOM      8  C   UNL     1      43.596   3.039  12.373  0.00  0.00    +0.000 C 
ATOM      9  O   UNL     1      43.202   2.895  10.997  0.00  0.00    +0.000 OA
ATOM     10  C   UNL     1      44.269   3.299  10.117  0.00  0.00    +0.000 C 
ATOM     11  C   UNL     1      44.692   4.760  10.368  0.00  0.00    +0.000 C 
ATOM     12  C   UNL     1      46.630   5.682  13.437  0.00  0.00    +0.000 A 
ENDROOT
BRANCH   1  13
ATOM     13  C   UNL     1      48.392   6.226  15.144  0.00  0.00    +0.000 C 
BRANCH  13  14
ATOM     14  N   UNL     1      47.596   5.331  15.965  0.00  0.00    +0.000 N 
ATOM     15  H   UNL     1      46.596   5.509  15.922  0.00  0.00    +0.000 HD
BRANCH  14  18
ATOM     16  C   UNL     1      48.693   3.440  18.970  0.00  0.00    +0.000 A 
ATOM     17  C   UNL     1      48.344   3.683  17.647  0.00  0.00    +0.000 A 
ATOM     18  C   UNL     1      48.024   4.983  17.251  0.00  0.00    +0.000 A 
ATOM     19  C   UNL     1      48.026   5.968  18.242  0.00  0.00    +0.000 A 
ATOM     20  C   UNL     1      48.373   5.631  19.543  0.00  0.00    +0.000 A 
ATOM     21  N   UNL     1      48.717   4.386  19.929  0.00  0.00    +0.000 NA
ENDBRANCH  14  18
ENDBRANCH  13  14
ENDBRANCH   1  13
TORSDOF 3
ENDMDL
MODEL 8
REMARK VINA RESULT:    -5.376      3.712      5.613
REMARK INTER + INTRA:          -6.842
REMARK INTER:                  -6.371
REMARK INTRA:                  -0.471
REMARK UNBOUND:                -0.524
REMARK  Name = 
REMARK  3 active torsions:
REMARK  status: ('A' for Active; 'I' for Inactive)
REMARK    1  A    between atoms: C_3  and  N_4
REMARK    2  A    between atoms: N_4  and  C_5
REMARK    3  A    between atoms: C_5  and  C_6
REMARK                            x       y       z     vdW  Elec       q    Type
REMARK                         _______ _______ _______ _____ _____    ______ ____
ROOT
ATOM      1  C   UNL     1      48.085   6.942  12.895  0.00  0.00    +0.000 A 
ATOM      2  C   UNL     1      49.189   7.758  12.672  0.00  0.00    +0.000 A 
ATOM      3  C   UNL     1      50.089   7.930  13.711  0.00  0.00    +0.000 A 
ATOM      4  N   UNL     1      49.963   7.352  14.928  0.00  0.00    +0.000 NA
ATOM      5  C   UNL     1      48.914   6.532  15.152  0.00  0.00    +0.000 A 
ATOM      6  N   UNL     1      48.713   6.027  16.413  0.00  0.00    +0.000 N 
ATOM      7  C   UNL     1      48.085   4.723  16.657  0.00  0.00    +0.000 C 
ATOM      8  C   UNL     1      47.271   4.813  17.958  0.00  0.00    +0.000 C 
ATOM      9  O   UNL     1      48.086   5.228  19.068  0.00  0.00    +0.000 OA
ATOM     10  C   UNL     1      48.701   6.503  18.799  0.00  0.00    +0.000 C 
ATOM     11  C   UNL     1      49.570   6.461  17.527  0.00  0.00    +0.000 C 
ATOM     12  C   UNL     1      47.981   6.308  14.139  0.00  0.00    +0.000 A 
ENDROOT
BRANCH   1  13
ATOM     13  C   UNL     1      46.972   6.788  11.888  0.00  0.00    +0.000 C 
BRANCH  13  14
ATOM     14  N   UNL     1      45.683   6.670  12.543  0.00  0.00    +0.000 N 
ATOM     15  H   UNL     1      45.700   6.889  13.536  0.00  0.00    +0.000 HD
BRANCH  14  18
ATOM     16  C   UNL     1      44.253   3.269  12.095  0.00  0.00    +0.000 A 
ATOM     17  C   UNL     1      45.144   4.258  12.492  0.00  0.00    +0.000 A 
ATOM     18  C   UNL     1      44.833   5.597  12.247  0.00  0.00    +0.000 A 
ATOM     19  C   UNL     1      43.645   5.858  11.559  0.00  0.00    +0.000 A 
ATOM     20  C   UNL     1      42.823   4.805  11.187  0.00  0.00    +0.000 A 
ATOM     21  N   UNL     1      43.096   3.511  11.449  0.00  0.00    +0.000 NA
ENDBRANCH  14  18
ENDBRANCH  13  14
ENDBRANCH   1  13
TORSDOF 3
ENDMDL
MODEL 9
REMARK VINA RESULT:    -5.277      4.296      6.605
REMARK INTER + INTRA:          -6.726
REMARK INTER:                  -6.225
REMARK INTRA:                  -0.501
REMARK UNBOUND:                -0.524
REMARK  Name = 
REMARK  3 active torsions:
REMARK  status: ('A' for Active; 'I' for Inactive)
REMARK    1  A    between atoms: C_3  and  N_4
REMARK    2  A    between atoms: N_4  and  C_5
REMARK    3  A    between atoms: C_5  and  C_6
REMARK                            x       y       z     vdW  Elec       q    Type
REMARK                         _______ _______ _______ _____ _____    ______ ____
ROOT
ATOM      1  C   UNL     1      46.012   8.922  12.378  0.00  0.00    +0.000 A 
ATOM      2  C   UNL     1      47.148   9.719  12.282  0.00  0.00    +0.000 A 
ATOM      3  C   UNL     1      47.007  10.985  11.739  0.00  0.00    +0.000 A 
ATOM      4  N   UNL     1      45.834  11.497  11.298  0.00  0.00    +0.000 NA
ATOM      5  C   UNL     1      44.716  10.749  11.412  0.00  0.00    +0.000 A 
ATOM      6  N   UNL     1      43.541  11.210  10.870  0.00  0.00    +0.000 N 
ATOM      7  C   UNL     1      42.224  10.880  11.428  0.00  0.00    +0.000 C 
ATOM      8  C   UNL     1      41.220  10.772  10.271  0.00  0.00    +0.000 C 
ATOM      9  O   UNL     1      41.180  11.978   9.487  0.00  0.00    +0.000 OA
ATOM     10  C   UNL     1      42.486  12.286   8.961  0.00  0.00    +0.000 C 
ATOM     11  C   UNL     1      43.528  12.452  10.084  0.00  0.00    +0.000 C 
ATOM     12  C   UNL     1      44.791   9.470  11.965  0.00  0.00    +0.000 A 
ENDROOT
BRANCH   1  13
ATOM     13  C   UNL     1      46.065   7.483  12.827  0.00  0.00    +0.000 C 
BRANCH  13  14
ATOM     14  N   UNL     1      44.733   6.953  13.054  0.00  0.00    +0.000 N 
ATOM     15  H   UNL     1      44.462   6.914  14.033  0.00  0.00    +0.000 HD
BRANCH  14  18
ATOM     16  C   UNL     1      43.182   3.720  12.077  0.00  0.00    +0.000 A 
ATOM     17  C   UNL     1      43.521   4.806  12.874  0.00  0.00    +0.000 A 
ATOM     18  C   UNL     1      44.279   5.845  12.329  0.00  0.00    +0.000 A 
ATOM     19  C   UNL     1      44.697   5.698  11.004  0.00  0.00    +0.000 A 
ATOM     20  C   UNL     1      44.323   4.570  10.287  0.00  0.00    +0.000 A 
ATOM     21  N   UNL     1      43.564   3.578  10.793  0.00  0.00    +0.000 NA
ENDBRANCH  14  18
ENDBRANCH  13  14
ENDBRANCH   1  13
TORSDOF 3
ENDMDL
