MODEL 1
REMARK VINA RESULT:    -7.995      0.000      0.000
REMARK INTER + INTRA:         -12.683
REMARK INTER:                 -11.734
REMARK INTRA:                  -0.950
REMARK UNBOUND:                -0.950
REMARK  Name = 
REMARK  9 active torsions:
REMARK  status: ('A' for Active; 'I' for Inactive)
REMARK    1  A    between atoms: C_1  and  N_2
REMARK    2  A    between atoms: N_2  and  C_3
REMARK    3  A    between atoms: C_3  and  C_4
REMARK    4  A    between atoms: C_4  and  N_5
REMARK    5  A    between atoms: N_5  and  C_6
REMARK    6  A    between atoms: C_6  and  C_7
REMARK    7  A    between atoms: C_11  and  C_12
REMARK    8  A    between atoms: C_12  and  C_13
REMARK    9  A    between atoms: C_20  and  C_22
REMARK                            x       y       z     vdW  Elec       q    Type
REMARK                         _______ _______ _______ _____ _____    ______ ____
ROOT
ATOM      1  N   UNL     1      47.139   6.149  13.105  0.00  0.00    +0.000 N 
ATOM      2  C   UNL     1      48.165   6.961  13.641  0.00  0.00    +0.000 C 
ATOM      3  O   UNL     1      48.516   6.837  14.817  0.00  0.00    +0.000 OA
ENDROOT
BRANCH   2   4
ATOM      4  C   UNL     1      48.825   7.995  12.805  0.00  0.00    +0.000 A 
ATOM      5  C   UNL     1      50.105   7.912  12.276  0.00  0.00    +0.000 A 
ATOM      6  S   UNL     1      50.574   9.276  11.363  0.00  0.00    +0.000 S 
ATOM      7  C   UNL     1      49.013   9.935  11.468  0.00  0.00    +0.000 A 
ATOM      8  N   UNL     1      48.693  11.063  10.782  0.00  0.00    +0.000 NA
ATOM      9  C   UNL     1      47.455  11.405  10.884  0.00  0.00    +0.000 A 
ATOM     10  N   UNL     1      46.521  10.750  11.647  0.00  0.00    +0.000 N 
ATOM     11  C   UNL     1      46.842   9.693  12.477  0.00  0.00    +0.000 A 
ATOM     12  O   UNL     1      46.045   9.298  13.322  0.00  0.00    +0.000 OA
ATOM     13  C   UNL     1      48.188   9.187  12.288  0.00  0.00    +0.000 A 
ATOM     14  H   UNL     1      45.587  11.113  11.741  0.00  0.00    +0.000 HD
ENDBRANCH   2   4
BRANCH   1  15
ATOM     15  C   UNL     1      46.540   5.126  13.988  0.00  0.00    +0.000 C 
BRANCH  15  16
ATOM     16  C   UNL     1      47.101   3.694  13.777  0.00  0.00    +0.000 C 
BRANCH  16  18
ATOM     17  C   UNL     1      47.456   3.815  16.188  0.00  0.00    +0.000 C 
ATOM     18  N   UNL     1      47.677   3.042  14.968  0.00  0.00    +0.000 NA
ATOM     19  H   UNL     1      47.210   2.140  15.082  0.00  0.00    +0.000 HD
ENDBRANCH  16  18
ENDBRANCH  15  16
ENDBRANCH   1  15
BRANCH   1  20
ATOM     20  C   UNL     1      46.727   6.292  11.721  0.00  0.00    +0.000 C 
BRANCH  20  21
ATOM     21  C   UNL     1      45.442   5.763  11.143  0.00  0.00    +0.000 A 
ATOM     22  C   UNL     1      44.201   6.242  11.577  0.00  0.00    +0.000 A 
ATOM     23  C   UNL     1      43.043   5.499  11.334  0.00  0.00    +0.000 A 
ATOM     24  C   UNL     1      43.117   4.269  10.674  0.00  0.00    +0.000 A 
ATOM     25  C   UNL     1      44.347   3.786  10.216  0.00  0.00    +0.000 A 
ATOM     26  C   UNL     1      45.493   4.566  10.408  0.00  0.00    +0.000 A 
BRANCH  25  27
ATOM     27  C   UNL     1      44.465   2.418   9.582  0.00  0.00    +0.000 C 
BRANCH  27  28
ATOM     28  C   UNL     1      45.463   2.351   8.454  0.00  0.00    +0.000 A 
ATOM     29  C   UNL     1      45.581   3.406   7.550  0.00  0.00    +0.000 A 
ATOM     30  C   UNL     1      46.472   3.285   6.490  0.00  0.00    +0.000 A 
ATOM     31  C   UNL     1      47.235   2.131   6.373  0.00  0.00    +0.000 A 
ATOM     32  C   UNL     1      47.083   1.145   7.332  0.00  0.00    +0.000 A 
ATOM     33  N   UNL     1      46.217   1.228   8.367  0.00  0.00    +0.000 NA
ENDBRANCH  27  28
ENDBRANCH  25  27
ENDBRANCH  20  21
ENDBRANCH   1  20
TORSDOF 8
ENDMDL
MODEL 2
REMARK VINA RESULT:    -7.949      1.518      2.039
REMARK INTER + INTRA:         -12.617
REMARK INTER:                 -11.583
REMARK INTRA:                  -1.034
REMARK UNBOUND:                -0.950
REMARK  Name = 
REMARK  9 active torsions:
REMARK  status: ('A' for Active; 'I' for Inactive)
REMARK    1  A    between atoms: C_1  and  N_2
REMARK    2  A    between atoms: N_2  and  C_3
REMARK    3  A    between atoms: C_3  and  C_4
REMARK    4  A    between atoms: C_4  and  N_5
REMARK    5  A    between atoms: N_5  and  C_6
REMARK    6  A    between atoms: C_6  and  C_7
REMARK    7  A    between atoms: C_11  and  C_12
REMARK    8  A    between atoms: C_12  and  C_13
REMARK    9  A    between atoms: C_20  and  C_22
REMARK                            x       y       z     vdW  Elec       q    Type
REMARK                         _______ _______ _______ _____ _____    ______ ____
ROOT
ATOM      1  N   UNL     1      47.102   7.004  12.821  0.00  0.00    +0.000 N 
ATOM      2  C   UNL     1      47.017   8.332  13.297  0.00  0.00    +0.000 C 
ATOM      3  O   UNL     1      47.324   8.605  14.460  0.00  0.00    +0.000 OA
ENDROOT
BRANCH   2   4
ATOM      4  C   UNL     1      46.536   9.422  12.412  0.00  0.00    +0.000 A 
ATOM      5  C   UNL     1      45.226   9.874  12.323  0.00  0.00    +0.000 A 
ATOM      6  S   UNL     1      44.998  11.141  11.201  0.00  0.00    +0.000 S 
ATOM      7  C   UNL     1      46.671  11.270  10.945  0.00  0.00    +0.000 A 
ATOM      8  N   UNL     1      47.174  12.267  10.171  0.00  0.00    +0.000 NA
ATOM      9  C   UNL     1      48.462  12.299  10.128  0.00  0.00    +0.000 A 
ATOM     10  N   UNL     1      49.289  11.397  10.751  0.00  0.00    +0.000 N 
ATOM     11  C   UNL     1      48.814  10.284  11.417  0.00  0.00    +0.000 A 
ATOM     12  O   UNL     1      49.575   9.378  11.741  0.00  0.00    +0.000 OA
ATOM     13  C   UNL     1      47.377  10.284  11.609  0.00  0.00    +0.000 A 
ATOM     14  H   UNL     1      50.286  11.436  10.617  0.00  0.00    +0.000 HD
ENDBRANCH   2   4
BRANCH   1  15
ATOM     15  C   UNL     1      47.610   5.972  13.750  0.00  0.00    +0.000 C 
BRANCH  15  16
ATOM     16  C   UNL     1      46.680   4.739  13.905  0.00  0.00    +0.000 C 
BRANCH  16  18
ATOM     17  C   UNL     1      47.617   3.591  15.843  0.00  0.00    +0.000 C 
ATOM     18  N   UNL     1      47.315   3.510  14.416  0.00  0.00    +0.000 NA
ATOM     19  H   UNL     1      46.655   2.742  14.280  0.00  0.00    +0.000 HD
ENDBRANCH  16  18
ENDBRANCH  15  16
ENDBRANCH   1  15
BRANCH   1  20
ATOM     20  C   UNL     1      46.745   6.682  11.451  0.00  0.00    +0.000 C 
BRANCH  20  21
ATOM     21  C   UNL     1      45.449   6.050  11.022  0.00  0.00    +0.000 A 
ATOM     22  C   UNL     1      44.223   6.492  11.532  0.00  0.00    +0.000 A 
ATOM     23  C   UNL     1      43.093   5.676  11.437  0.00  0.00    +0.000 A 
ATOM     24  C   UNL     1      43.181   4.409  10.852  0.00  0.00    +0.000 A 
ATOM     25  C   UNL     1      44.395   3.961  10.321  0.00  0.00    +0.000 A 
ATOM     26  C   UNL     1      45.506   4.810  10.362  0.00  0.00    +0.000 A 
BRANCH  25  27
ATOM     27  C   UNL     1      44.538   2.561   9.766  0.00  0.00    +0.000 C 
BRANCH  27  28
ATOM     28  C   UNL     1      45.466   2.464   8.583  0.00  0.00    +0.000 A 
ATOM     29  C   UNL     1      45.564   3.516   7.672  0.00  0.00    +0.000 A 
ATOM     30  C   UNL     1      46.388   3.369   6.562  0.00  0.00    +0.000 A 
ATOM     31  C   UNL     1      47.106   2.190   6.401  0.00  0.00    +0.000 A 
ATOM     32  C   UNL     1      46.978   1.209   7.369  0.00  0.00    +0.000 A 
ATOM     33  N   UNL     1      46.178   1.318   8.451  0.00  0.00    +0.000 NA
ENDBRANCH  27  28
ENDBRANCH  25  27
ENDBRANCH  20  21
ENDBRANCH   1  20
TORSDOF 8
ENDMDL
MODEL 3
REMARK VINA RESULT:    -7.509      2.236      3.985
REMARK INTER + INTRA:         -11.970
REMARK INTER:                 -10.529
REMARK INTRA:                  -1.441
REMARK UNBOUND:                -0.950
REMARK  Name = 
REMARK  9 active torsions:
REMARK  status: ('A' for Active; 'I' for Inactive)
REMARK    1  A    between atoms: C_1  and  N_2
REMARK    2  A    between atoms: N_2  and  C_3
REMARK    3  A    between atoms: C_3  and  C_4
REMARK    4  A    between atoms: C_4  and  N_5
REMARK    5  A    between atoms: N_5  and  C_6
REMARK    6  A    between atoms: C_6  and  C_7
REMARK    7  A    between atoms: C_11  and  C_12
REMARK    8  A    between atoms: C_12  and  C_13
REMARK    9  A    between atoms: C_20  and  C_22
REMARK                            x       y       z     vdW  Elec       q    Type
REMARK                         _______ _______ _______ _____ _____    ______ ____
ROOT
ATOM      1  N   UNL     1      46.743   8.662  12.286  0.00  0.00    +0.000 N 
ATOM      2  C   UNL     1      47.755   9.629  12.487  0.00  0.00    +0.000 C 
ATOM      3  O   UNL     1      47.465  10.799  12.747  0.00  0.00    +0.000 OA
ENDROOT
BRANCH   2   4
ATOM      4  C   UNL     1      49.187   9.258  12.367  0.00  0.00    +0.000 A 
ATOM      5  C   UNL     1      49.986   9.464  11.250  0.00  0.00    +0.000 A 
ATOM      6  S   UNL     1      51.593   8.917  11.429  0.00  0.00    +0.000 S 
ATOM      7  C   UNL     1      51.336   8.573  13.071  0.00  0.00    +0.000 A 
ATOM      8  N   UNL     1      52.369   8.179  13.862  0.00  0.00    +0.000 NA
ATOM      9  C   UNL     1      52.052   8.033  15.103  0.00  0.00    +0.000 A 
ATOM     10  N   UNL     1      50.789   8.198  15.614  0.00  0.00    +0.000 N 
ATOM     11  C   UNL     1      49.688   8.447  14.819  0.00  0.00    +0.000 A 
ATOM     12  O   UNL     1      48.552   8.340  15.272  0.00  0.00    +0.000 OA
ATOM     13  C   UNL     1      50.017   8.757  13.441  0.00  0.00    +0.000 A 
ATOM     14  H   UNL     1      50.595   7.997  16.582  0.00  0.00    +0.000 HD
ENDBRANCH   2   4
BRANCH   1  15
ATOM     15  C   UNL     1      45.338   9.096  12.442  0.00  0.00    +0.000 C 
BRANCH  15  16
ATOM     16  C   UNL     1      44.626   9.447  11.108  0.00  0.00    +0.000 C 
BRANCH  16  18
ATOM     17  C   UNL     1      42.269   9.841  10.611  0.00  0.00    +0.000 C 
ATOM     18  N   UNL     1      43.295   8.843  10.906  0.00  0.00    +0.000 NA
ATOM     19  H   UNL     1      43.360   8.215  10.103  0.00  0.00    +0.000 HD
ENDBRANCH  16  18
ENDBRANCH  15  16
ENDBRANCH   1  15
BRANCH   1  20
ATOM     20  C   UNL     1      47.082   7.284  11.983  0.00  0.00    +0.000 C 
BRANCH  20  21
ATOM     21  C   UNL     1      46.127   6.124  12.053  0.00  0.00    +0.000 A 
ATOM     22  C   UNL     1      46.138   5.240  13.137  0.00  0.00    +0.000 A 
ATOM     23  C   UNL     1      45.541   3.982  13.019  0.00  0.00    +0.000 A 
ATOM     24  C   UNL     1      44.946   3.592  11.816  0.00  0.00    +0.000 A 
ATOM     25  C   UNL     1      44.908   4.472  10.729  0.00  0.00    +0.000 A 
ATOM     26  C   UNL     1      45.452   5.752  10.877  0.00  0.00    +0.000 A 
BRANCH  25  27
ATOM     27  C   UNL     1      44.352   4.040   9.390  0.00  0.00    +0.000 C 
BRANCH  27  28
ATOM     28  C   UNL     1      45.346   3.313   8.522  0.00  0.00    +0.000 A 
ATOM     29  C   UNL     1      45.562   1.945   8.686  0.00  0.00    +0.000 A 
ATOM     30  C   UNL     1      46.527   1.319   7.906  0.00  0.00    +0.000 A 
ATOM     31  C   UNL     1      47.233   2.065   6.971  0.00  0.00    +0.000 A 
ATOM     32  C   UNL     1      46.935   3.411   6.847  0.00  0.00    +0.000 A 
ATOM     33  N   UNL     1      46.011   4.050   7.598  0.00  0.00    +0.000 NA
ENDBRANCH  27  28
ENDBRANCH  25  27
ENDBRANCH  20  21
ENDBRANCH   1  20
TORSDOF 8
ENDMDL
MODEL 4
REMARK VINA RESULT:    -7.386      2.781      4.950
REMARK INTER + INTRA:         -11.789
REMARK INTER:                 -11.112
REMARK INTRA:                  -0.678
REMARK UNBOUND:                -0.950
REMARK  Name = 
REMARK  9 active torsions:
REMARK  status: ('A' for Active; 'I' for Inactive)
REMARK    1  A    between atoms: C_1  and  N_2
REMARK    2  A    between atoms: N_2  and  C_3
REMARK    3  A    between atoms: C_3  and  C_4
REMARK    4  A    between atoms: C_4  and  N_5
REMARK    5  A    between atoms: N_5  and  C_6
REMARK    6  A    between atoms: C_6  and  C_7
REMARK    7  A    between atoms: C_11  and  C_12
REMARK    8  A    between atoms: C_12  and  C_13
REMARK    9  A    between atoms: C_20  and  C_22
REMARK                            x       y       z     vdW  Elec       q    Type
REMARK                         _______ _______ _______ _____ _____    ______ ____
ROOT
ATOM      1  N   UNL     1      47.548   5.845  13.796  0.00  0.00    +0.000 N 
ATOM      2  C   UNL     1      48.447   5.906  14.886  0.00  0.00    +0.000 C 
ATOM      3  O   UNL     1      49.488   6.563  14.808  0.00  0.00    +0.000 OA
ENDROOT
BRANCH   2   4
ATOM      4  C   UNL     1      48.166   5.161  16.139  0.00  0.00    +0.000 A 
ATOM      5  C   UNL     1      47.948   3.793  16.236  0.00  0.00    +0.000 A 
ATOM      6  S   UNL     1      47.643   3.245  17.824  0.00  0.00    +0.000 S 
ATOM      7  C   UNL     1      47.993   4.778  18.465  0.00  0.00    +0.000 A 
ATOM      8  N   UNL     1      48.039   4.969  19.809  0.00  0.00    +0.000 NA
ATOM      9  C   UNL     1      48.398   6.157  20.158  0.00  0.00    +0.000 A 
ATOM     10  N   UNL     1      48.668   7.182  19.286  0.00  0.00    +0.000 N 
ATOM     11  C   UNL     1      48.483   7.070  17.921  0.00  0.00    +0.000 A 
ATOM     12  O   UNL     1      48.491   8.067  17.206  0.00  0.00    +0.000 OA
ATOM     13  C   UNL     1      48.217   5.717  17.474  0.00  0.00    +0.000 A 
ATOM     14  H   UNL     1      48.872   8.107  19.626  0.00  0.00    +0.000 HD
ENDBRANCH   2   4
BRANCH   1  15
ATOM     15  C   UNL     1      47.881   6.628  12.587  0.00  0.00    +0.000 C 
BRANCH  15  16
ATOM     16  C   UNL     1      47.524   8.136  12.685  0.00  0.00    +0.000 C 
BRANCH  16  18
ATOM     17  C   UNL     1      45.264   9.051  12.772  0.00  0.00    +0.000 C 
ATOM     18  N   UNL     1      46.367   8.472  13.536  0.00  0.00    +0.000 NA
ATOM     19  H   UNL     1      46.032   7.604  13.958  0.00  0.00    +0.000 HD
ENDBRANCH  16  18
ENDBRANCH  15  16
ENDBRANCH   1  15
BRANCH   1  20
ATOM     20  C   UNL     1      46.322   5.075  13.888  0.00  0.00    +0.000 C 
BRANCH  20  21
ATOM     21  C   UNL     1      45.258   5.015  12.825  0.00  0.00    +0.000 A 
ATOM     22  C   UNL     1      44.053   5.712  12.965  0.00  0.00    +0.000 A 
ATOM     23  C   UNL     1      42.946   5.354  12.191  0.00  0.00    +0.000 A 
ATOM     24  C   UNL     1      43.028   4.291  11.287  0.00  0.00    +0.000 A 
ATOM     25  C   UNL     1      44.232   3.598  11.121  0.00  0.00    +0.000 A 
ATOM     26  C   UNL     1      45.352   4.003  11.854  0.00  0.00    +0.000 A 
BRANCH  25  27
ATOM     27  C   UNL     1      44.320   2.387  10.218  0.00  0.00    +0.000 C 
BRANCH  27  28
ATOM     28  C   UNL     1      45.255   2.564   9.049  0.00  0.00    +0.000 A 
ATOM     29  C   UNL     1      45.374   3.802   8.419  0.00  0.00    +0.000 A 
ATOM     30  C   UNL     1      46.203   3.913   7.309  0.00  0.00    +0.000 A 
ATOM     31  C   UNL     1      46.906   2.797   6.872  0.00  0.00    +0.000 A 
ATOM     32  C   UNL     1      46.758   1.614   7.574  0.00  0.00    +0.000 A 
ATOM     33  N   UNL     1      45.952   1.472   8.649  0.00  0.00    +0.000 NA
ENDBRANCH  27  28
ENDBRANCH  25  27
ENDBRANCH  20  21
ENDBRANCH   1  20
TORSDOF 8
ENDMDL
MODEL 5
REMARK VINA RESULT:    -7.167      2.218      3.407
REMARK INTER + INTRA:         -11.469
REMARK INTER:                 -10.084
REMARK INTRA:                  -1.385
REMARK UNBOUND:                -0.950
REMARK  Name = 
REMARK  9 active torsions:
REMARK  status: ('A' for Active; 'I' for Inactive)
REMARK    1  A    between atoms: C_1  and  N_2
REMARK    2  A    between atoms: N_2  and  C_3
REMARK    3  A    between atoms: C_3  and  C_4
REMARK    4  A    between atoms: C_4  and  N_5
REMARK    5  A    between atoms: N_5  and  C_6
REMARK    6  A    between atoms: C_6  and  C_7
REMARK    7  A    between atoms: C_11  and  C_12
REMARK    8  A    between atoms: C_12  and  C_13
REMARK    9  A    between atoms: C_20  and  C_22
REMARK                            x       y       z     vdW  Elec       q    Type
REMARK                         _______ _______ _______ _____ _____    ______ ____
ROOT
ATOM      1  N   UNL     1      48.106   7.904  12.776  0.00  0.00    +0.000 N 
ATOM      2  C   UNL     1      47.609   9.194  13.075  0.00  0.00    +0.000 C 
ATOM      3  O   UNL     1      48.087   9.854  14.000  0.00  0.00    +0.000 OA
ENDROOT
BRANCH   2   4
ATOM      4  C   UNL     1      46.486   9.769  12.294  0.00  0.00    +0.000 A 
ATOM      5  C   UNL     1      45.136   9.537  12.524  0.00  0.00    +0.000 A 
ATOM      6  S   UNL     1      44.093  10.344  11.441  0.00  0.00    +0.000 S 
ATOM      7  C   UNL     1      45.393  11.193  10.756  0.00  0.00    +0.000 A 
ATOM      8  N   UNL     1      45.172  12.165   9.832  0.00  0.00    +0.000 NA
ATOM      9  C   UNL     1      46.238  12.786   9.458  0.00  0.00    +0.000 A 
ATOM     10  N   UNL     1      47.507  12.491   9.888  0.00  0.00    +0.000 N 
ATOM     11  C   UNL     1      47.789  11.414  10.706  0.00  0.00    +0.000 A 
ATOM     12  O   UNL     1      48.945  11.034  10.865  0.00  0.00    +0.000 OA
ATOM     13  C   UNL     1      46.611  10.776  11.261  0.00  0.00    +0.000 A 
ATOM     14  H   UNL     1      48.306  12.967   9.501  0.00  0.00    +0.000 HD
ENDBRANCH   2   4
BRANCH   1  15
ATOM     15  C   UNL     1      49.240   7.402  13.581  0.00  0.00    +0.000 C 
BRANCH  15  16
ATOM     16  C   UNL     1      50.614   8.018  13.203  0.00  0.00    +0.000 C 
BRANCH  16  18
ATOM     17  C   UNL     1      51.905   8.708  11.250  0.00  0.00    +0.000 C 
ATOM     18  N   UNL     1      51.159   7.626  11.889  0.00  0.00    +0.000 NA
ATOM     19  H   UNL     1      51.805   6.850  12.043  0.00  0.00    +0.000 HD
ENDBRANCH  16  18
ENDBRANCH  15  16
ENDBRANCH   1  15
BRANCH   1  20
ATOM     20  C   UNL     1      47.547   7.127  11.686  0.00  0.00    +0.000 C 
BRANCH  20  21
ATOM     21  C   UNL     1      46.385   6.180  11.807  0.00  0.00    +0.000 A 
ATOM     22  C   UNL     1      46.148   5.471  12.990  0.00  0.00    +0.000 A 
ATOM     23  C   UNL     1      45.332   4.337  12.973  0.00  0.00    +0.000 A 
ATOM     24  C   UNL     1      44.762   3.893  11.776  0.00  0.00    +0.000 A 
ATOM     25  C   UNL     1      44.973   4.602  10.588  0.00  0.00    +0.000 A 
ATOM     26  C   UNL     1      45.739   5.772  10.627  0.00  0.00    +0.000 A 
BRANCH  25  27
ATOM     27  C   UNL     1      44.444   4.092   9.266  0.00  0.00    +0.000 C 
BRANCH  27  28
ATOM     28  C   UNL     1      45.432   3.254   8.496  0.00  0.00    +0.000 A 
ATOM     29  C   UNL     1      46.248   3.835   7.526  0.00  0.00    +0.000 A 
ATOM     30  C   UNL     1      47.107   3.021   6.796  0.00  0.00    +0.000 A 
ATOM     31  C   UNL     1      47.145   1.659   7.067  0.00  0.00    +0.000 A 
ATOM     32  C   UNL     1      46.327   1.168   8.069  0.00  0.00    +0.000 A 
ATOM     33  N   UNL     1      45.475   1.931   8.787  0.00  0.00    +0.000 NA
ENDBRANCH  27  28
ENDBRANCH  25  27
ENDBRANCH  20  21
ENDBRANCH   1  20
TORSDOF 8
ENDMDL
MODEL 6
REMARK VINA RESULT:    -6.938      2.907      4.918
REMARK INTER + INTRA:         -11.133
REMARK INTER:                  -9.841
REMARK INTRA:                  -1.292
REMARK UNBOUND:                -0.950
REMARK  Name = 
REMARK  9 active torsions:
REMARK  status: ('A' for Active; 'I' for Inactive)
REMARK    1  A    between atoms: C_1  and  N_2
REMARK    2  A    between atoms: N_2  and  C_3
REMARK    3  A    between atoms: C_3  and  C_4
REMARK    4  A    between atoms: C_4  and  N_5
REMARK    5  A    between atoms: N_5  and  C_6
REMARK    6  A    between atoms: C_6  and  C_7
REMARK    7  A    between atoms: C_11  and  C_12
REMARK    8  A    between atoms: C_12  and  C_13
REMARK    9  A    between atoms: C_20  and  C_22
REMARK                            x       y       z     vdW  Elec       q    Type
REMARK                         _______ _______ _______ _____ _____    ______ ____
ROOT
ATOM      1  N   UNL     1      48.276   8.506  13.042  0.00  0.00    +0.000 N 
ATOM      2  C   UNL     1      48.783   8.970  14.277  0.00  0.00    +0.000 C 
ATOM      3  O   UNL     1      48.746  10.169  14.563  0.00  0.00    +0.000 OA
ENDROOT
BRANCH   2   4
ATOM      4  C   UNL     1      49.392   8.025  15.247  0.00  0.00    +0.000 A 
ATOM      5  C   UNL     1      48.695   7.208  16.127  0.00  0.00    +0.000 A 
ATOM      6  S   UNL     1      49.691   6.239  17.120  0.00  0.00    +0.000 S 
ATOM      7  C   UNL     1      51.079   6.723  16.270  0.00  0.00    +0.000 A 
ATOM      8  N   UNL     1      52.284   6.156  16.538  0.00  0.00    +0.000 NA
ATOM      9  C   UNL     1      53.235   6.554  15.764  0.00  0.00    +0.000 A 
ATOM     10  N   UNL     1      53.099   7.500  14.779  0.00  0.00    +0.000 N 
ATOM     11  C   UNL     1      51.930   8.208  14.579  0.00  0.00    +0.000 A 
ATOM     12  O   UNL     1      51.919   9.209  13.868  0.00  0.00    +0.000 OA
ATOM     13  C   UNL     1      50.799   7.698  15.329  0.00  0.00    +0.000 A 
ATOM     14  H   UNL     1      53.900   7.819  14.258  0.00  0.00    +0.000 HD
ENDBRANCH   2   4
BRANCH   1  15
ATOM     15  C   UNL     1      47.665   9.499  12.134  0.00  0.00    +0.000 C 
BRANCH  15  16
ATOM     16  C   UNL     1      46.125   9.633  12.277  0.00  0.00    +0.000 C 
BRANCH  16  18
ATOM     17  C   UNL     1      44.333  11.078  11.467  0.00  0.00    +0.000 C 
ATOM     18  N   UNL     1      45.587  11.006  12.213  0.00  0.00    +0.000 NA
ATOM     19  H   UNL     1      45.398  11.307  13.171  0.00  0.00    +0.000 HD
ENDBRANCH  16  18
ENDBRANCH  15  16
ENDBRANCH   1  15
BRANCH   1  20
ATOM     20  C   UNL     1      48.316   7.094  12.707  0.00  0.00    +0.000 C 
BRANCH  20  21
ATOM     21  C   UNL     1      47.151   6.148  12.816  0.00  0.00    +0.000 A 
ATOM     22  C   UNL     1      47.117   5.150  13.796  0.00  0.00    +0.000 A 
ATOM     23  C   UNL     1      46.253   4.062  13.654  0.00  0.00    +0.000 A 
ATOM     24  C   UNL     1      45.433   3.951  12.528  0.00  0.00    +0.000 A 
ATOM     25  C   UNL     1      45.441   4.950  11.548  0.00  0.00    +0.000 A 
ATOM     26  C   UNL     1      46.262   6.068  11.730  0.00  0.00    +0.000 A 
BRANCH  25  27
ATOM     27  C   UNL     1      44.632   4.808  10.277  0.00  0.00    +0.000 C 
BRANCH  27  28
ATOM     28  C   UNL     1      45.287   3.946   9.229  0.00  0.00    +0.000 A 
ATOM     29  C   UNL     1      45.206   2.556   9.303  0.00  0.00    +0.000 A 
ATOM     30  C   UNL     1      45.870   1.793   8.351  0.00  0.00    +0.000 A 
ATOM     31  C   UNL     1      46.576   2.433   7.340  0.00  0.00    +0.000 A 
ATOM     32  C   UNL     1      46.579   3.817   7.318  0.00  0.00    +0.000 A 
ATOM     33  N   UNL     1      45.953   4.585   8.236  0.00  0.00    +0.000 NA
ENDBRANCH  27  28
ENDBRANCH  25  27
ENDBRANCH  20  21
ENDBRANCH   1  20
TORSDOF 8
ENDMDL
MODEL 7
REMARK VINA RESULT:    -6.897      3.417      8.347
REMARK INTER + INTRA:         -11.072
REMARK INTER:                  -9.608
REMARK INTRA:                  -1.465
REMARK UNBOUND:                -0.950
REMARK  Name = 
REMARK  9 active torsions:
REMARK  status: ('A' for Active; 'I' for Inactive)
REMARK    1  A    between atoms: C_1  and  N_2
REMARK    2  A    between atoms: N_2  and  C_3
REMARK    3  A    between atoms: C_3  and  C_4
REMARK    4  A    between atoms: C_4  and  N_5
REMARK    5  A    between atoms: N_5  and  C_6
REMARK    6  A    between atoms: C_6  and  C_7
REMARK    7  A    between atoms: C_11  and  C_12
REMARK    8  A    between atoms: C_12  and  C_13
REMARK    9  A    between atoms: C_20  and  C_22
REMARK                            x       y       z     vdW  Elec       q    Type
REMARK                         _______ _______ _______ _____ _____    ______ ____
ROOT
ATOM      1  N   UNL     1      46.075   7.045  11.846  0.00  0.00    +0.000 N 
ATOM      2  C   UNL     1      44.773   6.622  11.492  0.00  0.00    +0.000 C 
ATOM      3  O   UNL     1      43.877   7.445  11.289  0.00  0.00    +0.000 OA
ENDROOT
BRANCH   2   4
ATOM      4  C   UNL     1      44.453   5.178  11.378  0.00  0.00    +0.000 A 
ATOM      5  C   UNL     1      43.692   4.443  12.277  0.00  0.00    +0.000 A 
ATOM      6  S   UNL     1      43.515   2.797  11.862  0.00  0.00    +0.000 S 
ATOM      7  C   UNL     1      44.274   3.049  10.365  0.00  0.00    +0.000 A 
ATOM      8  N   UNL     1      44.339   2.049   9.448  0.00  0.00    +0.000 NA
ATOM      9  C   UNL     1      44.866   2.401   8.325  0.00  0.00    +0.000 A 
ATOM     10  N   UNL     1      45.375   3.646   8.054  0.00  0.00    +0.000 N 
ATOM     11  C   UNL     1      45.466   4.640   9.009  0.00  0.00    +0.000 A 
ATOM     12  O   UNL     1      46.146   5.641   8.806  0.00  0.00    +0.000 OA
ATOM     13  C   UNL     1      44.761   4.338  10.240  0.00  0.00    +0.000 A 
ATOM     14  H   UNL     1      45.839   3.833   7.181  0.00  0.00    +0.000 HD
ENDBRANCH   2   4
BRANCH   1  15
ATOM     15  C   UNL     1      46.329   8.500  11.921  0.00  0.00    +0.000 C 
BRANCH  15  16
ATOM     16  C   UNL     1      45.549   9.226  13.049  0.00  0.00    +0.000 C 
BRANCH  16  18
ATOM     17  C   UNL     1      44.772  10.929  11.482  0.00  0.00    +0.000 C 
ATOM     18  N   UNL     1      44.422  10.074  12.613  0.00  0.00    +0.000 NA
ATOM     19  H   UNL     1      43.668   9.453  12.313  0.00  0.00    +0.000 HD
ENDBRANCH  16  18
ENDBRANCH  15  16
ENDBRANCH   1  15
BRANCH   1  20
ATOM     20  C   UNL     1      47.131   6.078  12.081  0.00  0.00    +0.000 C 
BRANCH  20  21
ATOM     21  C   UNL     1      47.593   5.615  13.436  0.00  0.00    +0.000 A 
ATOM     22  C   UNL     1      46.921   4.598  14.122  0.00  0.00    +0.000 A 
ATOM     23  C   UNL     1      47.106   4.445  15.499  0.00  0.00    +0.000 A 
ATOM     24  C   UNL     1      47.946   5.314  16.201  0.00  0.00    +0.000 A 
ATOM     25  C   UNL     1      48.640   6.324  15.526  0.00  0.00    +0.000 A 
ATOM     26  C   UNL     1      48.498   6.429  14.138  0.00  0.00    +0.000 A 
BRANCH  25  27
ATOM     27  C   UNL     1      49.481   7.333  16.276  0.00  0.00    +0.000 C 
BRANCH  27  28
ATOM     28  C   UNL     1      48.712   8.128  17.300  0.00  0.00    +0.000 A 
ATOM     29  C   UNL     1      48.169   9.369  16.971  0.00  0.00    +0.000 A 
ATOM     30  C   UNL     1      47.515  10.099  17.957  0.00  0.00    +0.000 A 
ATOM     31  C   UNL     1      47.401   9.564  19.234  0.00  0.00    +0.000 A 
ATOM     32  C   UNL     1      47.939   8.310  19.469  0.00  0.00    +0.000 A 
ATOM     33  N   UNL     1      48.589   7.583  18.535  0.00  0.00    +0.000 NA
ENDBRANCH  27  28
ENDBRANCH  25  27
ENDBRANCH  20  21
ENDBRANCH   1  20
TORSDOF 8
ENDMDL
MODEL 8
REMARK VINA RESULT:    -6.838      2.860      5.062
REMARK INTER + INTRA:         -10.985
REMARK INTER:                  -9.620
REMARK INTRA:                  -1.365
REMARK UNBOUND:                -0.950
REMARK  Name = 
REMARK  9 active torsions:
REMARK  status: ('A' for Active; 'I' for Inactive)
REMARK    1  A    between atoms: C_1  and  N_2
REMARK    2  A    between atoms: N_2  and  C_3
REMARK    3  A    between atoms: C_3  and  C_4
REMARK    4  A    between atoms: C_4  and  N_5
REMARK    5  A    between atoms: N_5  and  C_6
REMARK    6  A    between atoms: C_6  and  C_7
REMARK    7  A    between atoms: C_11  and  C_12
REMARK    8  A    between atoms: C_12  and  C_13
REMARK    9  A    between atoms: C_20  and  C_22
REMARK                            x       y       z     vdW  Elec       q    Type
REMARK                         _______ _______ _______ _____ _____    ______ ____
ROOT
ATOM      1  N   UNL     1      49.081   7.595  13.345  0.00  0.00    +0.000 N 
ATOM      2  C   UNL     1      49.856   8.038  14.441  0.00  0.00    +0.000 C 
ATOM      3  O   UNL     1      51.088   8.058  14.374  0.00  0.00    +0.000 OA
ENDROOT
BRANCH   2   4
ATOM      4  C   UNL     1      49.204   8.466  15.703  0.00  0.00    +0.000 A 
ATOM      5  C   UNL     1      48.720   9.740  15.973  0.00  0.00    +0.000 A 
ATOM      6  S   UNL     1      48.030   9.911  17.526  0.00  0.00    +0.000 S 
ATOM      7  C   UNL     1      48.166   8.244  17.816  0.00  0.00    +0.000 A 
ATOM      8  N   UNL     1      47.636   7.695  18.939  0.00  0.00    +0.000 NA
ATOM      9  C   UNL     1      47.736   6.410  18.993  0.00  0.00    +0.000 A 
ATOM     10  N   UNL     1      48.359   5.634  18.049  0.00  0.00    +0.000 N 
ATOM     11  C   UNL     1      49.042   6.167  16.973  0.00  0.00    +0.000 A 
ATOM     12  O   UNL     1      49.790   5.468  16.297  0.00  0.00    +0.000 OA
ATOM     13  C   UNL     1      48.837   7.592  16.797  0.00  0.00    +0.000 A 
ATOM     14  H   UNL     1      48.466   4.642  18.188  0.00  0.00    +0.000 HD
ENDBRANCH   2   4
BRANCH   1  15
ATOM     15  C   UNL     1      49.796   7.203  12.112  0.00  0.00    +0.000 C 
BRANCH  15  16
ATOM     16  C   UNL     1      50.459   8.385  11.355  0.00  0.00    +0.000 C 
BRANCH  16  18
ATOM     17  C   UNL     1      52.464   8.719  10.005  0.00  0.00    +0.000 C 
ATOM     18  N   UNL     1      51.935   8.388  11.325  0.00  0.00    +0.000 NA
ATOM     19  H   UNL     1      52.254   9.106  11.979  0.00  0.00    +0.000 HD
ENDBRANCH  16  18
ENDBRANCH  15  16
ENDBRANCH   1  15
BRANCH   1  20
ATOM     20  C   UNL     1      47.632   7.575  13.421  0.00  0.00    +0.000 C 
BRANCH  20  21
ATOM     21  C   UNL     1      46.779   6.341  13.309  0.00  0.00    +0.000 A 
ATOM     22  C   UNL     1      47.087   5.179  14.025  0.00  0.00    +0.000 A 
ATOM     23  C   UNL     1      46.542   3.954  13.635  0.00  0.00    +0.000 A 
ATOM     24  C   UNL     1      45.703   3.875  12.520  0.00  0.00    +0.000 A 
ATOM     25  C   UNL     1      45.369   5.031  11.805  0.00  0.00    +0.000 A 
ATOM     26  C   UNL     1      45.868   6.263  12.241  0.00  0.00    +0.000 A 
BRANCH  25  27
ATOM     27  C   UNL     1      44.539   4.959  10.542  0.00  0.00    +0.000 C 
BRANCH  27  28
ATOM     28  C   UNL     1      45.143   4.100   9.462  0.00  0.00    +0.000 A 
ATOM     29  C   UNL     1      44.997   2.713   9.495  0.00  0.00    +0.000 A 
ATOM     30  C   UNL     1      45.616   1.949   8.512  0.00  0.00    +0.000 A 
ATOM     31  C   UNL     1      46.343   2.587   7.514  0.00  0.00    +0.000 A 
ATOM     32  C   UNL     1      46.410   3.969   7.534  0.00  0.00    +0.000 A 
ATOM     33  N   UNL     1      45.829   4.737   8.482  0.00  0.00    +0.000 NA
ENDBRANCH  27  28
ENDBRANCH  25  27
ENDBRANCH  20  21
ENDBRANCH   1  20
TORSDOF 8
ENDMDL
MODEL 9
REMARK VINA RESULT:    -6.830      3.309      8.260
REMARK INTER + INTRA:         -10.974
REMARK INTER:                  -9.236
REMARK INTRA:                  -1.738
REMARK UNBOUND:                -0.950
REMARK  Name = 
REMARK  9 active torsions:
REMARK  status: ('A' for Active; 'I' for Inactive)
REMARK    1  A    between atoms: C_1  and  N_2
REMARK    2  A    between atoms: N_2  and  C_3
REMARK    3  A    between atoms: C_3  and  C_4
REMARK    4  A    between atoms: C_4  and  N_5
REMARK    5  A    between atoms: N_5  and  C_6
REMARK    6  A    between atoms: C_6  and  C_7
REMARK    7  A    between atoms: C_11  and  C_12
REMARK    8  A    between atoms: C_12  and  C_13
REMARK    9  A    between atoms: C_20  and  C_22
REMARK                            x       y       z     vdW  Elec       q    Type
REMARK                         _______ _______ _______ _____ _____    ______ ____
ROOT
ATOM      1  N   UNL     1      46.395   7.493  12.483  0.00  0.00    +0.000 N 
ATOM      2  C   UNL     1      45.273   7.314  11.642  0.00  0.00    +0.000 C 
ATOM      3  O   UNL     1      44.414   8.194  11.543  0.00  0.00    +0.000 OA
ENDROOT
BRANCH   2   4
ATOM      4  C   UNL     1      45.095   6.055  10.878  0.00  0.00    +0.000 A 
ATOM      5  C   UNL     1      45.680   5.760   9.654  0.00  0.00    +0.000 A 
ATOM      6  S   UNL     1      45.267   4.224   9.032  0.00  0.00    +0.000 S 
ATOM      7  C   UNL     1      44.458   3.816  10.467  0.00  0.00    +0.000 A 
ATOM      8  N   UNL     1      43.965   2.562  10.647  0.00  0.00    +0.000 NA
ATOM      9  C   UNL     1      43.450   2.364  11.813  0.00  0.00    +0.000 A 
ATOM     10  N   UNL     1      43.341   3.317  12.793  0.00  0.00    +0.000 N 
ATOM     11  C   UNL     1      43.689   4.639  12.594  0.00  0.00    +0.000 A 
ATOM     12  O   UNL     1      43.349   5.503  13.395  0.00  0.00    +0.000 OA
ATOM     13  C   UNL     1      44.400   4.877  11.352  0.00  0.00    +0.000 A 
ATOM     14  H   UNL     1      42.861   3.116  13.655  0.00  0.00    +0.000 HD
ENDBRANCH   2   4
BRANCH   1  15
ATOM     15  C   UNL     1      46.519   8.781  13.198  0.00  0.00    +0.000 C 
BRANCH  15  16
ATOM     16  C   UNL     1      47.666   9.690  12.680  0.00  0.00    +0.000 C 
BRANCH  16  18
ATOM     17  C   UNL     1      46.090  11.290  11.724  0.00  0.00    +0.000 C 
ATOM     18  N   UNL     1      47.325  11.112  12.484  0.00  0.00    +0.000 NA
ATOM     19  H   UNL     1      47.184  11.526  13.408  0.00  0.00    +0.000 HD
ENDBRANCH  16  18
ENDBRANCH  15  16
ENDBRANCH   1  15
BRANCH   1  20
ATOM     20  C   UNL     1      47.408   6.460  12.598  0.00  0.00    +0.000 C 
BRANCH  20  21
ATOM     21  C   UNL     1      47.749   5.722  13.863  0.00  0.00    +0.000 A 
ATOM     22  C   UNL     1      46.986   4.632  14.295  0.00  0.00    +0.000 A 
ATOM     23  C   UNL     1      47.063   4.208  15.624  0.00  0.00    +0.000 A 
ATOM     24  C   UNL     1      47.885   4.879  16.534  0.00  0.00    +0.000 A 
ATOM     25  C   UNL     1      48.670   5.958  16.114  0.00  0.00    +0.000 A 
ATOM     26  C   UNL     1      48.635   6.335  14.767  0.00  0.00    +0.000 A 
BRANCH  25  27
ATOM     27  C   UNL     1      49.496   6.756  17.098  0.00  0.00    +0.000 C 
BRANCH  27  28
ATOM     28  C   UNL     1      48.743   7.885  17.754  0.00  0.00    +0.000 A 
ATOM     29  C   UNL     1      48.076   7.684  18.961  0.00  0.00    +0.000 A 
ATOM     30  C   UNL     1      47.345   8.732  19.508  0.00  0.00    +0.000 A 
ATOM     31  C   UNL     1      47.317   9.955  18.850  0.00  0.00    +0.000 A 
ATOM     32  C   UNL     1      48.035  10.082  17.674  0.00  0.00    +0.000 A 
ATOM     33  N   UNL     1      48.744   9.079  17.112  0.00  0.00    +0.000 NA
ENDBRANCH  27  28
ENDBRANCH  25  27
ENDBRANCH  20  21
ENDBRANCH   1  20
TORSDOF 8
ENDMDL
