MODEL 1
REMARK VINA RESULT:    -8.310      0.000      0.000
REMARK INTER + INTRA:         -12.402
REMARK INTER:                 -11.225
REMARK INTRA:                  -1.177
REMARK UNBOUND:                -1.177
REMARK  Name = 
REMARK  6 active torsions:
REMARK  status: ('A' for Active; 'I' for Inactive)
REMARK    1  A    between atoms: C_2  and  C_20
REMARK    2  A    between atoms: N_3  and  C_4
REMARK    3  A    between atoms: C_4  and  C_5
REMARK    4  A    between atoms: C_8  and  C_9
REMARK    5  A    between atoms: C_9  and  C_10
REMARK    6  A    between atoms: C_10  and  N_11
REMARK                            x       y       z     vdW  Elec       q    Type
REMARK                         _______ _______ _______ _____ _____    ______ ____
ROOT
ATOM      1  C   UNL     1      47.863   8.322  13.106  0.00  0.00    +0.000 C 
ENDROOT
BRANCH   1   2
ATOM      2  C   UNL     1      46.744   7.521  12.494  0.00  0.00    +0.000 A 
ATOM      3  C   UNL     1      45.443   7.686  12.968  0.00  0.00    +0.000 A 
ATOM      4  C   UNL     1      44.395   6.932  12.441  0.00  0.00    +0.000 A 
ATOM      5  C   UNL     1      44.615   5.981  11.430  0.00  0.00    +0.000 A 
ATOM      6  C   UNL     1      45.931   5.787  10.986  0.00  0.00    +0.000 A 
ATOM      7  C   UNL     1      46.985   6.545  11.514  0.00  0.00    +0.000 A 
BRANCH   5   8
ATOM      8  C   UNL     1      43.490   5.173  10.798  0.00  0.00    +0.000 C 
BRANCH   8   9
ATOM      9  C   UNL     1      43.968   3.949  10.007  0.00  0.00    +0.000 C 
BRANCH   9  10
ATOM     10  N   UNL     1      44.256   4.254   8.614  0.00  0.00    +0.000 N 
ATOM     11  C   UNL     1      45.249   3.407   8.109  0.00  0.00    +0.000 A 
ATOM     12  N   UNL     1      45.362   2.153   8.577  0.00  0.00    +0.000 NA
ATOM     13  C   UNL     1      46.365   1.395   8.089  0.00  0.00    +0.000 A 
ATOM     14  C   UNL     1      47.246   1.837   7.142  0.00  0.00    +0.000 A 
ATOM     15  C   UNL     1      47.048   3.129   6.720  0.00  0.00    +0.000 A 
ATOM     16  N   UNL     1      46.069   3.931   7.190  0.00  0.00    +0.000 NA
ATOM     17  H   UNL     1      44.583   5.194   8.420  0.00  0.00    +0.000 HD
ENDBRANCH   9  10
ENDBRANCH   8   9
ENDBRANCH   5   8
ENDBRANCH   1   2
BRANCH   1  20
ATOM     18  O   UNL     1      50.031   6.961  14.401  0.00  0.00    +0.000 OA
ATOM     19  C   UNL     1      49.013   7.255  15.015  0.00  0.00    +0.000 C 
ATOM     20  N   UNL     1      47.972   7.989  14.496  0.00  0.00    +0.000 N 
ATOM     21  H   UNL     1      47.107   8.010  15.013  0.00  0.00    +0.000 HD
BRANCH  19  22
ATOM     22  C   UNL     1      48.654   6.685  16.305  0.00  0.00    +0.000 A 
ATOM     23  C   UNL     1      48.975   7.293  17.504  0.00  0.00    +0.000 A 
ATOM     24  S   UNL     1      48.965   6.170  18.801  0.00  0.00    +0.000 S 
ATOM     25  C   UNL     1      48.405   4.916  17.787  0.00  0.00    +0.000 A 
ATOM     26  N   UNL     1      48.323   3.622  18.199  0.00  0.00    +0.000 NA
ATOM     27  C   UNL     1      47.840   2.815  17.309  0.00  0.00    +0.000 A 
ATOM     28  N   UNL     1      47.383   3.193  16.067  0.00  0.00    +0.000 N 
ATOM     29  C   UNL     1      47.422   4.488  15.621  0.00  0.00    +0.000 A 
ATOM     30  O   UNL     1      46.928   4.824  14.551  0.00  0.00    +0.000 OA
ATOM     31  C   UNL     1      48.085   5.390  16.536  0.00  0.00    +0.000 A 
ATOM     32  H   UNL     1      46.937   2.519  15.456  0.00  0.00    +0.000 HD
ENDBRANCH  19  22
ENDBRANCH   1  20
TORSDOF 6
ENDMDL
MODEL 2
REMARK VINA RESULT:    -7.932      1.561      1.913
REMARK INTER + INTRA:         -11.891
REMARK INTER:                 -11.059
REMARK INTRA:                  -0.832
REMARK UNBOUND:                -1.177
REMARK  Name = 
REMARK  6 active torsions:
REMARK  status: ('A' for Active; 'I' for Inactive)
REMARK    1  A    between atoms: C_2  and  C_20
REMARK    2  A    between atoms: N_3  and  C_4
REMARK    3  A    between atoms: C_4  and  C_5
REMARK    4  A    between atoms: C_8  and  C_9
REMARK    5  A    between atoms: C_9  and  C_10
REMARK    6  A    between atoms: C_10  and  N_11
REMARK                            x       y       z     vdW  Elec       q    Type
REMARK                         _______ _______ _______ _____ _____    ______ ____
ROOT
ATOM      1  C   UNL     1      48.663   6.868  13.853  0.00  0.00    +0.000 C 
ENDROOT
BRANCH   1   2
ATOM      2  C   UNL     1      47.352   6.445  13.247  0.00  0.00    +0.000 A 
ATOM      3  C   UNL     1      46.725   7.274  12.317  0.00  0.00    +0.000 A 
ATOM      4  C   UNL     1      45.494   6.920  11.767  0.00  0.00    +0.000 A 
ATOM      5  C   UNL     1      44.844   5.730  12.135  0.00  0.00    +0.000 A 
ATOM      6  C   UNL     1      45.456   4.919  13.101  0.00  0.00    +0.000 A 
ATOM      7  C   UNL     1      46.694   5.273  13.655  0.00  0.00    +0.000 A 
BRANCH   5   8
ATOM      8  C   UNL     1      43.523   5.288  11.521  0.00  0.00    +0.000 C 
BRANCH   8   9
ATOM      9  C   UNL     1      43.650   4.110  10.547  0.00  0.00    +0.000 C 
BRANCH   9  10
ATOM     10  N   UNL     1      43.954   4.531   9.188  0.00  0.00    +0.000 N 
ATOM     11  C   UNL     1      44.897   3.682   8.598  0.00  0.00    +0.000 A 
ATOM     12  N   UNL     1      44.939   2.385   8.942  0.00  0.00    +0.000 NA
ATOM     13  C   UNL     1      45.897   1.622   8.377  0.00  0.00    +0.000 A 
ATOM     14  C   UNL     1      46.802   2.103   7.472  0.00  0.00    +0.000 A 
ATOM     15  C   UNL     1      46.676   3.439   7.177  0.00  0.00    +0.000 A 
ATOM     16  N   UNL     1      45.745   4.246   7.729  0.00  0.00    +0.000 NA
ATOM     17  H   UNL     1      44.334   5.466   9.083  0.00  0.00    +0.000 HD
ENDBRANCH   9  10
ENDBRANCH   8   9
ENDBRANCH   5   8
ENDBRANCH   1   2
BRANCH   1  20
ATOM     18  O   UNL     1      50.329   6.167  16.082  0.00  0.00    +0.000 OA
ATOM     19  C   UNL     1      49.264   6.748  16.247  0.00  0.00    +0.000 C 
ATOM     20  N   UNL     1      48.456   7.203  15.232  0.00  0.00    +0.000 N 
ATOM     21  H   UNL     1      47.519   7.491  15.468  0.00  0.00    +0.000 HD
BRANCH  19  22
ATOM     22  C   UNL     1      48.587   6.845  17.533  0.00  0.00    +0.000 A 
ATOM     23  C   UNL     1      48.195   8.052  18.079  0.00  0.00    +0.000 A 
ATOM     24  S   UNL     1      47.977   7.932  19.777  0.00  0.00    +0.000 S 
ATOM     25  C   UNL     1      48.272   6.251  19.754  0.00  0.00    +0.000 A 
ATOM     26  N   UNL     1      48.406   5.515  20.891  0.00  0.00    +0.000 NA
ATOM     27  C   UNL     1      48.589   4.250  20.682  0.00  0.00    +0.000 A 
ATOM     28  N   UNL     1      48.596   3.649  19.444  0.00  0.00    +0.000 N 
ATOM     29  C   UNL     1      48.439   4.347  18.275  0.00  0.00    +0.000 A 
ATOM     30  O   UNL     1      48.355   3.788  17.188  0.00  0.00    +0.000 OA
ATOM     31  C   UNL     1      48.374   5.778  18.466  0.00  0.00    +0.000 A 
ATOM     32  H   UNL     1      48.656   2.641  19.362  0.00  0.00    +0.000 HD
ENDBRANCH  19  22
ENDBRANCH   1  20
TORSDOF 6
ENDMDL
MODEL 3
REMARK VINA RESULT:    -7.893      1.599      1.728
REMARK INTER + INTRA:         -11.838
REMARK INTER:                 -10.859
REMARK INTRA:                  -0.979
REMARK UNBOUND:                -1.177
REMARK  Name = 
REMARK  6 active torsions:
REMARK  status: ('A' for Active; 'I' for Inactive)
REMARK    1  A    between atoms: C_2  and  C_20
REMARK    2  A    between atoms: N_3  and  C_4
REMARK    3  A    between atoms: C_4  and  C_5
REMARK    4  A    between atoms: C_8  and  C_9
REMARK    5  A    between atoms: C_9  and  C_10
REMARK    6  A    between atoms: C_10  and  N_11
REMARK                            x       y       z     vdW  Elec       q    Type
REMARK                         _______ _______ _______ _____ _____    ______ ____
ROOT
ATOM      1  C   UNL     1      48.422   7.354  13.909  0.00  0.00    +0.000 C 
ENDROOT
BRANCH   1   2
ATOM      2  C   UNL     1      47.146   6.844  13.293  0.00  0.00    +0.000 A 
ATOM      3  C   UNL     1      46.772   5.515  13.489  0.00  0.00    +0.000 A 
ATOM      4  C   UNL     1      45.612   5.011  12.901  0.00  0.00    +0.000 A 
ATOM      5  C   UNL     1      44.794   5.816  12.090  0.00  0.00    +0.000 A 
ATOM      6  C   UNL     1      45.196   7.139  11.861  0.00  0.00    +0.000 A 
ATOM      7  C   UNL     1      46.360   7.648  12.451  0.00  0.00    +0.000 A 
BRANCH   5   8
ATOM      8  C   UNL     1      43.497   5.314  11.471  0.00  0.00    +0.000 C 
BRANCH   8   9
ATOM      9  C   UNL     1      43.680   4.138  10.505  0.00  0.00    +0.000 C 
BRANCH   9  10
ATOM     10  N   UNL     1      44.002   4.563   9.152  0.00  0.00    +0.000 N 
ATOM     11  C   UNL     1      44.946   3.711   8.567  0.00  0.00    +0.000 A 
ATOM     12  N   UNL     1      44.977   2.412   8.906  0.00  0.00    +0.000 NA
ATOM     13  C   UNL     1      45.936   1.646   8.348  0.00  0.00    +0.000 A 
ATOM     14  C   UNL     1      46.853   2.126   7.455  0.00  0.00    +0.000 A 
ATOM     15  C   UNL     1      46.739   3.464   7.165  0.00  0.00    +0.000 A 
ATOM     16  N   UNL     1      45.807   4.274   7.710  0.00  0.00    +0.000 NA
ATOM     17  H   UNL     1      44.388   5.496   9.055  0.00  0.00    +0.000 HD
ENDBRANCH   9  10
ENDBRANCH   8   9
ENDBRANCH   5   8
ENDBRANCH   1   2
BRANCH   1  20
ATOM     18  O   UNL     1      48.467   8.105  16.677  0.00  0.00    +0.000 OA
ATOM     19  C   UNL     1      48.844   6.998  16.317  0.00  0.00    +0.000 C 
ATOM     20  N   UNL     1      48.765   6.526  15.028  0.00  0.00    +0.000 N 
ATOM     21  H   UNL     1      49.275   5.686  14.802  0.00  0.00    +0.000 HD
BRANCH  19  22
ATOM     22  C   UNL     1      49.634   6.102  17.151  0.00  0.00    +0.000 A 
ATOM     23  C   UNL     1      50.769   6.516  17.821  0.00  0.00    +0.000 A 
ATOM     24  S   UNL     1      51.784   5.190  18.217  0.00  0.00    +0.000 S 
ATOM     25  C   UNL     1      50.647   4.067  17.618  0.00  0.00    +0.000 A 
ATOM     26  N   UNL     1      50.924   2.741  17.489  0.00  0.00    +0.000 NA
ATOM     27  C   UNL     1      49.930   2.034  17.054  0.00  0.00    +0.000 A 
ATOM     28  N   UNL     1      48.672   2.523  16.788  0.00  0.00    +0.000 N 
ATOM     29  C   UNL     1      48.341   3.846  16.927  0.00  0.00    +0.000 A 
ATOM     30  O   UNL     1      47.195   4.251  16.775  0.00  0.00    +0.000 OA
ATOM     31  C   UNL     1      49.465   4.685  17.276  0.00  0.00    +0.000 A 
ATOM     32  H   UNL     1      47.918   1.895  16.534  0.00  0.00    +0.000 HD
ENDBRANCH  19  22
ENDBRANCH   1  20
TORSDOF 6
ENDMDL
MODEL 4
REMARK VINA RESULT:    -7.551      1.810      2.605
REMARK INTER + INTRA:         -11.376
REMARK INTER:                 -10.469
REMARK INTRA:                  -0.907
REMARK UNBOUND:                -1.177
REMARK  Name = 
REMARK  6 active torsions:
REMARK  status: ('A' for Active; 'I' for Inactive)
REMARK    1  A    between atoms: C_2  and  C_20
REMARK    2  A    between atoms: N_3  and  C_4
REMARK    3  A    between atoms: C_4  and  C_5
REMARK    4  A    between atoms: C_8  and  C_9
REMARK    5  A    between atoms: C_9  and  C_10
REMARK    6  A    between atoms: C_10  and  N_11
REMARK                            x       y       z     vdW  Elec       q    Type
REMARK                         _______ _______ _______ _____ _____    ______ ____
ROOT
ATOM      1  C   UNL     1      47.829   7.425  13.399  0.00  0.00    +0.000 C 
ENDROOT
BRANCH   1   2
ATOM      2  C   UNL     1      46.803   6.519  12.774  0.00  0.00    +0.000 A 
ATOM      3  C   UNL     1      46.292   6.825  11.513  0.00  0.00    +0.000 A 
ATOM      4  C   UNL     1      45.317   6.019  10.927  0.00  0.00    +0.000 A 
ATOM      5  C   UNL     1      44.812   4.886  11.588  0.00  0.00    +0.000 A 
ATOM      6  C   UNL     1      45.296   4.605  12.873  0.00  0.00    +0.000 A 
ATOM      7  C   UNL     1      46.277   5.413  13.463  0.00  0.00    +0.000 A 
BRANCH   5   8
ATOM      8  C   UNL     1      43.782   3.957  10.961  0.00  0.00    +0.000 C 
BRANCH   8   9
ATOM      9  C   UNL     1      44.375   2.932   9.988  0.00  0.00    +0.000 C 
BRANCH   9  10
ATOM     10  N   UNL     1      44.386   3.400   8.611  0.00  0.00    +0.000 N 
ATOM     11  C   UNL     1      45.474   2.871   7.907  0.00  0.00    +0.000 A 
ATOM     12  N   UNL     1      45.949   1.655   8.224  0.00  0.00    +0.000 NA
ATOM     13  C   UNL     1      47.027   1.212   7.546  0.00  0.00    +0.000 A 
ATOM     14  C   UNL     1      47.636   1.931   6.555  0.00  0.00    +0.000 A 
ATOM     15  C   UNL     1      47.076   3.158   6.297  0.00  0.00    +0.000 A 
ATOM     16  N   UNL     1      46.008   3.650   6.960  0.00  0.00    +0.000 NA
ATOM     17  H   UNL     1      44.446   4.404   8.479  0.00  0.00    +0.000 HD
ENDBRANCH   9  10
ENDBRANCH   8   9
ENDBRANCH   5   8
ENDBRANCH   1   2
BRANCH   1  20
ATOM     18  O   UNL     1      50.193   6.894  14.936  0.00  0.00    +0.000 OA
ATOM     19  C   UNL     1      49.081   6.816  15.441  0.00  0.00    +0.000 C 
ATOM     20  N   UNL     1      47.908   7.146  14.803  0.00  0.00    +0.000 N 
ATOM     21  H   UNL     1      47.041   6.866  15.235  0.00  0.00    +0.000 HD
BRANCH  19  22
ATOM     22  C   UNL     1      48.813   6.153  16.709  0.00  0.00    +0.000 A 
ATOM     23  C   UNL     1      48.445   4.823  16.792  0.00  0.00    +0.000 A 
ATOM     24  S   UNL     1      47.650   4.481  18.273  0.00  0.00    +0.000 S 
ATOM     25  C   UNL     1      47.921   6.065  18.850  0.00  0.00    +0.000 A 
ATOM     26  N   UNL     1      47.364   6.532  20.001  0.00  0.00    +0.000 NA
ATOM     27  C   UNL     1      47.710   7.742  20.301  0.00  0.00    +0.000 A 
ATOM     28  N   UNL     1      48.602   8.508  19.585  0.00  0.00    +0.000 N 
ATOM     29  C   UNL     1      49.206   8.071  18.436  0.00  0.00    +0.000 A 
ATOM     30  O   UNL     1      50.066   8.726  17.860  0.00  0.00    +0.000 OA
ATOM     31  C   UNL     1      48.734   6.777  17.997  0.00  0.00    +0.000 A 
ATOM     32  H   UNL     1      48.893   9.416  19.929  0.00  0.00    +0.000 HD
ENDBRANCH  19  22
ENDBRANCH   1  20
TORSDOF 6
ENDMDL
MODEL 5
REMARK VINA RESULT:    -7.309      3.126      5.191
REMARK INTER + INTRA:         -11.050
REMARK INTER:                 -10.111
REMARK INTRA:                  -0.939
REMARK UNBOUND:                -1.177
REMARK  Name = 
REMARK  6 active torsions:
REMARK  status: ('A' for Active; 'I' for Inactive)
REMARK    1  A    between atoms: C_2  and  C_20
REMARK    2  A    between atoms: N_3  and  C_4
REMARK    3  A    between atoms: C_4  and  C_5
REMARK    4  A    between atoms: C_8  and  C_9
REMARK    5  A    between atoms: C_9  and  C_10
REMARK    6  A    between atoms: C_10  and  N_11
REMARK                            x       y       z     vdW  Elec       q    Type
REMARK                         _______ _______ _______ _____ _____    ______ ____
ROOT
ATOM      1  C   UNL     1      48.228   6.169  13.754  0.00  0.00    +0.000 C 
ENDROOT
BRANCH   1   2
ATOM      2  C   UNL     1      47.080   5.469  13.077  0.00  0.00    +0.000 A 
ATOM      3  C   UNL     1      46.368   6.128  12.075  0.00  0.00    +0.000 A 
ATOM      4  C   UNL     1      45.280   5.513  11.456  0.00  0.00    +0.000 A 
ATOM      5  C   UNL     1      44.862   4.224  11.826  0.00  0.00    +0.000 A 
ATOM      6  C   UNL     1      45.553   3.581  12.863  0.00  0.00    +0.000 A 
ATOM      7  C   UNL     1      46.647   4.197  13.485  0.00  0.00    +0.000 A 
BRANCH   5   8
ATOM      8  C   UNL     1      43.709   3.502  11.141  0.00  0.00    +0.000 C 
BRANCH   8   9
ATOM      9  C   UNL     1      44.141   2.582   9.994  0.00  0.00    +0.000 C 
BRANCH   9  10
ATOM     10  N   UNL     1      44.324   3.293   8.738  0.00  0.00    +0.000 N 
ATOM     11  C   UNL     1      45.476   2.856   8.075  0.00  0.00    +0.000 A 
ATOM     12  N   UNL     1      45.886   1.584   8.211  0.00  0.00    +0.000 NA
ATOM     13  C   UNL     1      47.027   1.228   7.589  0.00  0.00    +0.000 A 
ATOM     14  C   UNL     1      47.763   2.089   6.823  0.00  0.00    +0.000 A 
ATOM     15  C   UNL     1      47.262   3.364   6.736  0.00  0.00    +0.000 A 
ATOM     16  N   UNL     1      46.134   3.772   7.354  0.00  0.00    +0.000 NA
ATOM     17  H   UNL     1      44.419   4.300   8.803  0.00  0.00    +0.000 HD
ENDBRANCH   9  10
ENDBRANCH   8   9
ENDBRANCH   5   8
ENDBRANCH   1   2
BRANCH   1  20
ATOM     18  O   UNL     1      47.705   8.858  14.610  0.00  0.00    +0.000 OA
ATOM     19  C   UNL     1      48.155   8.626  13.495  0.00  0.00    +0.000 C 
ATOM     20  N   UNL     1      48.523   7.380  13.044  0.00  0.00    +0.000 N 
ATOM     21  H   UNL     1      48.697   7.268  12.057  0.00  0.00    +0.000 HD
BRANCH  19  22
ATOM     22  C   UNL     1      48.159   9.594  12.408  0.00  0.00    +0.000 A 
ATOM     23  C   UNL     1      49.315   9.978  11.756  0.00  0.00    +0.000 A 
ATOM     24  S   UNL     1      49.122  11.492  10.971  0.00  0.00    +0.000 S 
ATOM     25  C   UNL     1      47.468  11.560  11.387  0.00  0.00    +0.000 A 
ATOM     26  N   UNL     1      46.704  12.666  11.174  0.00  0.00    +0.000 NA
ATOM     27  C   UNL     1      45.463  12.524  11.517  0.00  0.00    +0.000 A 
ATOM     28  N   UNL     1      44.907  11.363  12.002  0.00  0.00    +0.000 N 
ATOM     29  C   UNL     1      45.632  10.218  12.207  0.00  0.00    +0.000 A 
ATOM     30  O   UNL     1      45.107   9.166  12.552  0.00  0.00    +0.000 OA
ATOM     31  C   UNL     1      47.048  10.385  11.968  0.00  0.00    +0.000 A 
ATOM     32  H   UNL     1      43.910  11.299  12.165  0.00  0.00    +0.000 HD
ENDBRANCH  19  22
ENDBRANCH   1  20
TORSDOF 6
ENDMDL
MODEL 6
REMARK VINA RESULT:    -7.189      1.867      3.313
REMARK INTER + INTRA:         -10.888
REMARK INTER:                  -9.941
REMARK INTRA:                  -0.947
REMARK UNBOUND:                -1.177
REMARK  Name = 
REMARK  6 active torsions:
REMARK  status: ('A' for Active; 'I' for Inactive)
REMARK    1  A    between atoms: C_2  and  C_20
REMARK    2  A    between atoms: N_3  and  C_4
REMARK    3  A    between atoms: C_4  and  C_5
REMARK    4  A    between atoms: C_8  and  C_9
REMARK    5  A    between atoms: C_9  and  C_10
REMARK    6  A    between atoms: C_10  and  N_11
REMARK                            x       y       z     vdW  Elec       q    Type
REMARK                         _______ _______ _______ _____ _____    ______ ____
ROOT
ATOM      1  C   UNL     1      47.415   4.285  15.854  0.00  0.00    +0.000 C 
ENDROOT
BRANCH   1   2
ATOM      2  C   UNL     1      46.886   4.583  14.476  0.00  0.00    +0.000 A 
ATOM      3  C   UNL     1      46.999   5.874  13.961  0.00  0.00    +0.000 A 
ATOM      4  C   UNL     1      46.488   6.183  12.702  0.00  0.00    +0.000 A 
ATOM      5  C   UNL     1      45.837   5.214  11.919  0.00  0.00    +0.000 A 
ATOM      6  C   UNL     1      45.687   3.928  12.457  0.00  0.00    +0.000 A 
ATOM      7  C   UNL     1      46.201   3.615  13.723  0.00  0.00    +0.000 A 
BRANCH   5   8
ATOM      8  C   UNL     1      45.308   5.502  10.521  0.00  0.00    +0.000 C 
BRANCH   8   9
ATOM      9  C   UNL     1      44.478   4.362   9.920  0.00  0.00    +0.000 C 
BRANCH   9  10
ATOM     10  N   UNL     1      44.464   4.379   8.466  0.00  0.00    +0.000 N 
ATOM     11  C   UNL     1      45.331   3.413   7.943  0.00  0.00    +0.000 A 
ATOM     12  N   UNL     1      45.546   2.270   8.616  0.00  0.00    +0.000 NA
ATOM     13  C   UNL     1      46.426   1.395   8.090  0.00  0.00    +0.000 A 
ATOM     14  C   UNL     1      47.085   1.611   6.912  0.00  0.00    +0.000 A 
ATOM     15  C   UNL     1      46.796   2.803   6.293  0.00  0.00    +0.000 A 
ATOM     16  N   UNL     1      45.936   3.717   6.789  0.00  0.00    +0.000 NA
ATOM     17  H   UNL     1      44.738   5.250   8.025  0.00  0.00    +0.000 HD
ENDBRANCH   9  10
ENDBRANCH   8   9
ENDBRANCH   5   8
ENDBRANCH   1   2
BRANCH   1  20
ATOM     18  O   UNL     1      50.123   4.707  16.703  0.00  0.00    +0.000 OA
ATOM     19  C   UNL     1      49.267   5.566  16.872  0.00  0.00    +0.000 C 
ATOM     20  N   UNL     1      47.974   5.482  16.411  0.00  0.00    +0.000 N 
ATOM     21  H   UNL     1      47.303   6.145  16.766  0.00  0.00    +0.000 HD
BRANCH  19  22
ATOM     22  C   UNL     1      49.424   6.697  17.775  0.00  0.00    +0.000 A 
ATOM     23  C   UNL     1      49.817   6.551  19.091  0.00  0.00    +0.000 A 
ATOM     24  S   UNL     1      49.362   7.907  20.039  0.00  0.00    +0.000 S 
ATOM     25  C   UNL     1      48.768   8.736  18.669  0.00  0.00    +0.000 A 
ATOM     26  N   UNL     1      48.079   9.906  18.762  0.00  0.00    +0.000 NA
ATOM     27  C   UNL     1      47.740  10.410  17.619  0.00  0.00    +0.000 A 
ATOM     28  N   UNL     1      48.073   9.880  16.394  0.00  0.00    +0.000 N 
ATOM     29  C   UNL     1      48.786   8.719  16.252  0.00  0.00    +0.000 A 
ATOM     30  O   UNL     1      49.154   8.309  15.158  0.00  0.00    +0.000 OA
ATOM     31  C   UNL     1      49.059   8.057  17.508  0.00  0.00    +0.000 A 
ATOM     32  H   UNL     1      47.848  10.378  15.540  0.00  0.00    +0.000 HD
ENDBRANCH  19  22
ENDBRANCH   1  20
TORSDOF 6
ENDMDL
MODEL 7
REMARK VINA RESULT:    -6.867      2.960      4.773
REMARK INTER + INTRA:         -10.452
REMARK INTER:                  -9.580
REMARK INTRA:                  -0.872
REMARK UNBOUND:                -1.177
REMARK  Name = 
REMARK  6 active torsions:
REMARK  status: ('A' for Active; 'I' for Inactive)
REMARK    1  A    between atoms: C_2  and  C_20
REMARK    2  A    between atoms: N_3  and  C_4
REMARK    3  A    between atoms: C_4  and  C_5
REMARK    4  A    between atoms: C_8  and  C_9
REMARK    5  A    between atoms: C_9  and  C_10
REMARK    6  A    between atoms: C_10  and  N_11
REMARK                            x       y       z     vdW  Elec       q    Type
REMARK                         _______ _______ _______ _____ _____    ______ ____
ROOT
ATOM      1  C   UNL     1      48.224   6.185  14.384  0.00  0.00    +0.000 C 
ENDROOT
BRANCH   1   2
ATOM      2  C   UNL     1      47.068   5.881  13.467  0.00  0.00    +0.000 A 
ATOM      3  C   UNL     1      46.919   6.608  12.286  0.00  0.00    +0.000 A 
ATOM      4  C   UNL     1      45.839   6.367  11.438  0.00  0.00    +0.000 A 
ATOM      5  C   UNL     1      44.867   5.401  11.747  0.00  0.00    +0.000 A 
ATOM      6  C   UNL     1      44.997   4.702  12.955  0.00  0.00    +0.000 A 
ATOM      7  C   UNL     1      46.083   4.941  13.809  0.00  0.00    +0.000 A 
BRANCH   5   8
ATOM      8  C   UNL     1      43.701   5.079  10.823  0.00  0.00    +0.000 C 
BRANCH   8   9
ATOM      9  C   UNL     1      43.933   3.857   9.926  0.00  0.00    +0.000 C 
BRANCH   9  10
ATOM     10  N   UNL     1      44.296   4.218   8.563  0.00  0.00    +0.000 N 
ATOM     11  C   UNL     1      45.308   3.384   8.074  0.00  0.00    +0.000 A 
ATOM     12  N   UNL     1      45.388   2.111   8.494  0.00  0.00    +0.000 NA
ATOM     13  C   UNL     1      46.410   1.365   8.027  0.00  0.00    +0.000 A 
ATOM     14  C   UNL     1      47.342   1.839   7.146  0.00  0.00    +0.000 A 
ATOM     15  C   UNL     1      47.174   3.149   6.769  0.00  0.00    +0.000 A 
ATOM     16  N   UNL     1      46.178   3.939   7.222  0.00  0.00    +0.000 NA
ATOM     17  H   UNL     1      44.638   5.162   8.426  0.00  0.00    +0.000 HD
ENDBRANCH   9  10
ENDBRANCH   8   9
ENDBRANCH   5   8
ENDBRANCH   1   2
BRANCH   1  20
ATOM     18  O   UNL     1      48.224   8.921  15.247  0.00  0.00    +0.000 OA
ATOM     19  C   UNL     1      48.855   8.570  14.258  0.00  0.00    +0.000 C 
ATOM     20  N   UNL     1      48.985   7.269  13.834  0.00  0.00    +0.000 N 
ATOM     21  H   UNL     1      49.358   7.108  12.911  0.00  0.00    +0.000 HD
BRANCH  19  22
ATOM     22  C   UNL     1      49.373   9.495  13.260  0.00  0.00    +0.000 A 
ATOM     23  C   UNL     1      48.589  10.466  12.666  0.00  0.00    +0.000 A 
ATOM     24  S   UNL     1      49.258  10.989  11.175  0.00  0.00    +0.000 S 
ATOM     25  C   UNL     1      50.649  10.024  11.395  0.00  0.00    +0.000 A 
ATOM     26  N   UNL     1      51.585   9.855  10.421  0.00  0.00    +0.000 NA
ATOM     27  C   UNL     1      52.590   9.120  10.778  0.00  0.00    +0.000 A 
ATOM     28  N   UNL     1      52.769   8.586  12.034  0.00  0.00    +0.000 N 
ATOM     29  C   UNL     1      51.867   8.752  13.051  0.00  0.00    +0.000 A 
ATOM     30  O   UNL     1      52.083   8.350  14.188  0.00  0.00    +0.000 OA
ATOM     31  C   UNL     1      50.667   9.448  12.645  0.00  0.00    +0.000 A 
ATOM     32  H   UNL     1      53.625   8.095  12.266  0.00  0.00    +0.000 HD
ENDBRANCH  19  22
ENDBRANCH   1  20
TORSDOF 6
ENDMDL
MODEL 8
REMARK VINA RESULT:    -6.820      2.487      3.392
REMARK INTER + INTRA:         -10.388
REMARK INTER:                  -9.602
REMARK INTRA:                  -0.787
REMARK UNBOUND:                -1.177
REMARK  Name = 
REMARK  6 active torsions:
REMARK  status: ('A' for Active; 'I' for Inactive)
REMARK    1  A    between atoms: C_2  and  C_20
REMARK    2  A    between atoms: N_3  and  C_4
REMARK    3  A    between atoms: C_4  and  C_5
REMARK    4  A    between atoms: C_8  and  C_9
REMARK    5  A    between atoms: C_9  and  C_10
REMARK    6  A    between atoms: C_10  and  N_11
REMARK                            x       y       z     vdW  Elec       q    Type
REMARK                         _______ _______ _______ _____ _____    ______ ____
ROOT
ATOM      1  C   UNL     1      47.642   4.361  15.951  0.00  0.00    +0.000 C 
ENDROOT
BRANCH   1   2
ATOM      2  C   UNL     1      47.029   4.688  14.616  0.00  0.00    +0.000 A 
ATOM      3  C   UNL     1      46.315   3.706  13.929  0.00  0.00    +0.000 A 
ATOM      4  C   UNL     1      45.767   3.975  12.675  0.00  0.00    +0.000 A 
ATOM      5  C   UNL     1      45.922   5.230  12.063  0.00  0.00    +0.000 A 
ATOM      6  C   UNL     1      46.676   6.201  12.737  0.00  0.00    +0.000 A 
ATOM      7  C   UNL     1      47.227   5.933  13.997  0.00  0.00    +0.000 A 
BRANCH   5   8
ATOM      8  C   UNL     1      45.298   5.575  10.718  0.00  0.00    +0.000 C 
BRANCH   8   9
ATOM      9  C   UNL     1      44.683   4.374   9.989  0.00  0.00    +0.000 C 
BRANCH   9  10
ATOM     10  N   UNL     1      44.749   4.499   8.541  0.00  0.00    +0.000 N 
ATOM     11  C   UNL     1      45.544   3.490   7.985  0.00  0.00    +0.000 A 
ATOM     12  N   UNL     1      45.610   2.286   8.576  0.00  0.00    +0.000 NA
ATOM     13  C   UNL     1      46.428   1.366   8.025  0.00  0.00    +0.000 A 
ATOM     14  C   UNL     1      47.167   1.599   6.899  0.00  0.00    +0.000 A 
ATOM     15  C   UNL     1      47.030   2.856   6.363  0.00  0.00    +0.000 A 
ATOM     16  N   UNL     1      46.237   3.815   6.887  0.00  0.00    +0.000 NA
ATOM     17  H   UNL     1      45.130   5.367   8.183  0.00  0.00    +0.000 HD
ENDBRANCH   9  10
ENDBRANCH   8   9
ENDBRANCH   5   8
ENDBRANCH   1   2
BRANCH   1  20
ATOM     18  O   UNL     1      50.325   4.806  16.868  0.00  0.00    +0.000 OA
ATOM     19  C   UNL     1      49.456   5.655  17.021  0.00  0.00    +0.000 C 
ATOM     20  N   UNL     1      48.176   5.561  16.528  0.00  0.00    +0.000 N 
ATOM     21  H   UNL     1      47.489   6.215  16.871  0.00  0.00    +0.000 HD
BRANCH  19  22
ATOM     22  C   UNL     1      49.579   6.782  17.934  0.00  0.00    +0.000 A 
ATOM     23  C   UNL     1      49.794   8.075  17.497  0.00  0.00    +0.000 A 
ATOM     24  S   UNL     1      50.465   9.055  18.736  0.00  0.00    +0.000 S 
ATOM     25  C   UNL     1      50.339   7.795  19.880  0.00  0.00    +0.000 A 
ATOM     26  N   UNL     1      50.880   7.879  21.126  0.00  0.00    +0.000 NA
ATOM     27  C   UNL     1      50.653   6.844  21.870  0.00  0.00    +0.000 A 
ATOM     28  N   UNL     1      49.891   5.759  21.501  0.00  0.00    +0.000 N 
ATOM     29  C   UNL     1      49.306   5.644  20.267  0.00  0.00    +0.000 A 
ATOM     30  O   UNL     1      48.556   4.717  19.985  0.00  0.00    +0.000 OA
ATOM     31  C   UNL     1      49.657   6.716  19.364  0.00  0.00    +0.000 A 
ATOM     32  H   UNL     1      49.683   5.026  22.168  0.00  0.00    +0.000 HD
ENDBRANCH  19  22
ENDBRANCH   1  20
TORSDOF 6
ENDMDL
MODEL 9
REMARK VINA RESULT:    -6.787      2.623      4.523
REMARK INTER + INTRA:         -10.344
REMARK INTER:                  -9.334
REMARK INTRA:                  -1.010
REMARK UNBOUND:                -1.177
REMARK  Name = 
REMARK  6 active torsions:
REMARK  status: ('A' for Active; 'I' for Inactive)
REMARK    1  A    between atoms: C_2  and  C_20
REMARK    2  A    between atoms: N_3  and  C_4
REMARK    3  A    between atoms: C_4  and  C_5
REMARK    4  A    between atoms: C_8  and  C_9
REMARK    5  A    between atoms: C_9  and  C_10
REMARK    6  A    between atoms: C_10  and  N_11
REMARK                            x       y       z     vdW  Elec       q    Type
REMARK                         _______ _______ _______ _____ _____    ______ ____
ROOT
ATOM      1  C   UNL     1      47.861   6.037  14.327  0.00  0.00    +0.000 C 
ENDROOT
BRANCH   1   2
ATOM      2  C   UNL     1      46.775   5.677  13.348  0.00  0.00    +0.000 A 
ATOM      3  C   UNL     1      46.684   6.366  12.139  0.00  0.00    +0.000 A 
ATOM      4  C   UNL     1      45.668   6.073  11.230  0.00  0.00    +0.000 A 
ATOM      5  C   UNL     1      44.703   5.090  11.505  0.00  0.00    +0.000 A 
ATOM      6  C   UNL     1      44.772   4.428  12.739  0.00  0.00    +0.000 A 
ATOM      7  C   UNL     1      45.794   4.720  13.653  0.00  0.00    +0.000 A 
BRANCH   5   8
ATOM      8  C   UNL     1      43.607   4.711  10.518  0.00  0.00    +0.000 C 
BRANCH   8   9
ATOM      9  C   UNL     1      44.117   3.987   9.267  0.00  0.00    +0.000 C 
BRANCH   9  10
ATOM     10  N   UNL     1      44.864   2.778   9.578  0.00  0.00    +0.000 N 
ATOM     11  C   UNL     1      45.790   2.485   8.570  0.00  0.00    +0.000 A 
ATOM     12  N   UNL     1      46.354   3.481   7.868  0.00  0.00    +0.000 NA
ATOM     13  C   UNL     1      47.203   3.141   6.877  0.00  0.00    +0.000 A 
ATOM     14  C   UNL     1      47.521   1.846   6.574  0.00  0.00    +0.000 A 
ATOM     15  C   UNL     1      46.900   0.898   7.350  0.00  0.00    +0.000 A 
ATOM     16  N   UNL     1      46.031   1.188   8.340  0.00  0.00    +0.000 NA
ATOM     17  H   UNL     1      44.318   1.931   9.693  0.00  0.00    +0.000 HD
ENDBRANCH   9  10
ENDBRANCH   8   9
ENDBRANCH   5   8
ENDBRANCH   1   2
BRANCH   1  20
ATOM     18  O   UNL     1      50.369   7.166  15.145  0.00  0.00    +0.000 OA
ATOM     19  C   UNL     1      49.558   7.825  14.507  0.00  0.00    +0.000 C 
ATOM     20  N   UNL     1      48.380   7.332  13.996  0.00  0.00    +0.000 N 
ATOM     21  H   UNL     1      47.699   7.995  13.658  0.00  0.00    +0.000 HD
BRANCH  19  22
ATOM     22  C   UNL     1      49.610   9.275  14.387  0.00  0.00    +0.000 A 
ATOM     23  C   UNL     1      49.905  10.101  15.454  0.00  0.00    +0.000 A 
ATOM     24  S   UNL     1      49.337  11.698  15.191  0.00  0.00    +0.000 S 
ATOM     25  C   UNL     1      48.824  11.315  13.608  0.00  0.00    +0.000 A 
ATOM     26  N   UNL     1      48.094  12.174  12.846  0.00  0.00    +0.000 NA
ATOM     27  C   UNL     1      47.827  11.730  11.660  0.00  0.00    +0.000 A 
ATOM     28  N   UNL     1      48.269  10.532  11.148  0.00  0.00    +0.000 N 
ATOM     29  C   UNL     1      49.028   9.648  11.870  0.00  0.00    +0.000 A 
ATOM     30  O   UNL     1      49.491   8.628  11.373  0.00  0.00    +0.000 OA
ATOM     31  C   UNL     1      49.224  10.049  13.244  0.00  0.00    +0.000 A 
ATOM     32  H   UNL     1      48.095  10.290  10.180  0.00  0.00    +0.000 HD
ENDBRANCH  19  22
ENDBRANCH   1  20
TORSDOF 6
ENDMDL
