MODEL 1
REMARK VINA RESULT:    -8.380      0.000      0.000
REMARK INTER + INTRA:         -13.095
REMARK INTER:                 -12.054
REMARK INTRA:                  -1.040
REMARK UNBOUND:                -1.040
REMARK  Name = 
REMARK  8 active torsions:
REMARK  status: ('A' for Active; 'I' for Inactive)
REMARK    1  A    between atoms: C_2  and  C_20
REMARK    2  A    between atoms: N_3  and  C_4
REMARK    3  A    between atoms: C_4  and  C_5
REMARK    4  A    between atoms: C_8  and  C_9
REMARK    5  A    between atoms: C_9  and  O_10
REMARK    6  A    between atoms: O_10  and  C_11
REMARK    7  A    between atoms: C_11  and  C_12
REMARK    8  A    between atoms: C_27  and  O_28
REMARK                            x       y       z     vdW  Elec       q    Type
REMARK                         _______ _______ _______ _____ _____    ______ ____
ROOT
ATOM      1  O   UNL     1      50.299   6.495  15.570  0.00  0.00    +0.000 OA
ATOM      2  C   UNL     1      49.273   6.013  16.042  0.00  0.00    +0.000 C 
ATOM      3  N   UNL     1      48.071   6.028  15.374  0.00  0.00    +0.000 N 
ATOM      4  H   UNL     1      47.222   5.787  15.873  0.00  0.00    +0.000 HD
ENDROOT
BRANCH   2   5
ATOM      5  C   UNL     1      49.262   5.346  17.339  0.00  0.00    +0.000 A 
ATOM      6  C   UNL     1      49.942   4.168  17.626  0.00  0.00    +0.000 A 
ATOM      7  N   UNL     1      49.723   3.847  18.940  0.00  0.00    +0.000 N 
ATOM      8  C   UNL     1      48.925   4.791  19.517  0.00  0.00    +0.000 A 
ATOM      9  N   UNL     1      48.525   4.789  20.797  0.00  0.00    +0.000 NA
ATOM     10  C   UNL     1      47.760   5.863  21.080  0.00  0.00    +0.000 A 
ATOM     11  N   UNL     1      47.378   6.858  20.256  0.00  0.00    +0.000 NA
ATOM     12  C   UNL     1      47.814   6.780  18.995  0.00  0.00    +0.000 A 
ATOM     13  C   UNL     1      48.616   5.739  18.554  0.00  0.00    +0.000 A 
ATOM     14  H   UNL     1      50.094   3.041  19.429  0.00  0.00    +0.000 HD
BRANCH  12  15
ATOM     15  O   UNL     1      47.399   7.797  18.182  0.00  0.00    +0.000 OA
ATOM     16  H   UNL     1      47.362   7.338  17.324  0.00  0.00    +0.000 HD
ENDBRANCH  12  15
ENDBRANCH   2   5
BRANCH   3  17
ATOM     17  C   UNL     1      47.950   6.720  14.120  0.00  0.00    +0.000 C 
BRANCH  17  18
ATOM     18  C   UNL     1      46.885   6.133  13.232  0.00  0.00    +0.000 A 
ATOM     19  C   UNL     1      46.153   5.010  13.641  0.00  0.00    +0.000 A 
ATOM     20  C   UNL     1      45.127   4.500  12.840  0.00  0.00    +0.000 A 
ATOM     21  C   UNL     1      44.824   5.101  11.610  0.00  0.00    +0.000 A 
ATOM     22  C   UNL     1      45.567   6.212  11.194  0.00  0.00    +0.000 A 
ATOM     23  C   UNL     1      46.593   6.718  11.993  0.00  0.00    +0.000 A 
BRANCH  21  24
ATOM     24  C   UNL     1      43.671   4.606  10.772  0.00  0.00    +0.000 C 
BRANCH  24  25
ATOM     25  O   UNL     1      44.094   4.169   9.479  0.00  0.00    +0.000 OA
BRANCH  25  26
ATOM     26  C   UNL     1      44.465   2.791   9.460  0.00  0.00    +0.000 C 
BRANCH  26  27
ATOM     27  C   UNL     1      45.483   2.560   8.377  0.00  0.00    +0.000 A 
ATOM     28  C   UNL     1      45.811   3.584   7.474  0.00  0.00    +0.000 A 
ATOM     29  C   UNL     1      46.791   3.382   6.503  0.00  0.00    +0.000 A 
ATOM     30  C   UNL     1      47.454   2.159   6.424  0.00  0.00    +0.000 A 
ATOM     31  C   UNL     1      47.125   1.130   7.305  0.00  0.00    +0.000 A 
ATOM     32  C   UNL     1      46.142   1.328   8.276  0.00  0.00    +0.000 A 
ENDBRANCH  26  27
ENDBRANCH  25  26
ENDBRANCH  24  25
ENDBRANCH  21  24
ENDBRANCH  17  18
ENDBRANCH   3  17
TORSDOF 8
ENDMDL
MODEL 2
REMARK VINA RESULT:    -8.265      1.361      2.209
REMARK INTER + INTRA:         -12.929
REMARK INTER:                 -11.658
REMARK INTRA:                  -1.271
REMARK UNBOUND:                -1.040
REMARK  Name = 
REMARK  8 active torsions:
REMARK  status: ('A' for Active; 'I' for Inactive)
REMARK    1  A    between atoms: C_2  and  C_20
REMARK    2  A    between atoms: N_3  and  C_4
REMARK    3  A    between atoms: C_4  and  C_5
REMARK    4  A    between atoms: C_8  and  C_9
REMARK    5  A    between atoms: C_9  and  O_10
REMARK    6  A    between atoms: O_10  and  C_11
REMARK    7  A    between atoms: C_11  and  C_12
REMARK    8  A    between atoms: C_27  and  O_28
REMARK                            x       y       z     vdW  Elec       q    Type
REMARK                         _______ _______ _______ _____ _____    ______ ____
ROOT
ATOM      1  O   UNL     1      50.250   7.377  14.721  0.00  0.00    +0.000 OA
ATOM      2  C   UNL     1      49.292   6.899  15.322  0.00  0.00    +0.000 C 
ATOM      3  N   UNL     1      48.089   6.636  14.711  0.00  0.00    +0.000 N 
ATOM      4  H   UNL     1      47.279   6.418  15.282  0.00  0.00    +0.000 HD
ENDROOT
BRANCH   2   5
ATOM      5  C   UNL     1      49.373   6.534  16.732  0.00  0.00    +0.000 A 
ATOM      6  C   UNL     1      49.851   7.368  17.737  0.00  0.00    +0.000 A 
ATOM      7  N   UNL     1      49.761   6.706  18.933  0.00  0.00    +0.000 N 
ATOM      8  C   UNL     1      49.231   5.466  18.734  0.00  0.00    +0.000 A 
ATOM      9  N   UNL     1      48.995   4.560  19.694  0.00  0.00    +0.000 NA
ATOM     10  C   UNL     1      48.447   3.435  19.193  0.00  0.00    +0.000 A 
ATOM     11  N   UNL     1      48.145   3.151  17.911  0.00  0.00    +0.000 NA
ATOM     12  C   UNL     1      48.418   4.104  17.015  0.00  0.00    +0.000 A 
ATOM     13  C   UNL     1      48.976   5.320  17.378  0.00  0.00    +0.000 A 
ATOM     14  H   UNL     1      50.036   7.067  19.840  0.00  0.00    +0.000 HD
BRANCH  12  15
ATOM     15  O   UNL     1      48.112   3.780  15.724  0.00  0.00    +0.000 OA
ATOM     16  H   UNL     1      47.787   2.869  15.839  0.00  0.00    +0.000 HD
ENDBRANCH  12  15
ENDBRANCH   2   5
BRANCH   3  17
ATOM     17  C   UNL     1      47.874   7.022  13.343  0.00  0.00    +0.000 C 
BRANCH  17  18
ATOM     18  C   UNL     1      46.740   6.270  12.699  0.00  0.00    +0.000 A 
ATOM     19  C   UNL     1      46.413   6.486  11.353  0.00  0.00    +0.000 A 
ATOM     20  C   UNL     1      45.396   5.746  10.741  0.00  0.00    +0.000 A 
ATOM     21  C   UNL     1      44.683   4.785  11.470  0.00  0.00    +0.000 A 
ATOM     22  C   UNL     1      44.999   4.581  12.820  0.00  0.00    +0.000 A 
ATOM     23  C   UNL     1      46.012   5.323  13.430  0.00  0.00    +0.000 A 
BRANCH  21  24
ATOM     24  C   UNL     1      43.636   3.929  10.802  0.00  0.00    +0.000 C 
BRANCH  24  25
ATOM     25  O   UNL     1      44.008   3.562   9.473  0.00  0.00    +0.000 OA
BRANCH  25  26
ATOM     26  C   UNL     1      44.716   2.323   9.423  0.00  0.00    +0.000 C 
BRANCH  26  27
ATOM     27  C   UNL     1      45.717   2.361   8.301  0.00  0.00    +0.000 A 
ATOM     28  C   UNL     1      46.498   1.235   8.001  0.00  0.00    +0.000 A 
ATOM     29  C   UNL     1      47.389   1.258   6.928  0.00  0.00    +0.000 A 
ATOM     30  C   UNL     1      47.507   2.404   6.144  0.00  0.00    +0.000 A 
ATOM     31  C   UNL     1      46.747   3.534   6.443  0.00  0.00    +0.000 A 
ATOM     32  C   UNL     1      45.858   3.514   7.518  0.00  0.00    +0.000 A 
ENDBRANCH  26  27
ENDBRANCH  25  26
ENDBRANCH  24  25
ENDBRANCH  21  24
ENDBRANCH  17  18
ENDBRANCH   3  17
TORSDOF 8
ENDMDL
MODEL 3
REMARK VINA RESULT:    -7.839      1.073      1.491
REMARK INTER + INTRA:         -12.317
REMARK INTER:                 -11.273
REMARK INTRA:                  -1.044
REMARK UNBOUND:                -1.040
REMARK  Name = 
REMARK  8 active torsions:
REMARK  status: ('A' for Active; 'I' for Inactive)
REMARK    1  A    between atoms: C_2  and  C_20
REMARK    2  A    between atoms: N_3  and  C_4
REMARK    3  A    between atoms: C_4  and  C_5
REMARK    4  A    between atoms: C_8  and  C_9
REMARK    5  A    between atoms: C_9  and  O_10
REMARK    6  A    between atoms: O_10  and  C_11
REMARK    7  A    between atoms: C_11  and  C_12
REMARK    8  A    between atoms: C_27  and  O_28
REMARK                            x       y       z     vdW  Elec       q    Type
REMARK                         _______ _______ _______ _____ _____    ______ ____
ROOT
ATOM      1  O   UNL     1      50.235   7.274  14.884  0.00  0.00    +0.000 OA
ATOM      2  C   UNL     1      49.254   6.802  15.451  0.00  0.00    +0.000 C 
ATOM      3  N   UNL     1      48.101   6.466  14.782  0.00  0.00    +0.000 N 
ATOM      4  H   UNL     1      47.262   6.256  15.312  0.00  0.00    +0.000 HD
ENDROOT
BRANCH   2   5
ATOM      5  C   UNL     1      49.253   6.523  16.883  0.00  0.00    +0.000 A 
ATOM      6  C   UNL     1      49.897   5.442  17.476  0.00  0.00    +0.000 A 
ATOM      7  N   UNL     1      49.702   5.509  18.831  0.00  0.00    +0.000 N 
ATOM      8  C   UNL     1      48.956   6.609  19.135  0.00  0.00    +0.000 A 
ATOM      9  N   UNL     1      48.590   6.980  20.370  0.00  0.00    +0.000 NA
ATOM     10  C   UNL     1      47.873   8.121  20.355  0.00  0.00    +0.000 A 
ATOM     11  N   UNL     1      47.506   8.864  19.293  0.00  0.00    +0.000 NA
ATOM     12  C   UNL     1      47.905   8.421  18.096  0.00  0.00    +0.000 A 
ATOM     13  C   UNL     1      48.656   7.265  17.950  0.00  0.00    +0.000 A 
ATOM     14  H   UNL     1      50.056   4.855  19.519  0.00  0.00    +0.000 HD
BRANCH  12  15
ATOM     15  O   UNL     1      47.506   9.190  17.039  0.00  0.00    +0.000 OA
ATOM     16  H   UNL     1      46.649   9.517  17.368  0.00  0.00    +0.000 HD
ENDBRANCH  12  15
ENDBRANCH   2   5
BRANCH   3  17
ATOM     17  C   UNL     1      47.965   6.763  13.382  0.00  0.00    +0.000 C 
BRANCH  17  18
ATOM     18  C   UNL     1      46.807   6.043  12.745  0.00  0.00    +0.000 A 
ATOM     19  C   UNL     1      46.390   6.368  11.446  0.00  0.00    +0.000 A 
ATOM     20  C   UNL     1      45.351   5.660  10.836  0.00  0.00    +0.000 A 
ATOM     21  C   UNL     1      44.705   4.620  11.519  0.00  0.00    +0.000 A 
ATOM     22  C   UNL     1      45.110   4.307  12.822  0.00  0.00    +0.000 A 
ATOM     23  C   UNL     1      46.145   5.017  13.432  0.00  0.00    +0.000 A 
BRANCH  21  24
ATOM     24  C   UNL     1      43.633   3.801  10.843  0.00  0.00    +0.000 C 
BRANCH  24  25
ATOM     25  O   UNL     1      44.005   3.415   9.519  0.00  0.00    +0.000 OA
BRANCH  25  26
ATOM     26  C   UNL     1      44.812   2.237   9.497  0.00  0.00    +0.000 C 
BRANCH  26  27
ATOM     27  C   UNL     1      45.719   2.273   8.298  0.00  0.00    +0.000 A 
ATOM     28  C   UNL     1      45.837   3.438   7.525  0.00  0.00    +0.000 A 
ATOM     29  C   UNL     1      46.717   3.483   6.444  0.00  0.00    +0.000 A 
ATOM     30  C   UNL     1      47.488   2.367   6.125  0.00  0.00    +0.000 A 
ATOM     31  C   UNL     1      47.367   1.199   6.876  0.00  0.00    +0.000 A 
ATOM     32  C   UNL     1      46.485   1.150   7.956  0.00  0.00    +0.000 A 
ENDBRANCH  26  27
ENDBRANCH  25  26
ENDBRANCH  24  25
ENDBRANCH  21  24
ENDBRANCH  17  18
ENDBRANCH   3  17
TORSDOF 8
ENDMDL
MODEL 4
REMARK VINA RESULT:    -7.597      3.593      5.589
REMARK INTER + INTRA:         -11.968
REMARK INTER:                 -10.883
REMARK INTRA:                  -1.084
REMARK UNBOUND:                -1.040
REMARK  Name = 
REMARK  8 active torsions:
REMARK  status: ('A' for Active; 'I' for Inactive)
REMARK    1  A    between atoms: C_2  and  C_20
REMARK    2  A    between atoms: N_3  and  C_4
REMARK    3  A    between atoms: C_4  and  C_5
REMARK    4  A    between atoms: C_8  and  C_9
REMARK    5  A    between atoms: C_9  and  O_10
REMARK    6  A    between atoms: O_10  and  C_11
REMARK    7  A    between atoms: C_11  and  C_12
REMARK    8  A    between atoms: C_27  and  O_28
REMARK                            x       y       z     vdW  Elec       q    Type
REMARK                         _______ _______ _______ _____ _____    ______ ____
ROOT
ATOM      1  O   UNL     1      49.412   6.511  12.285  0.00  0.00    +0.000 OA
ATOM      2  C   UNL     1      48.697   7.430  12.674  0.00  0.00    +0.000 C 
ATOM      3  N   UNL     1      47.773   7.277  13.681  0.00  0.00    +0.000 N 
ATOM      4  H   UNL     1      47.086   8.004  13.839  0.00  0.00    +0.000 HD
ENDROOT
BRANCH   2   5
ATOM      5  C   UNL     1      48.804   8.775  12.120  0.00  0.00    +0.000 A 
ATOM      6  C   UNL     1      49.981   9.339  11.639  0.00  0.00    +0.000 A 
ATOM      7  N   UNL     1      49.704  10.599  11.179  0.00  0.00    +0.000 N 
ATOM      8  C   UNL     1      48.377  10.867  11.340  0.00  0.00    +0.000 A 
ATOM      9  N   UNL     1      47.767  12.008  10.984  0.00  0.00    +0.000 NA
ATOM     10  C   UNL     1      46.447  11.969  11.250  0.00  0.00    +0.000 A 
ATOM     11  N   UNL     1      45.735  10.971  11.809  0.00  0.00    +0.000 NA
ATOM     12  C   UNL     1      46.418   9.872  12.141  0.00  0.00    +0.000 A 
ATOM     13  C   UNL     1      47.783   9.757  11.923  0.00  0.00    +0.000 A 
ATOM     14  H   UNL     1      50.369  11.247  10.771  0.00  0.00    +0.000 HD
BRANCH  12  15
ATOM     15  O   UNL     1      45.670   8.884  12.717  0.00  0.00    +0.000 OA
ATOM     16  H   UNL     1      45.000   9.415  13.185  0.00  0.00    +0.000 HD
ENDBRANCH  12  15
ENDBRANCH   2   5
BRANCH   3  17
ATOM     17  C   UNL     1      47.534   5.978  14.249  0.00  0.00    +0.000 C 
BRANCH  17  18
ATOM     18  C   UNL     1      46.432   5.230  13.548  0.00  0.00    +0.000 A 
ATOM     19  C   UNL     1      45.271   5.896  13.129  0.00  0.00    +0.000 A 
ATOM     20  C   UNL     1      44.274   5.211  12.428  0.00  0.00    +0.000 A 
ATOM     21  C   UNL     1      44.417   3.846  12.144  0.00  0.00    +0.000 A 
ATOM     22  C   UNL     1      45.569   3.178  12.578  0.00  0.00    +0.000 A 
ATOM     23  C   UNL     1      46.562   3.861  13.280  0.00  0.00    +0.000 A 
BRANCH  21  24
ATOM     24  C   UNL     1      43.383   3.115  11.325  0.00  0.00    +0.000 C 
BRANCH  24  25
ATOM     25  O   UNL     1      43.953   2.487  10.175  0.00  0.00    +0.000 OA
BRANCH  25  26
ATOM     26  C   UNL     1      44.323   3.424   9.164  0.00  0.00    +0.000 C 
BRANCH  26  27
ATOM     27  C   UNL     1      45.387   2.823   8.287  0.00  0.00    +0.000 A 
ATOM     28  C   UNL     1      46.030   3.598   7.310  0.00  0.00    +0.000 A 
ATOM     29  C   UNL     1      47.052   3.051   6.533  0.00  0.00    +0.000 A 
ATOM     30  C   UNL     1      47.441   1.726   6.727  0.00  0.00    +0.000 A 
ATOM     31  C   UNL     1      46.798   0.943   7.684  0.00  0.00    +0.000 A 
ATOM     32  C   UNL     1      45.774   1.488   8.459  0.00  0.00    +0.000 A 
ENDBRANCH  26  27
ENDBRANCH  25  26
ENDBRANCH  24  25
ENDBRANCH  21  24
ENDBRANCH  17  18
ENDBRANCH   3  17
TORSDOF 8
ENDMDL
MODEL 5
REMARK VINA RESULT:    -7.517      1.662      2.758
REMARK INTER + INTRA:         -11.853
REMARK INTER:                 -10.847
REMARK INTRA:                  -1.006
REMARK UNBOUND:                -1.040
REMARK  Name = 
REMARK  8 active torsions:
REMARK  status: ('A' for Active; 'I' for Inactive)
REMARK    1  A    between atoms: C_2  and  C_20
REMARK    2  A    between atoms: N_3  and  C_4
REMARK    3  A    between atoms: C_4  and  C_5
REMARK    4  A    between atoms: C_8  and  C_9
REMARK    5  A    between atoms: C_9  and  O_10
REMARK    6  A    between atoms: O_10  and  C_11
REMARK    7  A    between atoms: C_11  and  C_12
REMARK    8  A    between atoms: C_27  and  O_28
REMARK                            x       y       z     vdW  Elec       q    Type
REMARK                         _______ _______ _______ _____ _____    ______ ____
ROOT
ATOM      1  O   UNL     1      50.078   7.815  14.564  0.00  0.00    +0.000 OA
ATOM      2  C   UNL     1      49.344   7.039  15.171  0.00  0.00    +0.000 C 
ATOM      3  N   UNL     1      48.093   6.693  14.718  0.00  0.00    +0.000 N 
ATOM      4  H   UNL     1      47.459   6.202  15.338  0.00  0.00    +0.000 HD
ENDROOT
BRANCH   2   5
ATOM      5  C   UNL     1      49.766   6.391  16.408  0.00  0.00    +0.000 A 
ATOM      6  C   UNL     1      48.897   5.866  17.359  0.00  0.00    +0.000 A 
ATOM      7  N   UNL     1      49.640   5.319  18.372  0.00  0.00    +0.000 N 
ATOM      8  C   UNL     1      50.968   5.468  18.101  0.00  0.00    +0.000 A 
ATOM      9  N   UNL     1      51.970   5.036  18.880  0.00  0.00    +0.000 NA
ATOM     10  C   UNL     1      53.174   5.310  18.339  0.00  0.00    +0.000 A 
ATOM     11  N   UNL     1      53.445   5.941  17.180  0.00  0.00    +0.000 NA
ATOM     12  C   UNL     1      52.390   6.347  16.467  0.00  0.00    +0.000 A 
ATOM     13  C   UNL     1      51.087   6.130  16.888  0.00  0.00    +0.000 A 
ATOM     14  H   UNL     1      49.276   4.864  19.202  0.00  0.00    +0.000 HD
BRANCH  12  15
ATOM     15  O   UNL     1      52.699   6.994  15.304  0.00  0.00    +0.000 OA
ATOM     16  H   UNL     1      52.433   7.904  15.529  0.00  0.00    +0.000 HD
ENDBRANCH  12  15
ENDBRANCH   2   5
BRANCH   3  17
ATOM     17  C   UNL     1      47.548   7.326  13.547  0.00  0.00    +0.000 C 
BRANCH  17  18
ATOM     18  C   UNL     1      46.484   6.496  12.880  0.00  0.00    +0.000 A 
ATOM     19  C   UNL     1      45.813   6.971  11.745  0.00  0.00    +0.000 A 
ATOM     20  C   UNL     1      44.866   6.175  11.094  0.00  0.00    +0.000 A 
ATOM     21  C   UNL     1      44.566   4.893  11.576  0.00  0.00    +0.000 A 
ATOM     22  C   UNL     1      45.223   4.426  12.721  0.00  0.00    +0.000 A 
ATOM     23  C   UNL     1      46.167   5.222  13.371  0.00  0.00    +0.000 A 
BRANCH  21  24
ATOM     24  C   UNL     1      43.601   3.998  10.840  0.00  0.00    +0.000 C 
BRANCH  24  25
ATOM     25  O   UNL     1      44.057   3.681   9.524  0.00  0.00    +0.000 OA
BRANCH  25  26
ATOM     26  C   UNL     1      44.721   2.419   9.462  0.00  0.00    +0.000 C 
BRANCH  26  27
ATOM     27  C   UNL     1      45.665   2.405   8.290  0.00  0.00    +0.000 A 
ATOM     28  C   UNL     1      45.821   3.544   7.485  0.00  0.00    +0.000 A 
ATOM     29  C   UNL     1      46.734   3.544   6.430  0.00  0.00    +0.000 A 
ATOM     30  C   UNL     1      47.499   2.408   6.171  0.00  0.00    +0.000 A 
ATOM     31  C   UNL     1      47.340   1.266   6.954  0.00  0.00    +0.000 A 
ATOM     32  C   UNL     1      46.425   1.263   8.008  0.00  0.00    +0.000 A 
ENDBRANCH  26  27
ENDBRANCH  25  26
ENDBRANCH  24  25
ENDBRANCH  21  24
ENDBRANCH  17  18
ENDBRANCH   3  17
TORSDOF 8
ENDMDL
MODEL 6
REMARK VINA RESULT:    -7.501      2.093      3.063
REMARK INTER + INTRA:         -11.830
REMARK INTER:                 -10.713
REMARK INTRA:                  -1.117
REMARK UNBOUND:                -1.040
REMARK  Name = 
REMARK  8 active torsions:
REMARK  status: ('A' for Active; 'I' for Inactive)
REMARK    1  A    between atoms: C_2  and  C_20
REMARK    2  A    between atoms: N_3  and  C_4
REMARK    3  A    between atoms: C_4  and  C_5
REMARK    4  A    between atoms: C_8  and  C_9
REMARK    5  A    between atoms: C_9  and  O_10
REMARK    6  A    between atoms: O_10  and  C_11
REMARK    7  A    between atoms: C_11  and  C_12
REMARK    8  A    between atoms: C_27  and  O_28
REMARK                            x       y       z     vdW  Elec       q    Type
REMARK                         _______ _______ _______ _____ _____    ______ ____
ROOT
ATOM      1  O   UNL     1      47.875   9.459  14.892  0.00  0.00    +0.000 OA
ATOM      2  C   UNL     1      48.393   8.402  14.543  0.00  0.00    +0.000 C 
ATOM      3  N   UNL     1      47.893   7.634  13.517  0.00  0.00    +0.000 N 
ATOM      4  H   UNL     1      48.241   6.690  13.389  0.00  0.00    +0.000 HD
ENDROOT
BRANCH   2   5
ATOM      5  C   UNL     1      49.610   7.898  15.169  0.00  0.00    +0.000 A 
ATOM      6  C   UNL     1      50.836   8.554  15.151  0.00  0.00    +0.000 A 
ATOM      7  N   UNL     1      51.742   7.803  15.853  0.00  0.00    +0.000 N 
ATOM      8  C   UNL     1      51.136   6.680  16.333  0.00  0.00    +0.000 A 
ATOM      9  N   UNL     1      51.732   5.733  17.072  0.00  0.00    +0.000 NA
ATOM     10  C   UNL     1      50.871   4.755  17.415  0.00  0.00    +0.000 A 
ATOM     11  N   UNL     1      49.566   4.640  17.099  0.00  0.00    +0.000 NA
ATOM     12  C   UNL     1      49.051   5.622  16.353  0.00  0.00    +0.000 A 
ATOM     13  C   UNL     1      49.809   6.702  15.929  0.00  0.00    +0.000 A 
ATOM     14  H   UNL     1      52.717   8.033  16.009  0.00  0.00    +0.000 HD
BRANCH  12  15
ATOM     15  O   UNL     1      47.730   5.470  16.040  0.00  0.00    +0.000 OA
ATOM     16  H   UNL     1      47.317   6.027  16.725  0.00  0.00    +0.000 HD
ENDBRANCH  12  15
ENDBRANCH   2   5
BRANCH   3  17
ATOM     17  C   UNL     1      46.659   7.999  12.877  0.00  0.00    +0.000 C 
BRANCH  17  18
ATOM     18  C   UNL     1      45.825   6.804  12.500  0.00  0.00    +0.000 A 
ATOM     19  C   UNL     1      44.631   6.963  11.781  0.00  0.00    +0.000 A 
ATOM     20  C   UNL     1      43.888   5.849  11.383  0.00  0.00    +0.000 A 
ATOM     21  C   UNL     1      44.321   4.555  11.707  0.00  0.00    +0.000 A 
ATOM     22  C   UNL     1      45.504   4.397  12.440  0.00  0.00    +0.000 A 
ATOM     23  C   UNL     1      46.244   5.511  12.839  0.00  0.00    +0.000 A 
BRANCH  21  24
ATOM     24  C   UNL     1      43.567   3.343  11.219  0.00  0.00    +0.000 C 
BRANCH  24  25
ATOM     25  O   UNL     1      44.310   2.600  10.252  0.00  0.00    +0.000 OA
BRANCH  25  26
ATOM     26  C   UNL     1      44.400   3.272   8.995  0.00  0.00    +0.000 C 
BRANCH  26  27
ATOM     27  C   UNL     1      45.585   2.748   8.230  0.00  0.00    +0.000 A 
ATOM     28  C   UNL     1      45.933   1.390   8.294  0.00  0.00    +0.000 A 
ATOM     29  C   UNL     1      47.001   0.898   7.544  0.00  0.00    +0.000 A 
ATOM     30  C   UNL     1      47.730   1.756   6.722  0.00  0.00    +0.000 A 
ATOM     31  C   UNL     1      47.402   3.110   6.662  0.00  0.00    +0.000 A 
ATOM     32  C   UNL     1      46.336   3.605   7.415  0.00  0.00    +0.000 A 
ENDBRANCH  26  27
ENDBRANCH  25  26
ENDBRANCH  24  25
ENDBRANCH  21  24
ENDBRANCH  17  18
ENDBRANCH   3  17
TORSDOF 8
ENDMDL
MODEL 7
REMARK VINA RESULT:    -7.408      3.326      8.979
REMARK INTER + INTRA:         -11.696
REMARK INTER:                 -10.011
REMARK INTRA:                  -1.685
REMARK UNBOUND:                -1.040
REMARK  Name = 
REMARK  8 active torsions:
REMARK  status: ('A' for Active; 'I' for Inactive)
REMARK    1  A    between atoms: C_2  and  C_20
REMARK    2  A    between atoms: N_3  and  C_4
REMARK    3  A    between atoms: C_4  and  C_5
REMARK    4  A    between atoms: C_8  and  C_9
REMARK    5  A    between atoms: C_9  and  O_10
REMARK    6  A    between atoms: O_10  and  C_11
REMARK    7  A    between atoms: C_11  and  C_12
REMARK    8  A    between atoms: C_27  and  O_28
REMARK                            x       y       z     vdW  Elec       q    Type
REMARK                         _______ _______ _______ _____ _____    ______ ____
ROOT
ATOM      1  O   UNL     1      44.343   6.463  12.887  0.00  0.00    +0.000 OA
ATOM      2  C   UNL     1      45.124   5.900  12.125  0.00  0.00    +0.000 C 
ATOM      3  N   UNL     1      46.339   6.440  11.775  0.00  0.00    +0.000 N 
ATOM      4  H   UNL     1      46.861   6.032  11.008  0.00  0.00    +0.000 HD
ENDROOT
BRANCH   2   5
ATOM      5  C   UNL     1      44.834   4.586  11.561  0.00  0.00    +0.000 A 
ATOM      6  C   UNL     1      44.292   3.524  12.275  0.00  0.00    +0.000 A 
ATOM      7  N   UNL     1      44.138   2.460  11.424  0.00  0.00    +0.000 N 
ATOM      8  C   UNL     1      44.559   2.806  10.175  0.00  0.00    +0.000 A 
ATOM      9  N   UNL     1      44.536   2.005   9.100  0.00  0.00    +0.000 NA
ATOM     10  C   UNL     1      44.997   2.634   8.001  0.00  0.00    +0.000 A 
ATOM     11  N   UNL     1      45.456   3.896   7.890  0.00  0.00    +0.000 NA
ATOM     12  C   UNL     1      45.452   4.626   9.009  0.00  0.00    +0.000 A 
ATOM     13  C   UNL     1      45.000   4.121  10.218  0.00  0.00    +0.000 A 
ATOM     14  H   UNL     1      43.765   1.549  11.666  0.00  0.00    +0.000 HD
BRANCH  12  15
ATOM     15  O   UNL     1      45.934   5.896   8.866  0.00  0.00    +0.000 OA
ATOM     16  H   UNL     1      45.149   6.416   9.117  0.00  0.00    +0.000 HD
ENDBRANCH  12  15
ENDBRANCH   2   5
BRANCH   3  17
ATOM     17  C   UNL     1      46.696   7.761  12.215  0.00  0.00    +0.000 C 
BRANCH  17  18
ATOM     18  C   UNL     1      47.468   7.754  13.507  0.00  0.00    +0.000 A 
ATOM     19  C   UNL     1      47.592   8.922  14.273  0.00  0.00    +0.000 A 
ATOM     20  C   UNL     1      48.261   8.900  15.500  0.00  0.00    +0.000 A 
ATOM     21  C   UNL     1      48.828   7.709  15.976  0.00  0.00    +0.000 A 
ATOM     22  C   UNL     1      48.719   6.547  15.203  0.00  0.00    +0.000 A 
ATOM     23  C   UNL     1      48.053   6.571  13.977  0.00  0.00    +0.000 A 
BRANCH  21  24
ATOM     24  C   UNL     1      49.487   7.656  17.332  0.00  0.00    +0.000 C 
BRANCH  24  25
ATOM     25  O   UNL     1      48.592   7.204  18.349  0.00  0.00    +0.000 OA
BRANCH  25  26
ATOM     26  C   UNL     1      49.107   6.091  19.079  0.00  0.00    +0.000 C 
BRANCH  26  27
ATOM     27  C   UNL     1      48.841   4.823  18.315  0.00  0.00    +0.000 A 
ATOM     28  C   UNL     1      47.536   4.483  17.927  0.00  0.00    +0.000 A 
ATOM     29  C   UNL     1      47.300   3.332  17.175  0.00  0.00    +0.000 A 
ATOM     30  C   UNL     1      48.363   2.512  16.803  0.00  0.00    +0.000 A 
ATOM     31  C   UNL     1      49.661   2.832  17.196  0.00  0.00    +0.000 A 
ATOM     32  C   UNL     1      49.900   3.981  17.952  0.00  0.00    +0.000 A 
ENDBRANCH  26  27
ENDBRANCH  25  26
ENDBRANCH  24  25
ENDBRANCH  21  24
ENDBRANCH  17  18
ENDBRANCH   3  17
TORSDOF 8
ENDMDL
MODEL 8
REMARK VINA RESULT:    -7.305      4.013      8.393
REMARK INTER + INTRA:         -11.548
REMARK INTER:                  -9.273
REMARK INTRA:                  -2.275
REMARK UNBOUND:                -1.040
REMARK  Name = 
REMARK  8 active torsions:
REMARK  status: ('A' for Active; 'I' for Inactive)
REMARK    1  A    between atoms: C_2  and  C_20
REMARK    2  A    between atoms: N_3  and  C_4
REMARK    3  A    between atoms: C_4  and  C_5
REMARK    4  A    between atoms: C_8  and  C_9
REMARK    5  A    between atoms: C_9  and  O_10
REMARK    6  A    between atoms: O_10  and  C_11
REMARK    7  A    between atoms: C_11  and  C_12
REMARK    8  A    between atoms: C_27  and  O_28
REMARK                            x       y       z     vdW  Elec       q    Type
REMARK                         _______ _______ _______ _____ _____    ______ ____
ROOT
ATOM      1  O   UNL     1      48.508   5.551  12.931  0.00  0.00    +0.000 OA
ATOM      2  C   UNL     1      47.802   6.498  13.267  0.00  0.00    +0.000 C 
ATOM      3  N   UNL     1      48.303   7.608  13.905  0.00  0.00    +0.000 N 
ATOM      4  H   UNL     1      47.661   8.272  14.323  0.00  0.00    +0.000 HD
ENDROOT
BRANCH   2   5
ATOM      5  C   UNL     1      46.373   6.533  12.975  0.00  0.00    +0.000 A 
ATOM      6  C   UNL     1      45.656   7.687  12.681  0.00  0.00    +0.000 A 
ATOM      7  N   UNL     1      44.352   7.341  12.442  0.00  0.00    +0.000 N 
ATOM      8  C   UNL     1      44.204   5.991  12.565  0.00  0.00    +0.000 A 
ATOM      9  N   UNL     1      43.058   5.318  12.386  0.00  0.00    +0.000 NA
ATOM     10  C   UNL     1      43.229   3.992  12.557  0.00  0.00    +0.000 A 
ATOM     11  N   UNL     1      44.357   3.328  12.878  0.00  0.00    +0.000 NA
ATOM     12  C   UNL     1      45.453   4.074  13.046  0.00  0.00    +0.000 A 
ATOM     13  C   UNL     1      45.438   5.452  12.897  0.00  0.00    +0.000 A 
ATOM     14  H   UNL     1      43.598   7.976  12.202  0.00  0.00    +0.000 HD
BRANCH  12  15
ATOM     15  O   UNL     1      46.576   3.373  13.384  0.00  0.00    +0.000 OA
ATOM     16  H   UNL     1      46.476   2.589  12.814  0.00  0.00    +0.000 HD
ENDBRANCH  12  15
ENDBRANCH   2   5
BRANCH   3  17
ATOM     17  C   UNL     1      49.683   7.650  14.304  0.00  0.00    +0.000 C 
BRANCH  17  18
ATOM     18  C   UNL     1      49.868   7.421  15.780  0.00  0.00    +0.000 A 
ATOM     19  C   UNL     1      48.965   7.963  16.706  0.00  0.00    +0.000 A 
ATOM     20  C   UNL     1      49.107   7.702  18.072  0.00  0.00    +0.000 A 
ATOM     21  C   UNL     1      50.162   6.903  18.536  0.00  0.00    +0.000 A 
ATOM     22  C   UNL     1      51.073   6.377  17.612  0.00  0.00    +0.000 A 
ATOM     23  C   UNL     1      50.933   6.640  16.249  0.00  0.00    +0.000 A 
BRANCH  21  24
ATOM     24  C   UNL     1      50.282   6.555  19.999  0.00  0.00    +0.000 C 
BRANCH  24  25
ATOM     25  O   UNL     1      50.151   5.151  20.230  0.00  0.00    +0.000 OA
BRANCH  25  26
ATOM     26  C   UNL     1      48.793   4.713  20.192  0.00  0.00    +0.000 C 
BRANCH  26  27
ATOM     27  C   UNL     1      48.498   4.107  18.847  0.00  0.00    +0.000 A 
ATOM     28  C   UNL     1      47.386   4.526  18.102  0.00  0.00    +0.000 A 
ATOM     29  C   UNL     1      47.144   3.998  16.833  0.00  0.00    +0.000 A 
ATOM     30  C   UNL     1      48.012   3.049  16.297  0.00  0.00    +0.000 A 
ATOM     31  C   UNL     1      49.112   2.613  17.035  0.00  0.00    +0.000 A 
ATOM     32  C   UNL     1      49.353   3.138  18.305  0.00  0.00    +0.000 A 
ENDBRANCH  26  27
ENDBRANCH  25  26
ENDBRANCH  24  25
ENDBRANCH  21  24
ENDBRANCH  17  18
ENDBRANCH   3  17
TORSDOF 8
ENDMDL
MODEL 9
REMARK VINA RESULT:    -7.164      3.610      5.559
REMARK INTER + INTRA:         -11.345
REMARK INTER:                 -10.205
REMARK INTRA:                  -1.141
REMARK UNBOUND:                -1.040
REMARK  Name = 
REMARK  8 active torsions:
REMARK  status: ('A' for Active; 'I' for Inactive)
REMARK    1  A    between atoms: C_2  and  C_20
REMARK    2  A    between atoms: N_3  and  C_4
REMARK    3  A    between atoms: C_4  and  C_5
REMARK    4  A    between atoms: C_8  and  C_9
REMARK    5  A    between atoms: C_9  and  O_10
REMARK    6  A    between atoms: O_10  and  C_11
REMARK    7  A    between atoms: C_11  and  C_12
REMARK    8  A    between atoms: C_27  and  O_28
REMARK                            x       y       z     vdW  Elec       q    Type
REMARK                         _______ _______ _______ _____ _____    ______ ____
ROOT
ATOM      1  O   UNL     1      50.127   7.788  15.003  0.00  0.00    +0.000 OA
ATOM      2  C   UNL     1      49.979   7.896  13.789  0.00  0.00    +0.000 C 
ATOM      3  N   UNL     1      48.978   7.250  13.103  0.00  0.00    +0.000 N 
ATOM      4  H   UNL     1      49.008   7.221  12.090  0.00  0.00    +0.000 HD
ENDROOT
BRANCH   2   5
ATOM      5  C   UNL     1      50.838   8.756  12.983  0.00  0.00    +0.000 A 
ATOM      6  C   UNL     1      50.378   9.672  12.043  0.00  0.00    +0.000 A 
ATOM      7  N   UNL     1      51.458  10.316  11.497  0.00  0.00    +0.000 N 
ATOM      8  C   UNL     1      52.607   9.847  12.062  0.00  0.00    +0.000 A 
ATOM      9  N   UNL     1      53.845  10.269  11.765  0.00  0.00    +0.000 NA
ATOM     10  C   UNL     1      54.777   9.634  12.502  0.00  0.00    +0.000 A 
ATOM     11  N   UNL     1      54.597   8.677  13.433  0.00  0.00    +0.000 NA
ATOM     12  C   UNL     1      53.334   8.307  13.664  0.00  0.00    +0.000 A 
ATOM     13  C   UNL     1      52.264   8.875  12.991  0.00  0.00    +0.000 A 
ATOM     14  H   UNL     1      51.428  11.037  10.785  0.00  0.00    +0.000 HD
BRANCH  12  15
ATOM     15  O   UNL     1      53.187   7.327  14.604  0.00  0.00    +0.000 OA
ATOM     16  H   UNL     1      54.119   7.152  14.829  0.00  0.00    +0.000 HD
ENDBRANCH  12  15
ENDBRANCH   2   5
BRANCH   3  17
ATOM     17  C   UNL     1      48.118   6.321  13.785  0.00  0.00    +0.000 C 
BRANCH  17  18
ATOM     18  C   UNL     1      46.902   5.954  12.977  0.00  0.00    +0.000 A 
ATOM     19  C   UNL     1      46.744   6.429  11.668  0.00  0.00    +0.000 A 
ATOM     20  C   UNL     1      45.642   6.041  10.900  0.00  0.00    +0.000 A 
ATOM     21  C   UNL     1      44.674   5.178  11.434  0.00  0.00    +0.000 A 
ATOM     22  C   UNL     1      44.824   4.718  12.748  0.00  0.00    +0.000 A 
ATOM     23  C   UNL     1      45.922   5.108  13.515  0.00  0.00    +0.000 A 
BRANCH  21  24
ATOM     24  C   UNL     1      43.521   4.694  10.590  0.00  0.00    +0.000 C 
BRANCH  24  25
ATOM     25  O   UNL     1      43.957   4.155   9.342  0.00  0.00    +0.000 OA
BRANCH  25  26
ATOM     26  C   UNL     1      44.467   2.827   9.465  0.00  0.00    +0.000 C 
BRANCH  26  27
ATOM     27  C   UNL     1      45.508   2.588   8.406  0.00  0.00    +0.000 A 
ATOM     28  C   UNL     1      46.126   1.335   8.280  0.00  0.00    +0.000 A 
ATOM     29  C   UNL     1      47.054   1.103   7.265  0.00  0.00    +0.000 A 
ATOM     30  C   UNL     1      47.372   2.119   6.366  0.00  0.00    +0.000 A 
ATOM     31  C   UNL     1      46.776   3.373   6.491  0.00  0.00    +0.000 A 
ATOM     32  C   UNL     1      45.850   3.608   7.508  0.00  0.00    +0.000 A 
ENDBRANCH  26  27
ENDBRANCH  25  26
ENDBRANCH  24  25
ENDBRANCH  21  24
ENDBRANCH  17  18
ENDBRANCH   3  17
TORSDOF 8
ENDMDL
