MODEL 1
REMARK VINA RESULT:    -8.530      0.000      0.000
REMARK INTER + INTRA:         -11.912
REMARK INTER:                 -11.024
REMARK INTRA:                  -0.888
REMARK UNBOUND:                -0.888
REMARK  Name = 
REMARK  6 active torsions:
REMARK  status: ('A' for Active; 'I' for Inactive)
REMARK    1  A    between atoms: C_1  and  C_2
REMARK    2  A    between atoms: C_6  and  C_7
REMARK    3  A    between atoms: C_7  and  C_8
REMARK    4  A    between atoms: C_11  and  C_12
REMARK    5  A    between atoms: C_12  and  N_13
REMARK    6  A    between atoms: C_14  and  C_16
REMARK                            x       y       z     vdW  Elec       q    Type
REMARK                         _______ _______ _______ _____ _____    ______ ____
ROOT
ATOM      1  C   UNL     1      46.521   7.684  12.775  0.00  0.00    +0.000 C 
ENDROOT
BRANCH   1   5
ATOM      2  C   UNL     1      44.810   4.687  10.270  0.00  0.00    +0.000 A 
ATOM      3  C   UNL     1      44.333   4.814  11.571  0.00  0.00    +0.000 A 
ATOM      4  C   UNL     1      44.897   5.777  12.406  0.00  0.00    +0.000 A 
ATOM      5  C   UNL     1      45.932   6.588  11.935  0.00  0.00    +0.000 A 
ATOM      6  C   UNL     1      46.355   6.377  10.629  0.00  0.00    +0.000 A 
ATOM      7  N   UNL     1      45.830   5.448   9.797  0.00  0.00    +0.000 NA
BRANCH   2   8
ATOM      8  C   UNL     1      44.139   3.737   9.298  0.00  0.00    +0.000 C 
BRANCH   8  14
ATOM      9  C   UNL     1      47.195   3.381   5.310  0.00  0.00    +0.000 C 
ATOM     10  C   UNL     1      46.616   2.760   6.545  0.00  0.00    +0.000 A 
ATOM     11  C   UNL     1      46.969   1.467   6.942  0.00  0.00    +0.000 A 
ATOM     12  C   UNL     1      46.397   0.901   8.082  0.00  0.00    +0.000 A 
ATOM     13  C   UNL     1      45.469   1.622   8.839  0.00  0.00    +0.000 A 
ATOM     14  C   UNL     1      45.113   2.924   8.469  0.00  0.00    +0.000 A 
ATOM     15  C   UNL     1      45.700   3.482   7.321  0.00  0.00    +0.000 A 
ENDBRANCH   8  14
ENDBRANCH   2   8
ENDBRANCH   1   5
BRANCH   1  16
ATOM     16  N   UNL     1      47.041   7.164  14.016  0.00  0.00    +0.000 N 
ATOM     17  C   UNL     1      48.315   6.665  14.109  0.00  0.00    +0.000 C 
ATOM     18  O   UNL     1      49.087   6.657  13.154  0.00  0.00    +0.000 OA
ATOM     19  H   UNL     1      46.366   6.933  14.738  0.00  0.00    +0.000 HD
BRANCH  17  20
ATOM     20  C   UNL     1      48.731   6.192  15.440  0.00  0.00    +0.000 A 
ATOM     21  C   UNL     1      49.746   6.852  16.122  0.00  0.00    +0.000 A 
ATOM     22  S   UNL     1      50.039   6.223  17.680  0.00  0.00    +0.000 S 
ATOM     23  C   UNL     1      48.864   5.010  17.474  0.00  0.00    +0.000 A 
ATOM     24  N   UNL     1      48.619   4.096  18.451  0.00  0.00    +0.000 NA
ATOM     25  C   UNL     1      47.723   3.217  18.147  0.00  0.00    +0.000 A 
ATOM     26  N   UNL     1      47.051   3.167  16.953  0.00  0.00    +0.000 N 
ATOM     27  C   UNL     1      47.250   4.082  15.946  0.00  0.00    +0.000 A 
ATOM     28  O   UNL     1      46.606   4.030  14.904  0.00  0.00    +0.000 OA
ATOM     29  C   UNL     1      48.247   5.092  16.239  0.00  0.00    +0.000 A 
ATOM     30  H   UNL     1      46.357   2.455  16.778  0.00  0.00    +0.000 HD
ENDBRANCH  17  20
ENDBRANCH   1  16
TORSDOF 5
ENDMDL
MODEL 2
REMARK VINA RESULT:    -8.031      1.086      1.418
REMARK INTER + INTRA:         -11.267
REMARK INTER:                 -10.281
REMARK INTRA:                  -0.986
REMARK UNBOUND:                -0.888
REMARK  Name = 
REMARK  6 active torsions:
REMARK  status: ('A' for Active; 'I' for Inactive)
REMARK    1  A    between atoms: C_1  and  C_2
REMARK    2  A    between atoms: C_6  and  C_7
REMARK    3  A    between atoms: C_7  and  C_8
REMARK    4  A    between atoms: C_11  and  C_12
REMARK    5  A    between atoms: C_12  and  N_13
REMARK    6  A    between atoms: C_14  and  C_16
REMARK                            x       y       z     vdW  Elec       q    Type
REMARK                         _______ _______ _______ _____ _____    ______ ____
ROOT
ATOM      1  C   UNL     1      47.288   8.299  13.647  0.00  0.00    +0.000 C 
ENDROOT
BRANCH   1   5
ATOM      2  C   UNL     1      44.801   5.949  11.102  0.00  0.00    +0.000 A 
ATOM      3  C   UNL     1      45.985   5.389  11.573  0.00  0.00    +0.000 A 
ATOM      4  C   UNL     1      46.816   6.153  12.390  0.00  0.00    +0.000 A 
ATOM      5  C   UNL     1      46.460   7.464  12.715  0.00  0.00    +0.000 A 
ATOM      6  C   UNL     1      45.270   7.945  12.184  0.00  0.00    +0.000 A 
ATOM      7  N   UNL     1      44.445   7.228  11.385  0.00  0.00    +0.000 NA
BRANCH   2   8
ATOM      8  C   UNL     1      43.816   5.108  10.315  0.00  0.00    +0.000 C 
BRANCH   8  14
ATOM      9  C   UNL     1      46.803   3.749   6.494  0.00  0.00    +0.000 C 
ATOM     10  C   UNL     1      45.939   3.355   7.653  0.00  0.00    +0.000 A 
ATOM     11  C   UNL     1      45.744   2.012   7.989  0.00  0.00    +0.000 A 
ATOM     12  C   UNL     1      44.915   1.668   9.057  0.00  0.00    +0.000 A 
ATOM     13  C   UNL     1      44.275   2.662   9.803  0.00  0.00    +0.000 A 
ATOM     14  C   UNL     1      44.469   4.014   9.495  0.00  0.00    +0.000 A 
ATOM     15  C   UNL     1      45.309   4.345   8.418  0.00  0.00    +0.000 A 
ENDBRANCH   8  14
ENDBRANCH   2   8
ENDBRANCH   1   5
BRANCH   1  16
ATOM     16  N   UNL     1      47.702   7.536  14.799  0.00  0.00    +0.000 N 
ATOM     17  C   UNL     1      48.968   7.020  14.902  0.00  0.00    +0.000 C 
ATOM     18  O   UNL     1      49.822   7.201  14.037  0.00  0.00    +0.000 OA
ATOM     19  H   UNL     1      46.968   7.168  15.396  0.00  0.00    +0.000 HD
BRANCH  17  20
ATOM     20  C   UNL     1      49.270   6.285  16.142  0.00  0.00    +0.000 A 
ATOM     21  C   UNL     1      50.339   6.680  16.937  0.00  0.00    +0.000 A 
ATOM     22  S   UNL     1      50.491   5.773  18.373  0.00  0.00    +0.000 S 
ATOM     23  C   UNL     1      49.173   4.782  17.954  0.00  0.00    +0.000 A 
ATOM     24  N   UNL     1      48.773   3.765  18.763  0.00  0.00    +0.000 NA
ATOM     25  C   UNL     1      47.779   3.078  18.307  0.00  0.00    +0.000 A 
ATOM     26  N   UNL     1      47.149   3.315  17.112  0.00  0.00    +0.000 N 
ATOM     27  C   UNL     1      47.503   4.345  16.273  0.00  0.00    +0.000 A 
ATOM     28  O   UNL     1      46.896   4.551  15.228  0.00  0.00    +0.000 OA
ATOM     29  C   UNL     1      48.616   5.147  16.741  0.00  0.00    +0.000 A 
ATOM     30  H   UNL     1      46.373   2.743  16.813  0.00  0.00    +0.000 HD
ENDBRANCH  17  20
ENDBRANCH   1  16
TORSDOF 5
ENDMDL
MODEL 3
REMARK VINA RESULT:    -8.028      2.238      3.990
REMARK INTER + INTRA:         -11.262
REMARK INTER:                 -10.213
REMARK INTRA:                  -1.049
REMARK UNBOUND:                -0.888
REMARK  Name = 
REMARK  6 active torsions:
REMARK  status: ('A' for Active; 'I' for Inactive)
REMARK    1  A    between atoms: C_1  and  C_2
REMARK    2  A    between atoms: C_6  and  C_7
REMARK    3  A    between atoms: C_7  and  C_8
REMARK    4  A    between atoms: C_11  and  C_12
REMARK    5  A    between atoms: C_12  and  N_13
REMARK    6  A    between atoms: C_14  and  C_16
REMARK                            x       y       z     vdW  Elec       q    Type
REMARK                         _______ _______ _______ _____ _____    ______ ____
ROOT
ATOM      1  C   UNL     1      46.549   4.885  14.229  0.00  0.00    +0.000 C 
ENDROOT
BRANCH   1   5
ATOM      2  C   UNL     1      44.983   4.241  10.315  0.00  0.00    +0.000 A 
ATOM      3  C   UNL     1      45.479   5.503  10.631  0.00  0.00    +0.000 A 
ATOM      4  C   UNL     1      45.976   5.731  11.913  0.00  0.00    +0.000 A 
ATOM      5  C   UNL     1      45.961   4.705  12.860  0.00  0.00    +0.000 A 
ATOM      6  C   UNL     1      45.430   3.485  12.461  0.00  0.00    +0.000 A 
ATOM      7  N   UNL     1      44.937   3.235  11.225  0.00  0.00    +0.000 NA
BRANCH   2   8
ATOM      8  C   UNL     1      44.550   3.922   8.899  0.00  0.00    +0.000 C 
BRANCH   8  14
ATOM      9  C   UNL     1      46.676  -0.475   7.667  0.00  0.00    +0.000 C 
ATOM     10  C   UNL     1      46.602   1.011   7.490  0.00  0.00    +0.000 A 
ATOM     11  C   UNL     1      47.454   1.680   6.606  0.00  0.00    +0.000 A 
ATOM     12  C   UNL     1      47.384   3.067   6.477  0.00  0.00    +0.000 A 
ATOM     13  C   UNL     1      46.459   3.800   7.226  0.00  0.00    +0.000 A 
ATOM     14  C   UNL     1      45.585   3.150   8.105  0.00  0.00    +0.000 A 
ATOM     15  C   UNL     1      45.666   1.752   8.223  0.00  0.00    +0.000 A 
ENDBRANCH   8  14
ENDBRANCH   2   8
ENDBRANCH   1   5
BRANCH   1  16
ATOM     16  N   UNL     1      47.277   6.127  14.322  0.00  0.00    +0.000 N 
ATOM     17  C   UNL     1      48.320   6.285  15.197  0.00  0.00    +0.000 C 
ATOM     18  O   UNL     1      48.707   5.376  15.928  0.00  0.00    +0.000 OA
ATOM     19  H   UNL     1      46.835   6.951  13.925  0.00  0.00    +0.000 HD
BRANCH  17  20
ATOM     20  C   UNL     1      48.996   7.593  15.172  0.00  0.00    +0.000 A 
ATOM     21  C   UNL     1      49.104   8.338  16.340  0.00  0.00    +0.000 A 
ATOM     22  S   UNL     1      49.989   9.783  16.145  0.00  0.00    +0.000 S 
ATOM     23  C   UNL     1      50.206   9.494  14.483  0.00  0.00    +0.000 A 
ATOM     24  N   UNL     1      50.879  10.378  13.699  0.00  0.00    +0.000 NA
ATOM     25  C   UNL     1      50.943  10.045  12.452  0.00  0.00    +0.000 A 
ATOM     26  N   UNL     1      50.390   8.909  11.918  0.00  0.00    +0.000 N 
ATOM     27  C   UNL     1      49.720   7.978  12.676  0.00  0.00    +0.000 A 
ATOM     28  O   UNL     1      49.269   6.955  12.173  0.00  0.00    +0.000 OA
ATOM     29  C   UNL     1      49.623   8.305  14.084  0.00  0.00    +0.000 A 
ATOM     30  H   UNL     1      50.478   8.704  10.934  0.00  0.00    +0.000 HD
ENDBRANCH  17  20
ENDBRANCH   1  16
TORSDOF 5
ENDMDL
MODEL 4
REMARK VINA RESULT:    -7.983      2.020      2.760
REMARK INTER + INTRA:         -11.204
REMARK INTER:                 -10.436
REMARK INTRA:                  -0.768
REMARK UNBOUND:                -0.888
REMARK  Name = 
REMARK  6 active torsions:
REMARK  status: ('A' for Active; 'I' for Inactive)
REMARK    1  A    between atoms: C_1  and  C_2
REMARK    2  A    between atoms: C_6  and  C_7
REMARK    3  A    between atoms: C_7  and  C_8
REMARK    4  A    between atoms: C_11  and  C_12
REMARK    5  A    between atoms: C_12  and  N_13
REMARK    6  A    between atoms: C_14  and  C_16
REMARK                            x       y       z     vdW  Elec       q    Type
REMARK                         _______ _______ _______ _____ _____    ______ ____
ROOT
ATOM      1  C   UNL     1      47.409   6.810  13.726  0.00  0.00    +0.000 C 
ENDROOT
BRANCH   1   5
ATOM      2  C   UNL     1      45.031   4.596  10.963  0.00  0.00    +0.000 A 
ATOM      3  C   UNL     1      45.189   5.963  10.755  0.00  0.00    +0.000 A 
ATOM      4  C   UNL     1      45.947   6.702  11.661  0.00  0.00    +0.000 A 
ATOM      5  C   UNL     1      46.527   6.069  12.764  0.00  0.00    +0.000 A 
ATOM      6  C   UNL     1      46.301   4.706  12.900  0.00  0.00    +0.000 A 
ATOM      7  N   UNL     1      45.566   3.964  12.038  0.00  0.00    +0.000 NA
BRANCH   2   8
ATOM      8  C   UNL     1      44.318   3.742   9.934  0.00  0.00    +0.000 C 
BRANCH   8  14
ATOM      9  C   UNL     1      46.713  -0.120   7.763  0.00  0.00    +0.000 C 
ATOM     10  C   UNL     1      46.373   1.339   7.773  0.00  0.00    +0.000 A 
ATOM     11  C   UNL     1      46.866   2.206   6.794  0.00  0.00    +0.000 A 
ATOM     12  C   UNL     1      46.556   3.566   6.838  0.00  0.00    +0.000 A 
ATOM     13  C   UNL     1      45.747   4.072   7.859  0.00  0.00    +0.000 A 
ATOM     14  C   UNL     1      45.228   3.220   8.840  0.00  0.00    +0.000 A 
ATOM     15  C   UNL     1      45.547   1.852   8.781  0.00  0.00    +0.000 A 
ENDBRANCH   8  14
ENDBRANCH   2   8
ENDBRANCH   1   5
BRANCH   1  16
ATOM     16  N   UNL     1      47.464   6.139  15.001  0.00  0.00    +0.000 N 
ATOM     17  C   UNL     1      48.634   6.034  15.708  0.00  0.00    +0.000 C 
ATOM     18  O   UNL     1      49.688   6.524  15.308  0.00  0.00    +0.000 OA
ATOM     19  H   UNL     1      46.690   5.525  15.233  0.00  0.00    +0.000 HD
BRANCH  17  20
ATOM     20  C   UNL     1      48.548   5.349  17.009  0.00  0.00    +0.000 A 
ATOM     21  C   UNL     1      48.667   3.966  17.072  0.00  0.00    +0.000 A 
ATOM     22  S   UNL     1      48.628   3.352  18.662  0.00  0.00    +0.000 S 
ATOM     23  C   UNL     1      48.390   4.903  19.317  0.00  0.00    +0.000 A 
ATOM     24  N   UNL     1      48.253   5.086  20.658  0.00  0.00    +0.000 NA
ATOM     25  C   UNL     1      48.049   6.312  21.012  0.00  0.00    +0.000 A 
ATOM     26  N   UNL     1      47.967   7.372  20.145  0.00  0.00    +0.000 N 
ATOM     27  C   UNL     1      48.121   7.238  18.785  0.00  0.00    +0.000 A 
ATOM     28  O   UNL     1      48.078   8.211  18.042  0.00  0.00    +0.000 OA
ATOM     29  C   UNL     1      48.354   5.879  18.337  0.00  0.00    +0.000 A 
ATOM     30  H   UNL     1      47.810   8.308  20.486  0.00  0.00    +0.000 HD
ENDBRANCH  17  20
ENDBRANCH   1  16
TORSDOF 5
ENDMDL
MODEL 5
REMARK VINA RESULT:    -7.595      2.614      3.749
REMARK INTER + INTRA:         -10.703
REMARK INTER:                  -9.934
REMARK INTRA:                  -0.770
REMARK UNBOUND:                -0.888
REMARK  Name = 
REMARK  6 active torsions:
REMARK  status: ('A' for Active; 'I' for Inactive)
REMARK    1  A    between atoms: C_1  and  C_2
REMARK    2  A    between atoms: C_6  and  C_7
REMARK    3  A    between atoms: C_7  and  C_8
REMARK    4  A    between atoms: C_11  and  C_12
REMARK    5  A    between atoms: C_12  and  N_13
REMARK    6  A    between atoms: C_14  and  C_16
REMARK                            x       y       z     vdW  Elec       q    Type
REMARK                         _______ _______ _______ _____ _____    ______ ____
ROOT
ATOM      1  C   UNL     1      46.894   4.757  14.608  0.00  0.00    +0.000 C 
ENDROOT
BRANCH   1   5
ATOM      2  C   UNL     1      45.039   4.206  10.808  0.00  0.00    +0.000 A 
ATOM      3  C   UNL     1      45.521   5.471  11.133  0.00  0.00    +0.000 A 
ATOM      4  C   UNL     1      46.112   5.668  12.379  0.00  0.00    +0.000 A 
ATOM      5  C   UNL     1      46.204   4.608  13.284  0.00  0.00    +0.000 A 
ATOM      6  C   UNL     1      45.680   3.387  12.880  0.00  0.00    +0.000 A 
ATOM      7  N   UNL     1      45.097   3.166  11.678  0.00  0.00    +0.000 NA
BRANCH   2   8
ATOM      8  C   UNL     1      44.504   3.925   9.418  0.00  0.00    +0.000 C 
BRANCH   8  14
ATOM      9  C   UNL     1      46.696  -0.290   7.744  0.00  0.00    +0.000 C 
ATOM     10  C   UNL     1      46.555   1.201   7.675  0.00  0.00    +0.000 A 
ATOM     11  C   UNL     1      47.316   1.961   6.783  0.00  0.00    +0.000 A 
ATOM     12  C   UNL     1      47.187   3.350   6.754  0.00  0.00    +0.000 A 
ATOM     13  C   UNL     1      46.292   3.993   7.614  0.00  0.00    +0.000 A 
ATOM     14  C   UNL     1      45.507   3.250   8.504  0.00  0.00    +0.000 A 
ATOM     15  C   UNL     1      45.647   1.852   8.520  0.00  0.00    +0.000 A 
ENDBRANCH   8  14
ENDBRANCH   2   8
ENDBRANCH   1   5
BRANCH   1  16
ATOM     16  N   UNL     1      47.642   5.989  14.668  0.00  0.00    +0.000 N 
ATOM     17  C   UNL     1      48.671   6.164  15.557  0.00  0.00    +0.000 C 
ATOM     18  O   UNL     1      49.027   5.277  16.328  0.00  0.00    +0.000 OA
ATOM     19  H   UNL     1      47.222   6.805  14.231  0.00  0.00    +0.000 HD
BRANCH  17  20
ATOM     20  C   UNL     1      49.370   7.458  15.495  0.00  0.00    +0.000 A 
ATOM     21  C   UNL     1      50.202   7.744  14.420  0.00  0.00    +0.000 A 
ATOM     22  S   UNL     1      50.861   9.316  14.469  0.00  0.00    +0.000 S 
ATOM     23  C   UNL     1      50.106   9.648  15.957  0.00  0.00    +0.000 A 
ATOM     24  N   UNL     1      50.277  10.845  16.579  0.00  0.00    +0.000 NA
ATOM     25  C   UNL     1      49.669  10.948  17.715  0.00  0.00    +0.000 A 
ATOM     26  N   UNL     1      48.909   9.961  18.286  0.00  0.00    +0.000 N 
ATOM     27  C   UNL     1      48.691   8.744  17.684  0.00  0.00    +0.000 A 
ATOM     28  O   UNL     1      47.976   7.895  18.205  0.00  0.00    +0.000 OA
ATOM     29  C   UNL     1      49.351   8.579  16.404  0.00  0.00    +0.000 A 
ATOM     30  H   UNL     1      48.456  10.105  19.176  0.00  0.00    +0.000 HD
ENDBRANCH  17  20
ENDBRANCH   1  16
TORSDOF 5
ENDMDL
MODEL 6
REMARK VINA RESULT:    -7.435      2.325      3.365
REMARK INTER + INTRA:         -10.496
REMARK INTER:                  -9.900
REMARK INTRA:                  -0.596
REMARK UNBOUND:                -0.888
REMARK  Name = 
REMARK  6 active torsions:
REMARK  status: ('A' for Active; 'I' for Inactive)
REMARK    1  A    between atoms: C_1  and  C_2
REMARK    2  A    between atoms: C_6  and  C_7
REMARK    3  A    between atoms: C_7  and  C_8
REMARK    4  A    between atoms: C_11  and  C_12
REMARK    5  A    between atoms: C_12  and  N_13
REMARK    6  A    between atoms: C_14  and  C_16
REMARK                            x       y       z     vdW  Elec       q    Type
REMARK                         _______ _______ _______ _____ _____    ______ ____
ROOT
ATOM      1  C   UNL     1      46.603   4.299  14.569  0.00  0.00    +0.000 C 
ENDROOT
BRANCH   1   5
ATOM      2  C   UNL     1      45.114   4.282  10.573  0.00  0.00    +0.000 A 
ATOM      3  C   UNL     1      45.690   5.452  11.060  0.00  0.00    +0.000 A 
ATOM      4  C   UNL     1      46.163   5.476  12.371  0.00  0.00    +0.000 A 
ATOM      5  C   UNL     1      46.045   4.341  13.176  0.00  0.00    +0.000 A 
ATOM      6  C   UNL     1      45.441   3.225  12.610  0.00  0.00    +0.000 A 
ATOM      7  N   UNL     1      44.969   3.174  11.343  0.00  0.00    +0.000 NA
BRANCH   2   8
ATOM      8  C   UNL     1      44.702   4.180   9.118  0.00  0.00    +0.000 C 
BRANCH   8  14
ATOM      9  C   UNL     1      46.688  -0.241   7.744  0.00  0.00    +0.000 C 
ATOM     10  C   UNL     1      46.626   1.248   7.579  0.00  0.00    +0.000 A 
ATOM     11  C   UNL     1      47.436   1.909   6.651  0.00  0.00    +0.000 A 
ATOM     12  C   UNL     1      47.379   3.298   6.533  0.00  0.00    +0.000 A 
ATOM     13  C   UNL     1      46.510   4.040   7.337  0.00  0.00    +0.000 A 
ATOM     14  C   UNL     1      45.679   3.398   8.262  0.00  0.00    +0.000 A 
ATOM     15  C   UNL     1      45.745   1.998   8.368  0.00  0.00    +0.000 A 
ENDBRANCH   8  14
ENDBRANCH   2   8
ENDBRANCH   1   5
BRANCH   1  16
ATOM     16  N   UNL     1      47.600   5.324  14.759  0.00  0.00    +0.000 N 
ATOM     17  C   UNL     1      48.081   5.637  16.005  0.00  0.00    +0.000 C 
ATOM     18  O   UNL     1      47.711   5.048  17.017  0.00  0.00    +0.000 OA
ATOM     19  H   UNL     1      47.738   5.981  13.997  0.00  0.00    +0.000 HD
BRANCH  17  20
ATOM     20  C   UNL     1      49.116   6.682  16.057  0.00  0.00    +0.000 A 
ATOM     21  C   UNL     1      48.818   7.973  15.637  0.00  0.00    +0.000 A 
ATOM     22  S   UNL     1      50.105   9.071  15.847  0.00  0.00    +0.000 S 
ATOM     23  C   UNL     1      51.125   7.850  16.448  0.00  0.00    +0.000 A 
ATOM     24  N   UNL     1      52.408   8.121  16.809  0.00  0.00    +0.000 NA
ATOM     25  C   UNL     1      53.076   7.094  17.221  0.00  0.00    +0.000 A 
ATOM     26  N   UNL     1      52.576   5.819  17.301  0.00  0.00    +0.000 N 
ATOM     27  C   UNL     1      51.280   5.503  16.969  0.00  0.00    +0.000 A 
ATOM     28  O   UNL     1      50.855   4.359  17.087  0.00  0.00    +0.000 OA
ATOM     29  C   UNL     1      50.488   6.623  16.501  0.00  0.00    +0.000 A 
ATOM     30  H   UNL     1      53.149   5.059  17.636  0.00  0.00    +0.000 HD
ENDBRANCH  17  20
ENDBRANCH   1  16
TORSDOF 5
ENDMDL
MODEL 7
REMARK VINA RESULT:    -7.334      2.995      4.220
REMARK INTER + INTRA:         -10.365
REMARK INTER:                  -9.399
REMARK INTRA:                  -0.967
REMARK UNBOUND:                -0.888
REMARK  Name = 
REMARK  6 active torsions:
REMARK  status: ('A' for Active; 'I' for Inactive)
REMARK    1  A    between atoms: C_1  and  C_2
REMARK    2  A    between atoms: C_6  and  C_7
REMARK    3  A    between atoms: C_7  and  C_8
REMARK    4  A    between atoms: C_11  and  C_12
REMARK    5  A    between atoms: C_12  and  N_13
REMARK    6  A    between atoms: C_14  and  C_16
REMARK                            x       y       z     vdW  Elec       q    Type
REMARK                         _______ _______ _______ _____ _____    ______ ____
ROOT
ATOM      1  C   UNL     1      47.108   5.985  13.661  0.00  0.00    +0.000 C 
ENDROOT
BRANCH   1   5
ATOM      2  C   UNL     1      44.988   4.492  10.275  0.00  0.00    +0.000 A 
ATOM      3  C   UNL     1      45.679   5.694  10.148  0.00  0.00    +0.000 A 
ATOM      4  C   UNL     1      46.360   6.203  11.252  0.00  0.00    +0.000 A 
ATOM      5  C   UNL     1      46.333   5.512  12.466  0.00  0.00    +0.000 A 
ATOM      6  C   UNL     1      45.603   4.331  12.505  0.00  0.00    +0.000 A 
ATOM      7  N   UNL     1      44.929   3.815  11.450  0.00  0.00    +0.000 NA
BRANCH   2   8
ATOM      8  C   UNL     1      44.342   3.849   9.065  0.00  0.00    +0.000 C 
BRANCH   8  14
ATOM      9  C   UNL     1      47.491   3.074   5.211  0.00  0.00    +0.000 C 
ATOM     10  C   UNL     1      46.814   2.553   6.443  0.00  0.00    +0.000 A 
ATOM     11  C   UNL     1      47.033   1.249   6.895  0.00  0.00    +0.000 A 
ATOM     12  C   UNL     1      46.372   0.778   8.030  0.00  0.00    +0.000 A 
ATOM     13  C   UNL     1      45.488   1.607   8.726  0.00  0.00    +0.000 A 
ATOM     14  C   UNL     1      45.266   2.922   8.301  0.00  0.00    +0.000 A 
ATOM     15  C   UNL     1      45.941   3.383   7.158  0.00  0.00    +0.000 A 
ENDBRANCH   8  14
ENDBRANCH   2   8
ENDBRANCH   1   5
BRANCH   1  16
ATOM     16  N   UNL     1      48.261   6.754  13.261  0.00  0.00    +0.000 N 
ATOM     17  C   UNL     1      48.296   8.118  13.389  0.00  0.00    +0.000 C 
ATOM     18  O   UNL     1      47.363   8.755  13.873  0.00  0.00    +0.000 OA
ATOM     19  H   UNL     1      48.928   6.298  12.645  0.00  0.00    +0.000 HD
BRANCH  17  20
ATOM     20  C   UNL     1      49.544   8.778  12.969  0.00  0.00    +0.000 A 
ATOM     21  C   UNL     1      49.544   9.614  11.859  0.00  0.00    +0.000 A 
ATOM     22  S   UNL     1      51.050  10.358  11.569  0.00  0.00    +0.000 S 
ATOM     23  C   UNL     1      51.770   9.545  12.878  0.00  0.00    +0.000 A 
ATOM     24  N   UNL     1      53.084   9.723  13.179  0.00  0.00    +0.000 NA
ATOM     25  C   UNL     1      53.503   9.020  14.179  0.00  0.00    +0.000 A 
ATOM     26  N   UNL     1      52.726   8.154  14.904  0.00  0.00    +0.000 N 
ATOM     27  C   UNL     1      51.389   7.958  14.650  0.00  0.00    +0.000 A 
ATOM     28  O   UNL     1      50.715   7.203  15.341  0.00  0.00    +0.000 OA
ATOM     29  C   UNL     1      50.870   8.726  13.536  0.00  0.00    +0.000 A 
ATOM     30  H   UNL     1      53.113   7.636  15.679  0.00  0.00    +0.000 HD
ENDBRANCH  17  20
ENDBRANCH   1  16
TORSDOF 5
ENDMDL
MODEL 8
REMARK VINA RESULT:    -7.259      3.971      9.736
REMARK INTER + INTRA:         -10.269
REMARK INTER:                  -9.238
REMARK INTRA:                  -1.031
REMARK UNBOUND:                -0.888
REMARK  Name = 
REMARK  6 active torsions:
REMARK  status: ('A' for Active; 'I' for Inactive)
REMARK    1  A    between atoms: C_1  and  C_2
REMARK    2  A    between atoms: C_6  and  C_7
REMARK    3  A    between atoms: C_7  and  C_8
REMARK    4  A    between atoms: C_11  and  C_12
REMARK    5  A    between atoms: C_12  and  N_13
REMARK    6  A    between atoms: C_14  and  C_16
REMARK                            x       y       z     vdW  Elec       q    Type
REMARK                         _______ _______ _______ _____ _____    ______ ____
ROOT
ATOM      1  C   UNL     1      47.818   4.164  16.180  0.00  0.00    +0.000 C 
ENDROOT
BRANCH   1   5
ATOM      2  C   UNL     1      48.207   6.936  19.398  0.00  0.00    +0.000 A 
ATOM      3  C   UNL     1      47.150   6.031  19.427  0.00  0.00    +0.000 A 
ATOM      4  C   UNL     1      47.001   5.132  18.372  0.00  0.00    +0.000 A 
ATOM      5  C   UNL     1      47.899   5.158  17.303  0.00  0.00    +0.000 A 
ATOM      6  C   UNL     1      48.911   6.107  17.351  0.00  0.00    +0.000 A 
ATOM      7  N   UNL     1      49.078   6.995  18.359  0.00  0.00    +0.000 NA
BRANCH   2   8
ATOM      8  C   UNL     1      48.472   7.842  20.584  0.00  0.00    +0.000 C 
BRANCH   8  14
ATOM      9  C   UNL     1      47.107  12.217  18.492  0.00  0.00    +0.000 C 
ATOM     10  C   UNL     1      46.925  11.198  19.577  0.00  0.00    +0.000 A 
ATOM     11  C   UNL     1      45.971  11.372  20.583  0.00  0.00    +0.000 A 
ATOM     12  C   UNL     1      45.837  10.422  21.597  0.00  0.00    +0.000 A 
ATOM     13  C   UNL     1      46.652   9.287  21.613  0.00  0.00    +0.000 A 
ATOM     14  C   UNL     1      47.603   9.085  20.606  0.00  0.00    +0.000 A 
ATOM     15  C   UNL     1      47.725  10.048  19.590  0.00  0.00    +0.000 A 
ENDBRANCH   8  14
ENDBRANCH   2   8
ENDBRANCH   1   5
BRANCH   1  16
ATOM     16  N   UNL     1      46.878   4.593  15.174  0.00  0.00    +0.000 N 
ATOM     17  C   UNL     1      47.261   5.391  14.127  0.00  0.00    +0.000 C 
ATOM     18  O   UNL     1      48.422   5.762  13.975  0.00  0.00    +0.000 OA
ATOM     19  H   UNL     1      45.891   4.515  15.400  0.00  0.00    +0.000 HD
BRANCH  17  20
ATOM     20  C   UNL     1      46.210   5.734  13.154  0.00  0.00    +0.000 A 
ATOM     21  C   UNL     1      45.914   7.067  12.896  0.00  0.00    +0.000 A 
ATOM     22  S   UNL     1      44.734   7.279  11.684  0.00  0.00    +0.000 S 
ATOM     23  C   UNL     1      44.534   5.600  11.504  0.00  0.00    +0.000 A 
ATOM     24  N   UNL     1      43.636   5.091  10.618  0.00  0.00    +0.000 NA
ATOM     25  C   UNL     1      43.569   3.800  10.607  0.00  0.00    +0.000 A 
ATOM     26  N   UNL     1      44.316   2.973  11.405  0.00  0.00    +0.000 N 
ATOM     27  C   UNL     1      45.250   3.442  12.299  0.00  0.00    +0.000 A 
ATOM     28  O   UNL     1      45.928   2.674  12.972  0.00  0.00    +0.000 OA
ATOM     29  C   UNL     1      45.365   4.886  12.347  0.00  0.00    +0.000 A 
ATOM     30  H   UNL     1      44.220   1.971  11.346  0.00  0.00    +0.000 HD
ENDBRANCH  17  20
ENDBRANCH   1  16
TORSDOF 5
ENDMDL
MODEL 9
REMARK VINA RESULT:    -7.187      1.753      2.439
REMARK INTER + INTRA:         -10.175
REMARK INTER:                  -9.284
REMARK INTRA:                  -0.891
REMARK UNBOUND:                -0.888
REMARK  Name = 
REMARK  6 active torsions:
REMARK  status: ('A' for Active; 'I' for Inactive)
REMARK    1  A    between atoms: C_1  and  C_2
REMARK    2  A    between atoms: C_6  and  C_7
REMARK    3  A    between atoms: C_7  and  C_8
REMARK    4  A    between atoms: C_11  and  C_12
REMARK    5  A    between atoms: C_12  and  N_13
REMARK    6  A    between atoms: C_14  and  C_16
REMARK                            x       y       z     vdW  Elec       q    Type
REMARK                         _______ _______ _______ _____ _____    ______ ____
ROOT
ATOM      1  C   UNL     1      46.539   7.654  13.468  0.00  0.00    +0.000 C 
ENDROOT
BRANCH   1   5
ATOM      2  C   UNL     1      45.065   4.698  10.771  0.00  0.00    +0.000 A 
ATOM      3  C   UNL     1      45.734   4.275  11.916  0.00  0.00    +0.000 A 
ATOM      4  C   UNL     1      46.238   5.232  12.796  0.00  0.00    +0.000 A 
ATOM      5  C   UNL     1      46.076   6.591  12.515  0.00  0.00    +0.000 A 
ATOM      6  C   UNL     1      45.411   6.918  11.341  0.00  0.00    +0.000 A 
ATOM      7  N   UNL     1      44.915   6.012  10.466  0.00  0.00    +0.000 NA
BRANCH   2   8
ATOM      8  C   UNL     1      44.399   3.688   9.857  0.00  0.00    +0.000 C 
BRANCH   8  14
ATOM      9  C   UNL     1      46.734  -0.230   7.720  0.00  0.00    +0.000 C 
ATOM     10  C   UNL     1      46.431   1.238   7.728  0.00  0.00    +0.000 A 
ATOM     11  C   UNL     1      46.964   2.094   6.760  0.00  0.00    +0.000 A 
ATOM     12  C   UNL     1      46.688   3.462   6.803  0.00  0.00    +0.000 A 
ATOM     13  C   UNL     1      45.874   3.986   7.810  0.00  0.00    +0.000 A 
ATOM     14  C   UNL     1      45.316   3.145   8.779  0.00  0.00    +0.000 A 
ATOM     15  C   UNL     1      45.600   1.770   8.723  0.00  0.00    +0.000 A 
ENDBRANCH   8  14
ENDBRANCH   2   8
ENDBRANCH   1   5
BRANCH   1  16
ATOM     16  N   UNL     1      47.829   7.327  14.023  0.00  0.00    +0.000 N 
ATOM     17  C   UNL     1      48.640   8.286  14.573  0.00  0.00    +0.000 C 
ATOM     18  O   UNL     1      48.304   9.465  14.645  0.00  0.00    +0.000 OA
ATOM     19  H   UNL     1      48.231   6.431  13.761  0.00  0.00    +0.000 HD
BRANCH  17  20
ATOM     20  C   UNL     1      49.919   7.814  15.130  0.00  0.00    +0.000 A 
ATOM     21  C   UNL     1      51.101   8.461  14.791  0.00  0.00    +0.000 A 
ATOM     22  S   UNL     1      52.471   7.837  15.593  0.00  0.00    +0.000 S 
ATOM     23  C   UNL     1      51.542   6.644  16.373  0.00  0.00    +0.000 A 
ATOM     24  N   UNL     1      52.120   5.741  17.210  0.00  0.00    +0.000 NA
ATOM     25  C   UNL     1      51.300   4.875  17.710  0.00  0.00    +0.000 A 
ATOM     26  N   UNL     1      49.956   4.830  17.445  0.00  0.00    +0.000 N 
ATOM     27  C   UNL     1      49.326   5.734  16.622  0.00  0.00    +0.000 A 
ATOM     28  O   UNL     1      48.116   5.687  16.434  0.00  0.00    +0.000 OA
ATOM     29  C   UNL     1      50.203   6.728  16.037  0.00  0.00    +0.000 A 
ATOM     30  H   UNL     1      49.367   4.130  17.871  0.00  0.00    +0.000 HD
ENDBRANCH  17  20
ENDBRANCH   1  16
TORSDOF 5
ENDMDL
