MODEL 1
REMARK VINA RESULT:    -8.749      0.000      0.000
REMARK INTER + INTRA:         -11.706
REMARK INTER:                 -11.307
REMARK INTRA:                  -0.400
REMARK UNBOUND:                -0.400
REMARK  Name = 
REMARK  5 active torsions:
REMARK  status: ('A' for Active; 'I' for Inactive)
REMARK    1  A    between atoms: C_2  and  C_4
REMARK    2  A    between atoms: C_8  and  O_9
REMARK    3  A    between atoms: O_9  and  C_10
REMARK    4  A    between atoms: C_10  and  C_11
REMARK    5  A    between atoms: C_15  and  C_16
REMARK                            x       y       z     vdW  Elec       q    Type
REMARK                         _______ _______ _______ _____ _____    ______ ____
ROOT
ATOM      1  C   UNL     1      43.838   6.291  11.443  0.00  0.00    +0.000 C 
ENDROOT
BRANCH   1   2
ATOM      2  C   UNL     1      43.909   4.868  10.973  0.00  0.00    +0.000 A 
ATOM      3  C   UNL     1      43.231   3.860  11.643  0.00  0.00    +0.000 A 
ATOM      4  N   UNL     1      43.248   2.565  11.269  0.00  0.00    +0.000 NA
ATOM      5  C   UNL     1      44.006   2.256  10.187  0.00  0.00    +0.000 A 
ATOM      6  C   UNL     1      44.765   3.163   9.444  0.00  0.00    +0.000 A 
ATOM      7  C   UNL     1      44.690   4.500   9.869  0.00  0.00    +0.000 A 
BRANCH   6   8
ATOM      8  C   UNL     1      45.623   2.745   8.315  0.00  0.00    +0.000 A 
ATOM      9  C   UNL     1      45.945   3.625   7.265  0.00  0.00    +0.000 A 
ATOM     10  C   UNL     1      46.815   3.247   6.236  0.00  0.00    +0.000 A 
ATOM     11  C   UNL     1      47.371   1.971   6.225  0.00  0.00    +0.000 A 
ATOM     12  C   UNL     1      47.048   1.071   7.235  0.00  0.00    +0.000 A 
ATOM     13  C   UNL     1      46.186   1.456   8.266  0.00  0.00    +0.000 A 
ENDBRANCH   6   8
ENDBRANCH   1   2
BRANCH   1  14
ATOM     14  O   UNL     1      45.114   6.898  11.254  0.00  0.00    +0.000 OA
BRANCH  14  19
ATOM     15  C   UNL     1      47.139   5.463  14.004  0.00  0.00    +0.000 A 
ATOM     16  C   UNL     1      48.088   6.473  14.058  0.00  0.00    +0.000 A 
ATOM     17  N   UNL     1      48.084   7.542  13.227  0.00  0.00    +0.000 NA
ATOM     18  C   UNL     1      47.073   7.606  12.326  0.00  0.00    +0.000 A 
ATOM     19  C   UNL     1      46.061   6.657  12.210  0.00  0.00    +0.000 A 
ATOM     20  C   UNL     1      46.101   5.563  13.072  0.00  0.00    +0.000 A 
BRANCH  15  22
ATOM     21  N   UNL     1      47.096   4.615  16.278  0.00  0.00    +0.000 N 
ATOM     22  C   UNL     1      47.243   4.332  14.949  0.00  0.00    +0.000 C 
ATOM     23  O   UNL     1      47.421   3.187  14.559  0.00  0.00    +0.000 OA
ATOM     24  H   UNL     1      47.058   3.815  16.900  0.00  0.00    +0.000 HD
ATOM     25  H   UNL     1      46.674   5.473  16.607  0.00  0.00    +0.000 HD
ENDBRANCH  15  22
ENDBRANCH  14  19
ENDBRANCH   1  14
TORSDOF 5
ENDMDL
MODEL 2
REMARK VINA RESULT:    -8.535      1.420      2.717
REMARK INTER + INTRA:         -11.430
REMARK INTER:                 -10.565
REMARK INTRA:                  -0.865
REMARK UNBOUND:                -0.400
REMARK  Name = 
REMARK  5 active torsions:
REMARK  status: ('A' for Active; 'I' for Inactive)
REMARK    1  A    between atoms: C_2  and  C_4
REMARK    2  A    between atoms: C_8  and  O_9
REMARK    3  A    between atoms: O_9  and  C_10
REMARK    4  A    between atoms: C_10  and  C_11
REMARK    5  A    between atoms: C_15  and  C_16
REMARK                            x       y       z     vdW  Elec       q    Type
REMARK                         _______ _______ _______ _____ _____    ______ ____
ROOT
ATOM      1  C   UNL     1      44.093   6.465  11.470  0.00  0.00    +0.000 C 
ENDROOT
BRANCH   1   2
ATOM      2  C   UNL     1      44.074   5.042  10.992  0.00  0.00    +0.000 A 
ATOM      3  C   UNL     1      43.329   4.077  11.653  0.00  0.00    +0.000 A 
ATOM      4  N   UNL     1      43.264   2.786  11.273  0.00  0.00    +0.000 NA
ATOM      5  C   UNL     1      44.006   2.433  10.194  0.00  0.00    +0.000 A 
ATOM      6  C   UNL     1      44.826   3.293   9.459  0.00  0.00    +0.000 A 
ATOM      7  C   UNL     1      44.835   4.629   9.890  0.00  0.00    +0.000 A 
BRANCH   6   8
ATOM      8  C   UNL     1      45.660   2.825   8.331  0.00  0.00    +0.000 A 
ATOM      9  C   UNL     1      45.995   3.671   7.258  0.00  0.00    +0.000 A 
ATOM     10  C   UNL     1      46.843   3.246   6.229  0.00  0.00    +0.000 A 
ATOM     11  C   UNL     1      47.365   1.956   6.244  0.00  0.00    +0.000 A 
ATOM     12  C   UNL     1      47.029   1.090   7.278  0.00  0.00    +0.000 A 
ATOM     13  C   UNL     1      46.188   1.521   8.308  0.00  0.00    +0.000 A 
ENDBRANCH   6   8
ENDBRANCH   1   2
BRANCH   1  14
ATOM     14  O   UNL     1      44.737   6.510  12.741  0.00  0.00    +0.000 OA
BRANCH  14  19
ATOM     15  C   UNL     1      48.188   7.762  12.249  0.00  0.00    +0.000 A 
ATOM     16  C   UNL     1      48.839   6.710  12.879  0.00  0.00    +0.000 A 
ATOM     17  N   UNL     1      48.188   5.672  13.455  0.00  0.00    +0.000 NA
ATOM     18  C   UNL     1      46.835   5.683  13.372  0.00  0.00    +0.000 A 
ATOM     19  C   UNL     1      46.092   6.677  12.741  0.00  0.00    +0.000 A 
ATOM     20  C   UNL     1      46.792   7.738  12.169  0.00  0.00    +0.000 A 
BRANCH  15  22
ATOM     21  N   UNL     1      50.320   8.605  11.452  0.00  0.00    +0.000 N 
ATOM     22  C   UNL     1      48.993   8.853  11.664  0.00  0.00    +0.000 C 
ATOM     23  O   UNL     1      48.489   9.923  11.351  0.00  0.00    +0.000 OA
ATOM     24  H   UNL     1      50.830   9.321  10.948  0.00  0.00    +0.000 HD
ATOM     25  H   UNL     1      50.700   7.668  11.428  0.00  0.00    +0.000 HD
ENDBRANCH  15  22
ENDBRANCH  14  19
ENDBRANCH   1  14
TORSDOF 5
ENDMDL
MODEL 3
REMARK VINA RESULT:    -8.435      1.421      1.740
REMARK INTER + INTRA:         -11.300
REMARK INTER:                 -10.575
REMARK INTRA:                  -0.725
REMARK UNBOUND:                -0.400
REMARK  Name = 
REMARK  5 active torsions:
REMARK  status: ('A' for Active; 'I' for Inactive)
REMARK    1  A    between atoms: C_2  and  C_4
REMARK    2  A    between atoms: C_8  and  O_9
REMARK    3  A    between atoms: O_9  and  C_10
REMARK    4  A    between atoms: C_10  and  C_11
REMARK    5  A    between atoms: C_15  and  C_16
REMARK                            x       y       z     vdW  Elec       q    Type
REMARK                         _______ _______ _______ _____ _____    ______ ____
ROOT
ATOM      1  C   UNL     1      44.981   5.645  12.839  0.00  0.00    +0.000 C 
ENDROOT
BRANCH   1   2
ATOM      2  C   UNL     1      44.583   4.496  11.959  0.00  0.00    +0.000 A 
ATOM      3  C   UNL     1      43.570   3.627  12.337  0.00  0.00    +0.000 A 
ATOM      4  N   UNL     1      43.160   2.581  11.592  0.00  0.00    +0.000 NA
ATOM      5  C   UNL     1      43.815   2.375  10.422  0.00  0.00    +0.000 A 
ATOM      6  C   UNL     1      44.872   3.151   9.939  0.00  0.00    +0.000 A 
ATOM      7  C   UNL     1      45.240   4.237  10.749  0.00  0.00    +0.000 A 
BRANCH   6   8
ATOM      8  C   UNL     1      45.586   2.829   8.685  0.00  0.00    +0.000 A 
ATOM      9  C   UNL     1      45.867   3.814   7.720  0.00  0.00    +0.000 A 
ATOM     10  C   UNL     1      46.604   3.519   6.568  0.00  0.00    +0.000 A 
ATOM     11  C   UNL     1      47.067   2.225   6.347  0.00  0.00    +0.000 A 
ATOM     12  C   UNL     1      46.780   1.225   7.271  0.00  0.00    +0.000 A 
ATOM     13  C   UNL     1      46.050   1.526   8.424  0.00  0.00    +0.000 A 
ENDBRANCH   6   8
ENDBRANCH   1   2
BRANCH   1  14
ATOM     14  O   UNL     1      46.398   5.791  12.782  0.00  0.00    +0.000 OA
BRANCH  14  19
ATOM     15  C   UNL     1      47.702   4.362  15.941  0.00  0.00    +0.000 A 
ATOM     16  C   UNL     1      48.624   5.364  16.210  0.00  0.00    +0.000 A 
ATOM     17  N   UNL     1      48.828   6.425  15.394  0.00  0.00    +0.000 NA
ATOM     18  C   UNL     1      48.059   6.489  14.280  0.00  0.00    +0.000 A 
ATOM     19  C   UNL     1      47.090   5.550  13.935  0.00  0.00    +0.000 A 
ATOM     20  C   UNL     1      46.914   4.464  14.790  0.00  0.00    +0.000 A 
BRANCH  15  22
ATOM     21  N   UNL     1      48.696   2.527  17.179  0.00  0.00    +0.000 N 
ATOM     22  C   UNL     1      47.567   3.240  16.892  0.00  0.00    +0.000 C 
ATOM     23  O   UNL     1      46.498   2.979  17.426  0.00  0.00    +0.000 OA
ATOM     24  H   UNL     1      48.610   1.836  17.916  0.00  0.00    +0.000 HD
ATOM     25  H   UNL     1      49.625   2.880  16.988  0.00  0.00    +0.000 HD
ENDBRANCH  15  22
ENDBRANCH  14  19
ENDBRANCH   1  14
TORSDOF 5
ENDMDL
MODEL 4
REMARK VINA RESULT:    -8.430      2.829      6.521
REMARK INTER + INTRA:         -11.293
REMARK INTER:                 -10.692
REMARK INTRA:                  -0.601
REMARK UNBOUND:                -0.400
REMARK  Name = 
REMARK  5 active torsions:
REMARK  status: ('A' for Active; 'I' for Inactive)
REMARK    1  A    between atoms: C_2  and  C_4
REMARK    2  A    between atoms: C_8  and  O_9
REMARK    3  A    between atoms: O_9  and  C_10
REMARK    4  A    between atoms: C_10  and  C_11
REMARK    5  A    between atoms: C_15  and  C_16
REMARK                            x       y       z     vdW  Elec       q    Type
REMARK                         _______ _______ _______ _____ _____    ______ ____
ROOT
ATOM      1  C   UNL     1      43.444   4.338  11.186  0.00  0.00    +0.000 C 
ENDROOT
BRANCH   1   2
ATOM      2  C   UNL     1      44.687   4.681  11.954  0.00  0.00    +0.000 A 
ATOM      3  C   UNL     1      45.153   3.852  12.964  0.00  0.00    +0.000 A 
ATOM      4  N   UNL     1      46.264   4.098  13.687  0.00  0.00    +0.000 NA
ATOM      5  C   UNL     1      46.929   5.247  13.405  0.00  0.00    +0.000 A 
ATOM      6  C   UNL     1      46.551   6.185  12.441  0.00  0.00    +0.000 A 
ATOM      7  C   UNL     1      45.398   5.863  11.707  0.00  0.00    +0.000 A 
BRANCH   6   8
ATOM      8  C   UNL     1      47.287   7.451  12.233  0.00  0.00    +0.000 A 
ATOM      9  C   UNL     1      48.631   7.465  11.817  0.00  0.00    +0.000 A 
ATOM     10  C   UNL     1      49.301   8.665  11.553  0.00  0.00    +0.000 A 
ATOM     11  C   UNL     1      48.644   9.882  11.714  0.00  0.00    +0.000 A 
ATOM     12  C   UNL     1      47.324   9.898  12.151  0.00  0.00    +0.000 A 
ATOM     13  C   UNL     1      46.656   8.697  12.406  0.00  0.00    +0.000 A 
ENDBRANCH   6   8
ENDBRANCH   1   2
BRANCH   1  14
ATOM     14  O   UNL     1      43.636   3.079  10.547  0.00  0.00    +0.000 OA
BRANCH  14  19
ATOM     15  C   UNL     1      46.131   2.126   7.981  0.00  0.00    +0.000 A 
ATOM     16  C   UNL     1      46.105   3.319   7.272  0.00  0.00    +0.000 A 
ATOM     17  N   UNL     1      45.300   4.358   7.595  0.00  0.00    +0.000 NA
ATOM     18  C   UNL     1      44.511   4.198   8.685  0.00  0.00    +0.000 A 
ATOM     19  C   UNL     1      44.482   3.052   9.475  0.00  0.00    +0.000 A 
ATOM     20  C   UNL     1      45.314   1.996   9.109  0.00  0.00    +0.000 A 
BRANCH  15  22
ATOM     21  N   UNL     1      48.162   1.422   6.855  0.00  0.00    +0.000 N 
ATOM     22  C   UNL     1      47.038   1.049   7.536  0.00  0.00    +0.000 C 
ATOM     23  O   UNL     1      46.811  -0.126   7.793  0.00  0.00    +0.000 OA
ATOM     24  H   UNL     1      48.827   0.682   6.656  0.00  0.00    +0.000 HD
ATOM     25  H   UNL     1      48.520   2.368   6.874  0.00  0.00    +0.000 HD
ENDBRANCH  15  22
ENDBRANCH  14  19
ENDBRANCH   1  14
TORSDOF 5
ENDMDL
MODEL 5
REMARK VINA RESULT:    -7.573      1.990      3.528
REMARK INTER + INTRA:         -10.186
REMARK INTER:                  -9.474
REMARK INTRA:                  -0.712
REMARK UNBOUND:                -0.400
REMARK  Name = 
REMARK  5 active torsions:
REMARK  status: ('A' for Active; 'I' for Inactive)
REMARK    1  A    between atoms: C_2  and  C_4
REMARK    2  A    between atoms: C_8  and  O_9
REMARK    3  A    between atoms: O_9  and  C_10
REMARK    4  A    between atoms: C_10  and  C_11
REMARK    5  A    between atoms: C_15  and  C_16
REMARK                            x       y       z     vdW  Elec       q    Type
REMARK                         _______ _______ _______ _____ _____    ______ ____
ROOT
ATOM      1  C   UNL     1      45.014   5.378  13.015  0.00  0.00    +0.000 C 
ENDROOT
BRANCH   1   2
ATOM      2  C   UNL     1      44.613   4.287  12.065  0.00  0.00    +0.000 A 
ATOM      3  C   UNL     1      43.567   3.428  12.367  0.00  0.00    +0.000 A 
ATOM      4  N   UNL     1      43.153   2.433  11.557  0.00  0.00    +0.000 NA
ATOM      5  C   UNL     1      43.839   2.270  10.398  0.00  0.00    +0.000 A 
ATOM      6  C   UNL     1      44.930   3.040   9.987  0.00  0.00    +0.000 A 
ATOM      7  C   UNL     1      45.301   4.073  10.863  0.00  0.00    +0.000 A 
BRANCH   6   8
ATOM      8  C   UNL     1      45.674   2.763   8.740  0.00  0.00    +0.000 A 
ATOM      9  C   UNL     1      46.135   1.472   8.424  0.00  0.00    +0.000 A 
ATOM     10  C   UNL     1      46.776   1.201   7.210  0.00  0.00    +0.000 A 
ATOM     11  C   UNL     1      46.984   2.223   6.288  0.00  0.00    +0.000 A 
ATOM     12  C   UNL     1      46.565   3.515   6.586  0.00  0.00    +0.000 A 
ATOM     13  C   UNL     1      45.917   3.779   7.796  0.00  0.00    +0.000 A 
ENDBRANCH   6   8
ENDBRANCH   1   2
BRANCH   1  14
ATOM     14  O   UNL     1      46.321   5.829  12.666  0.00  0.00    +0.000 OA
BRANCH  14  19
ATOM     15  C   UNL     1      45.903   9.473  12.154  0.00  0.00    +0.000 A 
ATOM     16  C   UNL     1      47.202   9.838  12.479  0.00  0.00    +0.000 A 
ATOM     17  N   UNL     1      48.147   8.951  12.871  0.00  0.00    +0.000 NA
ATOM     18  C   UNL     1      47.775   7.648  12.913  0.00  0.00    +0.000 A 
ATOM     19  C   UNL     1      46.507   7.179  12.582  0.00  0.00    +0.000 A 
ATOM     20  C   UNL     1      45.554   8.120  12.195  0.00  0.00    +0.000 A 
BRANCH  15  22
ATOM     21  N   UNL     1      43.650  10.375  12.158  0.00  0.00    +0.000 N 
ATOM     22  C   UNL     1      44.946  10.523  11.751  0.00  0.00    +0.000 C 
ATOM     23  O   UNL     1      45.302  11.501  11.107  0.00  0.00    +0.000 OA
ATOM     24  H   UNL     1      43.033  11.157  11.970  0.00  0.00    +0.000 HD
ATOM     25  H   UNL     1      43.385   9.752  12.909  0.00  0.00    +0.000 HD
ENDBRANCH  15  22
ENDBRANCH  14  19
ENDBRANCH   1  14
TORSDOF 5
ENDMDL
MODEL 6
REMARK VINA RESULT:    -7.502      2.370      6.707
REMARK INTER + INTRA:         -10.094
REMARK INTER:                  -9.208
REMARK INTRA:                  -0.886
REMARK UNBOUND:                -0.400
REMARK  Name = 
REMARK  5 active torsions:
REMARK  status: ('A' for Active; 'I' for Inactive)
REMARK    1  A    between atoms: C_2  and  C_4
REMARK    2  A    between atoms: C_8  and  O_9
REMARK    3  A    between atoms: O_9  and  C_10
REMARK    4  A    between atoms: C_10  and  C_11
REMARK    5  A    between atoms: C_15  and  C_16
REMARK                            x       y       z     vdW  Elec       q    Type
REMARK                         _______ _______ _______ _____ _____    ______ ____
ROOT
ATOM      1  C   UNL     1      43.824   5.482  12.460  0.00  0.00    +0.000 C 
ENDROOT
BRANCH   1   2
ATOM      2  C   UNL     1      45.272   5.711  12.783  0.00  0.00    +0.000 A 
ATOM      3  C   UNL     1      45.970   4.827  13.592  0.00  0.00    +0.000 A 
ATOM      4  N   UNL     1      47.270   4.970  13.915  0.00  0.00    +0.000 NA
ATOM      5  C   UNL     1      47.899   6.070  13.429  0.00  0.00    +0.000 A 
ATOM      6  C   UNL     1      47.307   7.056  12.635  0.00  0.00    +0.000 A 
ATOM      7  C   UNL     1      45.957   6.840  12.315  0.00  0.00    +0.000 A 
BRANCH   6   8
ATOM      8  C   UNL     1      48.035   8.265  12.195  0.00  0.00    +0.000 A 
ATOM      9  C   UNL     1      49.396   8.222  11.841  0.00  0.00    +0.000 A 
ATOM     10  C   UNL     1      50.062   9.354  11.358  0.00  0.00    +0.000 A 
ATOM     11  C   UNL     1      49.383  10.562  11.232  0.00  0.00    +0.000 A 
ATOM     12  C   UNL     1      48.045  10.641  11.601  0.00  0.00    +0.000 A 
ATOM     13  C   UNL     1      47.381   9.506  12.075  0.00  0.00    +0.000 A 
ENDBRANCH   6   8
ENDBRANCH   1   2
BRANCH   1  14
ATOM     14  O   UNL     1      43.660   5.530  11.044  0.00  0.00    +0.000 OA
BRANCH  14  19
ATOM     15  C   UNL     1      45.344   3.294   8.619  0.00  0.00    +0.000 A 
ATOM     16  C   UNL     1      44.803   2.104   9.085  0.00  0.00    +0.000 A 
ATOM     17  N   UNL     1      43.964   2.033  10.145  0.00  0.00    +0.000 NA
ATOM     18  C   UNL     1      43.641   3.207  10.741  0.00  0.00    +0.000 A 
ATOM     19  C   UNL     1      44.110   4.454  10.334  0.00  0.00    +0.000 A 
ATOM     20  C   UNL     1      44.981   4.489   9.247  0.00  0.00    +0.000 A 
BRANCH  15  22
ATOM     21  N   UNL     1      46.762   2.039   7.101  0.00  0.00    +0.000 N 
ATOM     22  C   UNL     1      46.261   3.258   7.461  0.00  0.00    +0.000 C 
ATOM     23  O   UNL     1      46.536   4.270   6.831  0.00  0.00    +0.000 OA
ATOM     24  H   UNL     1      47.297   2.016   6.240  0.00  0.00    +0.000 HD
ATOM     25  H   UNL     1      46.346   1.169   7.406  0.00  0.00    +0.000 HD
ENDBRANCH  15  22
ENDBRANCH  14  19
ENDBRANCH   1  14
TORSDOF 5
ENDMDL
MODEL 7
REMARK VINA RESULT:    -7.366      2.012      2.598
REMARK INTER + INTRA:          -9.918
REMARK INTER:                  -9.218
REMARK INTRA:                  -0.700
REMARK UNBOUND:                -0.400
REMARK  Name = 
REMARK  5 active torsions:
REMARK  status: ('A' for Active; 'I' for Inactive)
REMARK    1  A    between atoms: C_2  and  C_4
REMARK    2  A    between atoms: C_8  and  O_9
REMARK    3  A    between atoms: O_9  and  C_10
REMARK    4  A    between atoms: C_10  and  C_11
REMARK    5  A    between atoms: C_15  and  C_16
REMARK                            x       y       z     vdW  Elec       q    Type
REMARK                         _______ _______ _______ _____ _____    ______ ____
ROOT
ATOM      1  C   UNL     1      44.633   6.414  12.167  0.00  0.00    +0.000 C 
ENDROOT
BRANCH   1   2
ATOM      2  C   UNL     1      44.394   5.101  11.481  0.00  0.00    +0.000 A 
ATOM      3  C   UNL     1      43.450   4.206  11.964  0.00  0.00    +0.000 A 
ATOM      4  N   UNL     1      43.182   3.015  11.393  0.00  0.00    +0.000 NA
ATOM      5  C   UNL     1      43.917   2.687  10.300  0.00  0.00    +0.000 A 
ATOM      6  C   UNL     1      44.920   3.477   9.732  0.00  0.00    +0.000 A 
ATOM      7  C   UNL     1      45.138   4.715  10.358  0.00  0.00    +0.000 A 
BRANCH   6   8
ATOM      8  C   UNL     1      45.728   3.027   8.579  0.00  0.00    +0.000 A 
ATOM      9  C   UNL     1      46.103   1.681   8.418  0.00  0.00    +0.000 A 
ATOM     10  C   UNL     1      46.807   1.248   7.289  0.00  0.00    +0.000 A 
ATOM     11  C   UNL     1      47.166   2.158   6.299  0.00  0.00    +0.000 A 
ATOM     12  C   UNL     1      46.832   3.500   6.444  0.00  0.00    +0.000 A 
ATOM     13  C   UNL     1      46.122   3.927   7.570  0.00  0.00    +0.000 A 
ENDBRANCH   6   8
ENDBRANCH   1   2
BRANCH   1  14
ATOM     14  O   UNL     1      45.569   7.166  11.398  0.00  0.00    +0.000 OA
BRANCH  14  19
ATOM     15  C   UNL     1      48.108   8.562  13.706  0.00  0.00    +0.000 A 
ATOM     16  C   UNL     1      49.226   8.127  13.008  0.00  0.00    +0.000 A 
ATOM     17  N   UNL     1      49.154   7.396  11.870  0.00  0.00    +0.000 NA
ATOM     18  C   UNL     1      47.911   7.115  11.408  0.00  0.00    +0.000 A 
ATOM     19  C   UNL     1      46.730   7.527  12.020  0.00  0.00    +0.000 A 
ATOM     20  C   UNL     1      46.840   8.267  13.196  0.00  0.00    +0.000 A 
BRANCH  15  22
ATOM     21  N   UNL     1      47.466   9.063  15.992  0.00  0.00    +0.000 N 
ATOM     22  C   UNL     1      48.298   9.342  14.945  0.00  0.00    +0.000 C 
ATOM     23  O   UNL     1      49.184  10.181  15.044  0.00  0.00    +0.000 OA
ATOM     24  H   UNL     1      47.682   9.526  16.867  0.00  0.00    +0.000 HD
ATOM     25  H   UNL     1      46.930   8.207  16.046  0.00  0.00    +0.000 HD
ENDBRANCH  15  22
ENDBRANCH  14  19
ENDBRANCH   1  14
TORSDOF 5
ENDMDL
MODEL 8
REMARK VINA RESULT:    -7.019      2.539      4.218
REMARK INTER + INTRA:          -9.470
REMARK INTER:                  -8.750
REMARK INTRA:                  -0.720
REMARK UNBOUND:                -0.400
REMARK  Name = 
REMARK  5 active torsions:
REMARK  status: ('A' for Active; 'I' for Inactive)
REMARK    1  A    between atoms: C_2  and  C_4
REMARK    2  A    between atoms: C_8  and  O_9
REMARK    3  A    between atoms: O_9  and  C_10
REMARK    4  A    between atoms: C_10  and  C_11
REMARK    5  A    between atoms: C_15  and  C_16
REMARK                            x       y       z     vdW  Elec       q    Type
REMARK                         _______ _______ _______ _____ _____    ______ ____
ROOT
ATOM      1  C   UNL     1      48.034   7.797  13.786  0.00  0.00    +0.000 C 
ENDROOT
BRANCH   1   2
ATOM      2  C   UNL     1      46.854   7.641  12.872  0.00  0.00    +0.000 A 
ATOM      3  C   UNL     1      45.874   8.620  12.799  0.00  0.00    +0.000 A 
ATOM      4  N   UNL     1      44.794   8.544  11.996  0.00  0.00    +0.000 NA
ATOM      5  C   UNL     1      44.671   7.418  11.248  0.00  0.00    +0.000 A 
ATOM      6  C   UNL     1      45.563   6.343  11.252  0.00  0.00    +0.000 A 
ATOM      7  C   UNL     1      46.678   6.489  12.093  0.00  0.00    +0.000 A 
BRANCH   6   8
ATOM      8  C   UNL     1      45.332   5.116  10.461  0.00  0.00    +0.000 A 
ATOM      9  C   UNL     1      44.718   3.979  11.021  0.00  0.00    +0.000 A 
ATOM     10  C   UNL     1      44.438   2.846  10.249  0.00  0.00    +0.000 A 
ATOM     11  C   UNL     1      44.778   2.818   8.900  0.00  0.00    +0.000 A 
ATOM     12  C   UNL     1      45.410   3.916   8.327  0.00  0.00    +0.000 A 
ATOM     13  C   UNL     1      45.682   5.050   9.100  0.00  0.00    +0.000 A 
ENDBRANCH   6   8
ENDBRANCH   1   2
BRANCH   1  14
ATOM     14  O   UNL     1      48.545   6.503  14.096  0.00  0.00    +0.000 OA
BRANCH  14  19
ATOM     15  C   UNL     1      48.111   4.718  17.312  0.00  0.00    +0.000 A 
ATOM     16  C   UNL     1      48.648   5.706  18.125  0.00  0.00    +0.000 A 
ATOM     17  N   UNL     1      49.149   6.870  17.649  0.00  0.00    +0.000 NA
ATOM     18  C   UNL     1      49.084   7.054  16.308  0.00  0.00    +0.000 A 
ATOM     19  C   UNL     1      48.542   6.136  15.412  0.00  0.00    +0.000 A 
ATOM     20  C   UNL     1      48.047   4.943  15.933  0.00  0.00    +0.000 A 
BRANCH  15  22
ATOM     21  N   UNL     1      48.232   3.046  19.067  0.00  0.00    +0.000 N 
ATOM     22  C   UNL     1      47.604   3.478  17.933  0.00  0.00    +0.000 C 
ATOM     23  O   UNL     1      46.642   2.879  17.472  0.00  0.00    +0.000 OA
ATOM     24  H   UNL     1      47.801   2.260  19.541  0.00  0.00    +0.000 HD
ATOM     25  H   UNL     1      48.824   3.649  19.623  0.00  0.00    +0.000 HD
ENDBRANCH  15  22
ENDBRANCH  14  19
ENDBRANCH   1  14
TORSDOF 5
ENDMDL
MODEL 9
REMARK VINA RESULT:    -7.018      2.499      4.537
REMARK INTER + INTRA:          -9.469
REMARK INTER:                  -8.740
REMARK INTRA:                  -0.728
REMARK UNBOUND:                -0.400
REMARK  Name = 
REMARK  5 active torsions:
REMARK  status: ('A' for Active; 'I' for Inactive)
REMARK    1  A    between atoms: C_2  and  C_4
REMARK    2  A    between atoms: C_8  and  O_9
REMARK    3  A    between atoms: O_9  and  C_10
REMARK    4  A    between atoms: C_10  and  C_11
REMARK    5  A    between atoms: C_15  and  C_16
REMARK                            x       y       z     vdW  Elec       q    Type
REMARK                         _______ _______ _______ _____ _____    ______ ____
ROOT
ATOM      1  C   UNL     1      48.149   7.148  14.082  0.00  0.00    +0.000 C 
ENDROOT
BRANCH   1   2
ATOM      2  C   UNL     1      47.009   7.215  13.108  0.00  0.00    +0.000 A 
ATOM      3  C   UNL     1      46.182   8.327  13.054  0.00  0.00    +0.000 A 
ATOM      4  N   UNL     1      45.147   8.453  12.201  0.00  0.00    +0.000 NA
ATOM      5  C   UNL     1      44.907   7.401  11.378  0.00  0.00    +0.000 A 
ATOM      6  C   UNL     1      45.637   6.211  11.352  0.00  0.00    +0.000 A 
ATOM      7  C   UNL     1      46.716   6.147  12.249  0.00  0.00    +0.000 A 
BRANCH   6   8
ATOM      8  C   UNL     1      45.278   5.077  10.474  0.00  0.00    +0.000 A 
ATOM      9  C   UNL     1      45.647   5.046   9.117  0.00  0.00    +0.000 A 
ATOM     10  C   UNL     1      45.367   3.939   8.308  0.00  0.00    +0.000 A 
ATOM     11  C   UNL     1      44.696   2.841   8.836  0.00  0.00    +0.000 A 
ATOM     12  C   UNL     1      44.295   2.855  10.168  0.00  0.00    +0.000 A 
ATOM     13  C   UNL     1      44.584   3.959  10.975  0.00  0.00    +0.000 A 
ENDBRANCH   6   8
ENDBRANCH   1   2
BRANCH   1  14
ATOM     14  O   UNL     1      48.428   5.778  14.363  0.00  0.00    +0.000 OA
BRANCH  14  19
ATOM     15  C   UNL     1      48.073   5.253  18.013  0.00  0.00    +0.000 A 
ATOM     16  C   UNL     1      47.239   4.146  17.942  0.00  0.00    +0.000 A 
ATOM     17  N   UNL     1      46.796   3.623  16.775  0.00  0.00    +0.000 NA
ATOM     18  C   UNL     1      47.228   4.222  15.639  0.00  0.00    +0.000 A 
ATOM     19  C   UNL     1      48.084   5.320  15.604  0.00  0.00    +0.000 A 
ATOM     20  C   UNL     1      48.512   5.842  16.822  0.00  0.00    +0.000 A 
BRANCH  15  22
ATOM     21  N   UNL     1      47.833   5.249  20.428  0.00  0.00    +0.000 N 
ATOM     22  C   UNL     1      48.487   5.753  19.340  0.00  0.00    +0.000 C 
ATOM     23  O   UNL     1      49.399   6.560  19.463  0.00  0.00    +0.000 OA
ATOM     24  H   UNL     1      48.205   5.517  21.332  0.00  0.00    +0.000 HD
ATOM     25  H   UNL     1      47.291   4.396  20.389  0.00  0.00    +0.000 HD
ENDBRANCH  15  22
ENDBRANCH  14  19
ENDBRANCH   1  14
TORSDOF 5
ENDMDL
