MODEL 1
REMARK VINA RESULT:    -7.957      0.000      0.000
REMARK INTER + INTRA:         -10.897
REMARK INTER:                 -10.283
REMARK INTRA:                  -0.614
REMARK UNBOUND:                -0.614
REMARK  Name = 
REMARK  5 active torsions:
REMARK  status: ('A' for Active; 'I' for Inactive)
REMARK    1  A    between atoms: C_2  and  C_3
REMARK    2  A    between atoms: C_7  and  C_8
REMARK    3  A    between atoms: C_8  and  O_9
REMARK    4  A    between atoms: O_9  and  C_10
REMARK    5  A    between atoms: C_14  and  C_15
REMARK                            x       y       z     vdW  Elec       q    Type
REMARK                         _______ _______ _______ _____ _____    ______ ____
ROOT
ATOM      1  C   UNL     1      45.033   4.224  11.551  0.00  0.00    +0.000 A 
ATOM      2  C   UNL     1      45.460   3.500  12.653  0.00  0.00    +0.000 A 
ATOM      3  N   UNL     1      46.336   3.956  13.572  0.00  0.00    +0.000 NA
ATOM      4  C   UNL     1      46.804   5.212  13.380  0.00  0.00    +0.000 A 
ATOM      5  C   UNL     1      46.438   6.055  12.325  0.00  0.00    +0.000 A 
ATOM      6  C   UNL     1      45.520   5.523  11.401  0.00  0.00    +0.000 A 
ENDROOT
BRANCH   5   7
ATOM      7  C   UNL     1      46.992   7.420  12.193  0.00  0.00    +0.000 A 
ATOM      8  C   UNL     1      48.374   7.639  12.012  0.00  0.00    +0.000 A 
ATOM      9  C   UNL     1      48.902   8.927  11.864  0.00  0.00    +0.000 A 
ATOM     10  C   UNL     1      48.056  10.028  11.902  0.00  0.00    +0.000 A 
ATOM     11  C   UNL     1      46.696   9.832  12.089  0.00  0.00    +0.000 A 
ATOM     12  F   UNL     1      45.876  10.890  12.130  0.00  0.00    +0.000 F 
ATOM     13  C   UNL     1      46.164   8.553  12.231  0.00  0.00    +0.000 A 
ENDBRANCH   5   7
BRANCH   1  14
ATOM     14  O   UNL     1      44.135   3.611  10.728  0.00  0.00    +0.000 OA
BRANCH  14  15
ATOM     15  C   UNL     1      44.033   4.143   9.404  0.00  0.00    +0.000 C 
BRANCH  15  20
ATOM     16  C   UNL     1      46.411   1.672   7.781  0.00  0.00    +0.000 A 
ATOM     17  C   UNL     1      47.189   2.540   7.018  0.00  0.00    +0.000 A 
ATOM     18  C   UNL     1      46.887   3.887   7.068  0.00  0.00    +0.000 A 
ATOM     19  N   UNL     1      45.884   4.402   7.811  0.00  0.00    +0.000 NA
ATOM     20  C   UNL     1      45.138   3.548   8.557  0.00  0.00    +0.000 A 
ATOM     21  C   UNL     1      45.369   2.176   8.560  0.00  0.00    +0.000 A 
BRANCH  16  23
ATOM     22  N   UNL     1      46.890  -0.877   7.750  0.00  0.00    +0.000 NA
ATOM     23  C   UNL     1      46.680   0.266   7.764  0.00  0.00    +0.000 C 
ENDBRANCH  16  23
ENDBRANCH  15  20
ENDBRANCH  14  15
ENDBRANCH   1  14
TORSDOF 5
ENDMDL
MODEL 2
REMARK VINA RESULT:    -7.911      3.383      7.055
REMARK INTER + INTRA:         -10.838
REMARK INTER:                 -10.163
REMARK INTRA:                  -0.675
REMARK UNBOUND:                -0.614
REMARK  Name = 
REMARK  5 active torsions:
REMARK  status: ('A' for Active; 'I' for Inactive)
REMARK    1  A    between atoms: C_2  and  C_3
REMARK    2  A    between atoms: C_7  and  C_8
REMARK    3  A    between atoms: C_8  and  O_9
REMARK    4  A    between atoms: O_9  and  C_10
REMARK    5  A    between atoms: C_14  and  C_15
REMARK                            x       y       z     vdW  Elec       q    Type
REMARK                         _______ _______ _______ _____ _____    ______ ____
ROOT
ATOM      1  C   UNL     1      44.191   5.254  11.162  0.00  0.00    +0.000 A 
ATOM      2  C   UNL     1      43.343   4.351  11.786  0.00  0.00    +0.000 A 
ATOM      3  N   UNL     1      43.206   3.059  11.424  0.00  0.00    +0.000 NA
ATOM      4  C   UNL     1      43.966   2.646  10.383  0.00  0.00    +0.000 A 
ATOM      5  C   UNL     1      44.875   3.446   9.682  0.00  0.00    +0.000 A 
ATOM      6  C   UNL     1      44.975   4.784  10.109  0.00  0.00    +0.000 A 
ENDROOT
BRANCH   5   7
ATOM      7  C   UNL     1      45.674   2.912   8.558  0.00  0.00    +0.000 A 
ATOM      8  C   UNL     1      46.172   3.756   7.543  0.00  0.00    +0.000 A 
ATOM      9  C   UNL     1      46.947   3.260   6.488  0.00  0.00    +0.000 A 
ATOM     10  C   UNL     1      47.236   1.902   6.423  0.00  0.00    +0.000 A 
ATOM     11  C   UNL     1      46.746   1.057   7.407  0.00  0.00    +0.000 A 
ATOM     12  F   UNL     1      47.019  -0.253   7.347  0.00  0.00    +0.000 F 
ATOM     13  C   UNL     1      45.979   1.545   8.462  0.00  0.00    +0.000 A 
ENDBRANCH   5   7
BRANCH   1  14
ATOM     14  O   UNL     1      44.212   6.521  11.666  0.00  0.00    +0.000 OA
BRANCH  14  15
ATOM     15  C   UNL     1      45.053   6.728  12.805  0.00  0.00    +0.000 C 
BRANCH  15  20
ATOM     16  C   UNL     1      48.352   8.316  11.812  0.00  0.00    +0.000 A 
ATOM     17  C   UNL     1      47.995   9.663  11.831  0.00  0.00    +0.000 A 
ATOM     18  C   UNL     1      46.691   9.978  12.159  0.00  0.00    +0.000 A 
ATOM     19  N   UNL     1      45.751   9.056  12.457  0.00  0.00    +0.000 NA
ATOM     20  C   UNL     1      46.112   7.748  12.444  0.00  0.00    +0.000 A 
ATOM     21  C   UNL     1      47.402   7.342  12.119  0.00  0.00    +0.000 A 
BRANCH  16  23
ATOM     22  N   UNL     1      50.780   7.634  11.206  0.00  0.00    +0.000 NA
ATOM     23  C   UNL     1      49.691   7.935  11.477  0.00  0.00    +0.000 C 
ENDBRANCH  16  23
ENDBRANCH  15  20
ENDBRANCH  14  15
ENDBRANCH   1  14
TORSDOF 5
ENDMDL
MODEL 3
REMARK VINA RESULT:    -7.902      3.125      6.626
REMARK INTER + INTRA:         -10.825
REMARK INTER:                 -10.283
REMARK INTRA:                  -0.543
REMARK UNBOUND:                -0.614
REMARK  Name = 
REMARK  5 active torsions:
REMARK  status: ('A' for Active; 'I' for Inactive)
REMARK    1  A    between atoms: C_2  and  C_3
REMARK    2  A    between atoms: C_7  and  C_8
REMARK    3  A    between atoms: C_8  and  O_9
REMARK    4  A    between atoms: O_9  and  C_10
REMARK    5  A    between atoms: C_14  and  C_15
REMARK                            x       y       z     vdW  Elec       q    Type
REMARK                         _______ _______ _______ _____ _____    ______ ____
ROOT
ATOM      1  C   UNL     1      43.853   5.019  10.685  0.00  0.00    +0.000 A 
ATOM      2  C   UNL     1      43.154   4.067  11.411  0.00  0.00    +0.000 A 
ATOM      3  N   UNL     1      43.206   2.739  11.177  0.00  0.00    +0.000 NA
ATOM      4  C   UNL     1      44.011   2.343  10.163  0.00  0.00    +0.000 A 
ATOM      5  C   UNL     1      44.786   3.196   9.369  0.00  0.00    +0.000 A 
ATOM      6  C   UNL     1      44.690   4.569   9.663  0.00  0.00    +0.000 A 
ENDROOT
BRANCH   5   7
ATOM      7  C   UNL     1      45.646   2.678   8.283  0.00  0.00    +0.000 A 
ATOM      8  C   UNL     1      46.196   1.380   8.334  0.00  0.00    +0.000 A 
ATOM      9  C   UNL     1      46.992   0.877   7.299  0.00  0.00    +0.000 A 
ATOM     10  C   UNL     1      47.263   1.668   6.190  0.00  0.00    +0.000 A 
ATOM     11  C   UNL     1      46.739   2.950   6.127  0.00  0.00    +0.000 A 
ATOM     12  F   UNL     1      47.000   3.718   5.061  0.00  0.00    +0.000 F 
ATOM     13  C   UNL     1      45.941   3.455   7.151  0.00  0.00    +0.000 A 
ENDBRANCH   5   7
BRANCH   1  14
ATOM     14  O   UNL     1      43.690   6.319  11.066  0.00  0.00    +0.000 OA
BRANCH  14  15
ATOM     15  C   UNL     1      43.834   6.585  12.464  0.00  0.00    +0.000 C 
BRANCH  15  20
ATOM     16  C   UNL     1      46.983   5.132  14.004  0.00  0.00    +0.000 A 
ATOM     17  C   UNL     1      47.929   6.045  13.542  0.00  0.00    +0.000 A 
ATOM     18  C   UNL     1      47.487   7.081  12.743  0.00  0.00    +0.000 A 
ATOM     19  N   UNL     1      46.196   7.254  12.387  0.00  0.00    +0.000 NA
ATOM     20  C   UNL     1      45.281   6.364  12.851  0.00  0.00    +0.000 A 
ATOM     21  C   UNL     1      45.641   5.287  13.655  0.00  0.00    +0.000 A 
BRANCH  16  23
ATOM     22  N   UNL     1      47.725   3.150  15.502  0.00  0.00    +0.000 NA
ATOM     23  C   UNL     1      47.389   4.039  14.834  0.00  0.00    +0.000 C 
ENDBRANCH  16  23
ENDBRANCH  15  20
ENDBRANCH  14  15
ENDBRANCH   1  14
TORSDOF 5
ENDMDL
MODEL 4
REMARK VINA RESULT:    -7.844      3.401      7.241
REMARK INTER + INTRA:         -10.751
REMARK INTER:                 -10.051
REMARK INTRA:                  -0.700
REMARK UNBOUND:                -0.614
REMARK  Name = 
REMARK  5 active torsions:
REMARK  status: ('A' for Active; 'I' for Inactive)
REMARK    1  A    between atoms: C_2  and  C_3
REMARK    2  A    between atoms: C_7  and  C_8
REMARK    3  A    between atoms: C_8  and  O_9
REMARK    4  A    between atoms: O_9  and  C_10
REMARK    5  A    between atoms: C_14  and  C_15
REMARK                            x       y       z     vdW  Elec       q    Type
REMARK                         _______ _______ _______ _____ _____    ______ ____
ROOT
ATOM      1  C   UNL     1      44.301   5.383  11.028  0.00  0.00    +0.000 A 
ATOM      2  C   UNL     1      43.391   4.553  11.664  0.00  0.00    +0.000 A 
ATOM      3  N   UNL     1      43.182   3.260  11.340  0.00  0.00    +0.000 NA
ATOM      4  C   UNL     1      43.934   2.769  10.327  0.00  0.00    +0.000 A 
ATOM      5  C   UNL     1      44.901   3.491   9.618  0.00  0.00    +0.000 A 
ATOM      6  C   UNL     1      45.074   4.834  10.005  0.00  0.00    +0.000 A 
ENDROOT
BRANCH   5   7
ATOM      7  C   UNL     1      45.686   2.875   8.527  0.00  0.00    +0.000 A 
ATOM      8  C   UNL     1      46.214   3.649   7.472  0.00  0.00    +0.000 A 
ATOM      9  C   UNL     1      46.976   3.075   6.448  0.00  0.00    +0.000 A 
ATOM     10  C   UNL     1      47.220   1.707   6.453  0.00  0.00    +0.000 A 
ATOM     11  C   UNL     1      46.700   0.930   7.477  0.00  0.00    +0.000 A 
ATOM     12  F   UNL     1      46.930  -0.390   7.485  0.00  0.00    +0.000 F 
ATOM     13  C   UNL     1      45.946   1.496   8.502  0.00  0.00    +0.000 A 
ENDBRANCH   5   7
BRANCH   1  14
ATOM     14  O   UNL     1      44.389   6.663  11.493  0.00  0.00    +0.000 OA
BRANCH  14  15
ATOM     15  C   UNL     1      44.961   6.818  12.795  0.00  0.00    +0.000 C 
BRANCH  15  20
ATOM     16  C   UNL     1      48.190   8.635  11.980  0.00  0.00    +0.000 A 
ATOM     17  C   UNL     1      49.121   7.669  12.360  0.00  0.00    +0.000 A 
ATOM     18  C   UNL     1      48.641   6.479  12.871  0.00  0.00    +0.000 A 
ATOM     19  N   UNL     1      47.327   6.205  13.023  0.00  0.00    +0.000 NA
ATOM     20  C   UNL     1      46.430   7.150  12.642  0.00  0.00    +0.000 A 
ATOM     21  C   UNL     1      46.827   8.378  12.124  0.00  0.00    +0.000 A 
BRANCH  16  23
ATOM     22  N   UNL     1      48.991  10.900  11.004  0.00  0.00    +0.000 NA
ATOM     23  C   UNL     1      48.634   9.886  11.446  0.00  0.00    +0.000 C 
ENDBRANCH  16  23
ENDBRANCH  15  20
ENDBRANCH  14  15
ENDBRANCH   1  14
TORSDOF 5
ENDMDL
MODEL 5
REMARK VINA RESULT:    -7.635      1.872      2.109
REMARK INTER + INTRA:         -10.480
REMARK INTER:                  -9.884
REMARK INTRA:                  -0.596
REMARK UNBOUND:                -0.614
REMARK  Name = 
REMARK  5 active torsions:
REMARK  status: ('A' for Active; 'I' for Inactive)
REMARK    1  A    between atoms: C_2  and  C_3
REMARK    2  A    between atoms: C_7  and  C_8
REMARK    3  A    between atoms: C_8  and  O_9
REMARK    4  A    between atoms: O_9  and  C_10
REMARK    5  A    between atoms: C_14  and  C_15
REMARK                            x       y       z     vdW  Elec       q    Type
REMARK                         _______ _______ _______ _____ _____    ______ ____
ROOT
ATOM      1  C   UNL     1      45.173   5.074  11.742  0.00  0.00    +0.000 A 
ATOM      2  C   UNL     1      45.008   4.109  12.724  0.00  0.00    +0.000 A 
ATOM      3  N   UNL     1      45.840   3.939  13.773  0.00  0.00    +0.000 NA
ATOM      4  C   UNL     1      46.892   4.788  13.845  0.00  0.00    +0.000 A 
ATOM      5  C   UNL     1      47.160   5.817  12.934  0.00  0.00    +0.000 A 
ATOM      6  C   UNL     1      46.255   5.945  11.865  0.00  0.00    +0.000 A 
ENDROOT
BRANCH   5   7
ATOM      7  C   UNL     1      48.330   6.708  13.091  0.00  0.00    +0.000 A 
ATOM      8  C   UNL     1      48.935   7.332  11.980  0.00  0.00    +0.000 A 
ATOM      9  C   UNL     1      50.029   8.193  12.124  0.00  0.00    +0.000 A 
ATOM     10  C   UNL     1      50.548   8.443  13.389  0.00  0.00    +0.000 A 
ATOM     11  C   UNL     1      49.973   7.830  14.491  0.00  0.00    +0.000 A 
ATOM     12  F   UNL     1      50.471   8.065  15.712  0.00  0.00    +0.000 F 
ATOM     13  C   UNL     1      48.881   6.977  14.355  0.00  0.00    +0.000 A 
ENDBRANCH   5   7
BRANCH   1  14
ATOM     14  O   UNL     1      44.229   5.110  10.758  0.00  0.00    +0.000 OA
BRANCH  14  15
ATOM     15  C   UNL     1      43.855   3.846  10.202  0.00  0.00    +0.000 C 
BRANCH  15  20
ATOM     16  C   UNL     1      46.204   1.803   8.033  0.00  0.00    +0.000 A 
ATOM     17  C   UNL     1      46.788   2.817   7.276  0.00  0.00    +0.000 A 
ATOM     18  C   UNL     1      46.375   4.114   7.510  0.00  0.00    +0.000 A 
ATOM     19  N   UNL     1      45.440   4.447   8.425  0.00  0.00    +0.000 NA
ATOM     20  C   UNL     1      44.884   3.453   9.163  0.00  0.00    +0.000 A 
ATOM     21  C   UNL     1      45.237   2.119   8.987  0.00  0.00    +0.000 A 
BRANCH  16  23
ATOM     22  N   UNL     1      46.911  -0.664   7.655  0.00  0.00    +0.000 NA
ATOM     23  C   UNL     1      46.596   0.441   7.829  0.00  0.00    +0.000 C 
ENDBRANCH  16  23
ENDBRANCH  15  20
ENDBRANCH  14  15
ENDBRANCH   1  14
TORSDOF 5
ENDMDL
MODEL 6
REMARK VINA RESULT:    -7.601      3.660      7.345
REMARK INTER + INTRA:         -10.436
REMARK INTER:                  -9.880
REMARK INTRA:                  -0.556
REMARK UNBOUND:                -0.614
REMARK  Name = 
REMARK  5 active torsions:
REMARK  status: ('A' for Active; 'I' for Inactive)
REMARK    1  A    between atoms: C_2  and  C_3
REMARK    2  A    between atoms: C_7  and  C_8
REMARK    3  A    between atoms: C_8  and  O_9
REMARK    4  A    between atoms: O_9  and  C_10
REMARK    5  A    between atoms: C_14  and  C_15
REMARK                            x       y       z     vdW  Elec       q    Type
REMARK                         _______ _______ _______ _____ _____    ______ ____
ROOT
ATOM      1  C   UNL     1      44.874   4.742  11.928  0.00  0.00    +0.000 A 
ATOM      2  C   UNL     1      43.715   4.059  12.263  0.00  0.00    +0.000 A 
ATOM      3  N   UNL     1      43.172   3.070  11.523  0.00  0.00    +0.000 NA
ATOM      4  C   UNL     1      43.833   2.742  10.387  0.00  0.00    +0.000 A 
ATOM      5  C   UNL     1      45.021   3.335   9.947  0.00  0.00    +0.000 A 
ATOM      6  C   UNL     1      45.538   4.359  10.763  0.00  0.00    +0.000 A 
ENDROOT
BRANCH   5   7
ATOM      7  C   UNL     1      45.684   2.911   8.695  0.00  0.00    +0.000 A 
ATOM      8  C   UNL     1      46.039   3.844   7.698  0.00  0.00    +0.000 A 
ATOM      9  C   UNL     1      46.686   3.452   6.520  0.00  0.00    +0.000 A 
ATOM     10  C   UNL     1      46.985   2.111   6.311  0.00  0.00    +0.000 A 
ATOM     11  C   UNL     1      46.634   1.179   7.276  0.00  0.00    +0.000 A 
ATOM     12  F   UNL     1      46.917  -0.115   7.078  0.00  0.00    +0.000 F 
ATOM     13  C   UNL     1      45.995   1.564   8.452  0.00  0.00    +0.000 A 
ENDBRANCH   5   7
BRANCH   1  14
ATOM     14  O   UNL     1      45.286   5.708  12.799  0.00  0.00    +0.000 OA
BRANCH  14  15
ATOM     15  C   UNL     1      46.656   6.107  12.688  0.00  0.00    +0.000 C 
BRANCH  15  20
ATOM     16  C   UNL     1      47.565   4.623  16.060  0.00  0.00    +0.000 A 
ATOM     17  C   UNL     1      48.617   5.461  16.424  0.00  0.00    +0.000 A 
ATOM     18  C   UNL     1      48.979   6.461  15.543  0.00  0.00    +0.000 A 
ATOM     19  N   UNL     1      48.371   6.666  14.354  0.00  0.00    +0.000 NA
ATOM     20  C   UNL     1      47.342   5.849  14.013  0.00  0.00    +0.000 A 
ATOM     21  C   UNL     1      46.918   4.813  14.838  0.00  0.00    +0.000 A 
BRANCH  16  23
ATOM     22  N   UNL     1      46.807   2.718  17.647  0.00  0.00    +0.000 NA
ATOM     23  C   UNL     1      47.151   3.570  16.936  0.00  0.00    +0.000 C 
ENDBRANCH  16  23
ENDBRANCH  15  20
ENDBRANCH  14  15
ENDBRANCH   1  14
TORSDOF 5
ENDMDL
MODEL 7
REMARK VINA RESULT:    -7.550      3.375      7.268
REMARK INTER + INTRA:         -10.371
REMARK INTER:                  -9.736
REMARK INTRA:                  -0.635
REMARK UNBOUND:                -0.614
REMARK  Name = 
REMARK  5 active torsions:
REMARK  status: ('A' for Active; 'I' for Inactive)
REMARK    1  A    between atoms: C_2  and  C_3
REMARK    2  A    between atoms: C_7  and  C_8
REMARK    3  A    between atoms: C_8  and  O_9
REMARK    4  A    between atoms: O_9  and  C_10
REMARK    5  A    between atoms: C_14  and  C_15
REMARK                            x       y       z     vdW  Elec       q    Type
REMARK                         _______ _______ _______ _____ _____    ______ ____
ROOT
ATOM      1  C   UNL     1      44.517   4.312  12.246  0.00  0.00    +0.000 A 
ATOM      2  C   UNL     1      43.461   3.456  12.519  0.00  0.00    +0.000 A 
ATOM      3  N   UNL     1      43.055   2.462  11.702  0.00  0.00    +0.000 NA
ATOM      4  C   UNL     1      43.751   2.313  10.550  0.00  0.00    +0.000 A 
ATOM      5  C   UNL     1      44.848   3.093  10.166  0.00  0.00    +0.000 A 
ATOM      6  C   UNL     1      45.224   4.111  11.061  0.00  0.00    +0.000 A 
ENDROOT
BRANCH   5   7
ATOM      7  C   UNL     1      45.559   2.858   8.890  0.00  0.00    +0.000 A 
ATOM      8  C   UNL     1      45.894   3.922   8.027  0.00  0.00    +0.000 A 
ATOM      9  C   UNL     1      46.586   3.709   6.829  0.00  0.00    +0.000 A 
ATOM     10  C   UNL     1      46.952   2.419   6.465  0.00  0.00    +0.000 A 
ATOM     11  C   UNL     1      46.623   1.360   7.297  0.00  0.00    +0.000 A 
ATOM     12  F   UNL     1      46.971   0.114   6.948  0.00  0.00    +0.000 F 
ATOM     13  C   UNL     1      45.939   1.566   8.492  0.00  0.00    +0.000 A 
ENDBRANCH   5   7
BRANCH   1  14
ATOM     14  O   UNL     1      44.797   5.256  13.190  0.00  0.00    +0.000 OA
BRANCH  14  15
ATOM     15  C   UNL     1      46.184   5.483  13.457  0.00  0.00    +0.000 C 
BRANCH  15  20
ATOM     16  C   UNL     1      45.927   9.096  12.330  0.00  0.00    +0.000 A 
ATOM     17  C   UNL     1      47.272   9.383  12.107  0.00  0.00    +0.000 A 
ATOM     18  C   UNL     1      48.192   8.382  12.348  0.00  0.00    +0.000 A 
ATOM     19  N   UNL     1      47.858   7.149  12.786  0.00  0.00    +0.000 NA
ATOM     20  C   UNL     1      46.544   6.877  12.990  0.00  0.00    +0.000 A 
ATOM     21  C   UNL     1      45.553   7.830  12.779  0.00  0.00    +0.000 A 
BRANCH  16  23
ATOM     22  N   UNL     1      44.127  10.913  11.900  0.00  0.00    +0.000 NA
ATOM     23  C   UNL     1      44.932  10.099  12.097  0.00  0.00    +0.000 C 
ENDBRANCH  16  23
ENDBRANCH  15  20
ENDBRANCH  14  15
ENDBRANCH   1  14
TORSDOF 5
ENDMDL
MODEL 8
REMARK VINA RESULT:    -6.918      2.080      2.926
REMARK INTER + INTRA:          -9.554
REMARK INTER:                  -8.785
REMARK INTRA:                  -0.769
REMARK UNBOUND:                -0.614
REMARK  Name = 
REMARK  5 active torsions:
REMARK  status: ('A' for Active; 'I' for Inactive)
REMARK    1  A    between atoms: C_2  and  C_3
REMARK    2  A    between atoms: C_7  and  C_8
REMARK    3  A    between atoms: C_8  and  O_9
REMARK    4  A    between atoms: O_9  and  C_10
REMARK    5  A    between atoms: C_14  and  C_15
REMARK                            x       y       z     vdW  Elec       q    Type
REMARK                         _______ _______ _______ _____ _____    ______ ____
ROOT
ATOM      1  C   UNL     1      45.093   5.679  12.929  0.00  0.00    +0.000 A 
ATOM      2  C   UNL     1      45.874   4.800  13.665  0.00  0.00    +0.000 A 
ATOM      3  N   UNL     1      47.184   4.985  13.931  0.00  0.00    +0.000 NA
ATOM      4  C   UNL     1      47.740   6.116  13.438  0.00  0.00    +0.000 A 
ATOM      5  C   UNL     1      47.061   7.093  12.701  0.00  0.00    +0.000 A 
ATOM      6  C   UNL     1      45.697   6.845  12.458  0.00  0.00    +0.000 A 
ENDROOT
BRANCH   5   7
ATOM      7  C   UNL     1      47.744   8.307  12.205  0.00  0.00    +0.000 A 
ATOM      8  C   UNL     1      47.086   9.553  12.152  0.00  0.00    +0.000 A 
ATOM      9  C   UNL     1      47.734  10.710  11.704  0.00  0.00    +0.000 A 
ATOM     10  C   UNL     1      49.059  10.642  11.290  0.00  0.00    +0.000 A 
ATOM     11  C   UNL     1      49.719   9.423  11.326  0.00  0.00    +0.000 A 
ATOM     12  F   UNL     1      50.994   9.352  10.925  0.00  0.00    +0.000 F 
ATOM     13  C   UNL     1      49.081   8.270  11.775  0.00  0.00    +0.000 A 
ENDBRANCH   5   7
BRANCH   1  14
ATOM     14  O   UNL     1      43.782   5.339  12.765  0.00  0.00    +0.000 OA
BRANCH  14  15
ATOM     15  C   UNL     1      43.268   5.450  11.434  0.00  0.00    +0.000 C 
BRANCH  15  20
ATOM     16  C   UNL     1      45.073   3.485   8.737  0.00  0.00    +0.000 A 
ATOM     17  C   UNL     1      44.762   2.184   9.129  0.00  0.00    +0.000 A 
ATOM     18  C   UNL     1      43.988   2.020  10.260  0.00  0.00    +0.000 A 
ATOM     19  N   UNL     1      43.520   3.047  11.002  0.00  0.00    +0.000 NA
ATOM     20  C   UNL     1      43.821   4.310  10.606  0.00  0.00    +0.000 A 
ATOM     21  C   UNL     1      44.601   4.565   9.483  0.00  0.00    +0.000 A 
BRANCH  16  23
ATOM     22  N   UNL     1      46.523   3.886   6.625  0.00  0.00    +0.000 NA
ATOM     23  C   UNL     1      45.875   3.711   7.573  0.00  0.00    +0.000 C 
ENDBRANCH  16  23
ENDBRANCH  15  20
ENDBRANCH  14  15
ENDBRANCH   1  14
TORSDOF 5
ENDMDL
MODEL 9
REMARK VINA RESULT:    -6.610      4.019      7.511
REMARK INTER + INTRA:          -9.156
REMARK INTER:                  -8.506
REMARK INTRA:                  -0.650
REMARK UNBOUND:                -0.614
REMARK  Name = 
REMARK  5 active torsions:
REMARK  status: ('A' for Active; 'I' for Inactive)
REMARK    1  A    between atoms: C_2  and  C_3
REMARK    2  A    between atoms: C_7  and  C_8
REMARK    3  A    between atoms: C_8  and  O_9
REMARK    4  A    between atoms: O_9  and  C_10
REMARK    5  A    between atoms: C_14  and  C_15
REMARK                            x       y       z     vdW  Elec       q    Type
REMARK                         _______ _______ _______ _____ _____    ______ ____
ROOT
ATOM      1  C   UNL     1      47.861   7.407  13.168  0.00  0.00    +0.000 A 
ATOM      2  C   UNL     1      47.045   8.498  13.425  0.00  0.00    +0.000 A 
ATOM      3  N   UNL     1      45.790   8.640  12.950  0.00  0.00    +0.000 NA
ATOM      4  C   UNL     1      45.325   7.628  12.181  0.00  0.00    +0.000 A 
ATOM      5  C   UNL     1      46.035   6.464  11.864  0.00  0.00    +0.000 A 
ATOM      6  C   UNL     1      47.337   6.374  12.391  0.00  0.00    +0.000 A 
ENDROOT
BRANCH   5   7
ATOM      7  C   UNL     1      45.448   5.401  11.020  0.00  0.00    +0.000 A 
ATOM      8  C   UNL     1      45.710   5.330   9.636  0.00  0.00    +0.000 A 
ATOM      9  C   UNL     1      45.175   4.313   8.837  0.00  0.00    +0.000 A 
ATOM     10  C   UNL     1      44.356   3.346   9.407  0.00  0.00    +0.000 A 
ATOM     11  C   UNL     1      44.079   3.406  10.764  0.00  0.00    +0.000 A 
ATOM     12  F   UNL     1      43.288   2.478  11.318  0.00  0.00    +0.000 F 
ATOM     13  C   UNL     1      44.613   4.412  11.566  0.00  0.00    +0.000 A 
ENDBRANCH   5   7
BRANCH   1  14
ATOM     14  O   UNL     1      49.100   7.424  13.738  0.00  0.00    +0.000 OA
BRANCH  14  15
ATOM     15  C   UNL     1      49.148   7.784  15.122  0.00  0.00    +0.000 C 
BRANCH  15  20
ATOM     16  C   UNL     1      48.507   4.544  16.989  0.00  0.00    +0.000 A 
ATOM     17  C   UNL     1      49.788   4.277  17.469  0.00  0.00    +0.000 A 
ATOM     18  C   UNL     1      50.794   5.167  17.148  0.00  0.00    +0.000 A 
ATOM     19  N   UNL     1      50.604   6.273  16.397  0.00  0.00    +0.000 NA
ATOM     20  C   UNL     1      49.351   6.528  15.941  0.00  0.00    +0.000 A 
ATOM     21  C   UNL     1      48.281   5.681  16.212  0.00  0.00    +0.000 A 
BRANCH  16  23
ATOM     22  N   UNL     1      46.547   2.936  17.532  0.00  0.00    +0.000 NA
ATOM     23  C   UNL     1      47.429   3.653  17.291  0.00  0.00    +0.000 C 
ENDBRANCH  16  23
ENDBRANCH  15  20
ENDBRANCH  14  15
ENDBRANCH   1  14
TORSDOF 5
ENDMDL
