MODEL 1
REMARK VINA RESULT:    -8.550      0.000      0.000
REMARK INTER + INTRA:         -14.187
REMARK INTER:                 -13.298
REMARK INTRA:                  -0.888
REMARK UNBOUND:                -0.888
REMARK  Name = 
REMARK  10 active torsions:
REMARK  status: ('A' for Active; 'I' for Inactive)
REMARK    1  A    between atoms: C_2  and  C_23
REMARK    2  A    between atoms: N_3  and  C_4
REMARK    3  A    between atoms: C_4  and  C_5
REMARK    4  A    between atoms: C_8  and  C_9
REMARK    5  A    between atoms: C_9  and  N_10
REMARK    6  A    between atoms: N_10  and  C_11
REMARK    7  A    between atoms: N_10  and  C_14
REMARK    8  A    between atoms: C_11  and  C_12
REMARK    9  A    between atoms: C_12  and  O_13
REMARK   10  A    between atoms: C_14  and  C_15
REMARK                            x       y       z     vdW  Elec       q    Type
REMARK                         _______ _______ _______ _____ _____    ______ ____
ROOT
ATOM      1  C   UNL     1      47.962   6.431  14.036  0.00  0.00    +0.000 A 
ATOM      2  C   UNL     1      47.018   5.399  14.151  0.00  0.00    +0.000 A 
ATOM      3  C   UNL     1      46.105   5.155  13.119  0.00  0.00    +0.000 A 
ATOM      4  C   UNL     1      46.121   5.938  11.957  0.00  0.00    +0.000 A 
ATOM      5  C   UNL     1      47.135   6.894  11.802  0.00  0.00    +0.000 A 
ATOM      6  C   UNL     1      48.048   7.134  12.830  0.00  0.00    +0.000 A 
ENDROOT
BRANCH   1   7
ATOM      7  C   UNL     1      48.838   6.818  15.200  0.00  0.00    +0.000 C 
BRANCH   7  10
ATOM      8  O   UNL     1      50.756   5.360  16.644  0.00  0.00    +0.000 OA
ATOM      9  C   UNL     1      49.618   5.474  17.085  0.00  0.00    +0.000 C 
ATOM     10  N   UNL     1      48.577   6.040  16.375  0.00  0.00    +0.000 N 
ATOM     11  H   UNL     1      47.720   6.183  16.901  0.00  0.00    +0.000 HD
BRANCH   9  12
ATOM     12  C   UNL     1      49.244   5.152  18.473  0.00  0.00    +0.000 A 
ATOM     13  N   UNL     1      49.046   3.871  18.862  0.00  0.00    +0.000 NA
ATOM     14  N   UNL     1      48.469   3.993  20.068  0.00  0.00    +0.000 N 
ATOM     15  C   UNL     1      48.214   5.284  20.437  0.00  0.00    +0.000 A 
ATOM     16  C   UNL     1      47.457   5.821  21.482  0.00  0.00    +0.000 A 
ATOM     17  C   UNL     1      47.450   7.214  21.609  0.00  0.00    +0.000 A 
ATOM     18  C   UNL     1      48.215   8.019  20.765  0.00  0.00    +0.000 A 
ATOM     19  C   UNL     1      48.929   7.461  19.697  0.00  0.00    +0.000 A 
ATOM     20  C   UNL     1      48.879   6.068  19.503  0.00  0.00    +0.000 A 
ATOM     21  H   UNL     1      48.231   3.149  20.577  0.00  0.00    +0.000 HD
ENDBRANCH   9  12
ENDBRANCH   7  10
ENDBRANCH   1   7
BRANCH   4  22
ATOM     22  C   UNL     1      45.043   5.791  10.899  0.00  0.00    +0.000 C 
BRANCH  22  23
ATOM     23  N   UNL     1      44.612   4.387  10.656  0.00  0.00    +0.000 NA
BRANCH  23  24
ATOM     24  C   UNL     1      43.391   4.069  11.436  0.00  0.00    +0.000 C 
BRANCH  24  25
ATOM     25  C   UNL     1      42.559   5.291  11.880  0.00  0.00    +0.000 C 
BRANCH  25  26
ATOM     26  O   UNL     1      42.553   5.405  13.300  0.00  0.00    +0.000 OA
ATOM     27  H   UNL     1      42.460   6.350  13.510  0.00  0.00    +0.000 HD
ENDBRANCH  25  26
ENDBRANCH  24  25
ENDBRANCH  23  24
BRANCH  23  28
ATOM     28  C   UNL     1      44.351   4.187   9.210  0.00  0.00    +0.000 C 
BRANCH  28  29
ATOM     29  C   UNL     1      45.361   3.318   8.490  0.00  0.00    +0.000 A 
ATOM     30  C   UNL     1      45.470   1.952   8.788  0.00  0.00    +0.000 A 
ATOM     31  C   UNL     1      46.366   1.148   8.088  0.00  0.00    +0.000 A 
ATOM     32  C   UNL     1      47.151   1.701   7.079  0.00  0.00    +0.000 A 
ATOM     33  C   UNL     1      47.055   3.058   6.778  0.00  0.00    +0.000 A 
ATOM     34  C   UNL     1      46.159   3.861   7.480  0.00  0.00    +0.000 A 
ENDBRANCH  28  29
ENDBRANCH  23  28
ENDBRANCH  22  23
ENDBRANCH   4  22
TORSDOF 10
ENDMDL
MODEL 2
REMARK VINA RESULT:    -8.246      2.369      2.842
REMARK INTER + INTRA:         -13.715
REMARK INTER:                 -12.178
REMARK INTRA:                  -1.537
REMARK UNBOUND:                -0.888
REMARK  Name = 
REMARK  10 active torsions:
REMARK  status: ('A' for Active; 'I' for Inactive)
REMARK    1  A    between atoms: C_2  and  C_23
REMARK    2  A    between atoms: N_3  and  C_4
REMARK    3  A    between atoms: C_4  and  C_5
REMARK    4  A    between atoms: C_8  and  C_9
REMARK    5  A    between atoms: C_9  and  N_10
REMARK    6  A    between atoms: N_10  and  C_11
REMARK    7  A    between atoms: N_10  and  C_14
REMARK    8  A    between atoms: C_11  and  C_12
REMARK    9  A    between atoms: C_12  and  O_13
REMARK   10  A    between atoms: C_14  and  C_15
REMARK                            x       y       z     vdW  Elec       q    Type
REMARK                         _______ _______ _______ _____ _____    ______ ____
ROOT
ATOM      1  C   UNL     1      47.825   7.652  13.269  0.00  0.00    +0.000 A 
ATOM      2  C   UNL     1      46.699   8.480  13.146  0.00  0.00    +0.000 A 
ATOM      3  C   UNL     1      45.531   8.004  12.540  0.00  0.00    +0.000 A 
ATOM      4  C   UNL     1      45.470   6.694  12.048  0.00  0.00    +0.000 A 
ATOM      5  C   UNL     1      46.558   5.838  12.271  0.00  0.00    +0.000 A 
ATOM      6  C   UNL     1      47.722   6.312  12.879  0.00  0.00    +0.000 A 
ENDROOT
BRANCH   1   7
ATOM      7  C   UNL     1      49.142   8.194  13.763  0.00  0.00    +0.000 C 
BRANCH   7  10
ATOM      8  O   UNL     1      49.502   8.529  16.528  0.00  0.00    +0.000 OA
ATOM      9  C   UNL     1      49.830   7.476  15.994  0.00  0.00    +0.000 C 
ATOM     10  N   UNL     1      49.830   7.281  14.627  0.00  0.00    +0.000 N 
ATOM     11  H   UNL     1      50.005   6.328  14.324  0.00  0.00    +0.000 HD
BRANCH   9  12
ATOM     12  C   UNL     1      50.132   6.241  16.740  0.00  0.00    +0.000 A 
ATOM     13  N   UNL     1      51.405   5.919  17.067  0.00  0.00    +0.000 NA
ATOM     14  N   UNL     1      51.313   4.643  17.473  0.00  0.00    +0.000 N 
ATOM     15  C   UNL     1      50.062   4.106  17.348  0.00  0.00    +0.000 A 
ATOM     16  C   UNL     1      49.599   2.792  17.452  0.00  0.00    +0.000 A 
ATOM     17  C   UNL     1      48.221   2.592  17.319  0.00  0.00    +0.000 A 
ATOM     18  C   UNL     1      47.350   3.669  17.152  0.00  0.00    +0.000 A 
ATOM     19  C   UNL     1      47.841   4.971  17.003  0.00  0.00    +0.000 A 
ATOM     20  C   UNL     1      49.233   5.180  17.051  0.00  0.00    +0.000 A 
ATOM     21  H   UNL     1      52.154   4.175  17.788  0.00  0.00    +0.000 HD
ENDBRANCH   9  12
ENDBRANCH   7  10
ENDBRANCH   1   7
BRANCH   4  22
ATOM     22  C   UNL     1      44.272   6.212  11.251  0.00  0.00    +0.000 C 
BRANCH  22  23
ATOM     23  N   UNL     1      44.285   4.755  10.948  0.00  0.00    +0.000 NA
BRANCH  23  24
ATOM     24  C   UNL     1      43.248   4.044  11.736  0.00  0.00    +0.000 C 
BRANCH  24  25
ATOM     25  C   UNL     1      43.676   2.673  12.300  0.00  0.00    +0.000 C 
BRANCH  25  26
ATOM     26  O   UNL     1      45.067   2.667  12.606  0.00  0.00    +0.000 OA
ATOM     27  H   UNL     1      45.483   2.000  12.034  0.00  0.00    +0.000 HD
ENDBRANCH  25  26
ENDBRANCH  24  25
ENDBRANCH  23  24
BRANCH  23  28
ATOM     28  C   UNL     1      44.049   4.543   9.500  0.00  0.00    +0.000 C 
BRANCH  28  29
ATOM     29  C   UNL     1      45.076   3.677   8.802  0.00  0.00    +0.000 A 
ATOM     30  C   UNL     1      45.111   2.292   9.019  0.00  0.00    +0.000 A 
ATOM     31  C   UNL     1      46.026   1.494   8.337  0.00  0.00    +0.000 A 
ATOM     32  C   UNL     1      46.906   2.073   7.426  0.00  0.00    +0.000 A 
ATOM     33  C   UNL     1      46.885   3.449   7.206  0.00  0.00    +0.000 A 
ATOM     34  C   UNL     1      45.970   4.246   7.890  0.00  0.00    +0.000 A 
ENDBRANCH  28  29
ENDBRANCH  23  28
ENDBRANCH  22  23
ENDBRANCH   4  22
TORSDOF 10
ENDMDL
MODEL 3
REMARK VINA RESULT:    -7.882      2.179     10.131
REMARK INTER + INTRA:         -13.147
REMARK INTER:                 -11.974
REMARK INTRA:                  -1.174
REMARK UNBOUND:                -0.888
REMARK  Name = 
REMARK  10 active torsions:
REMARK  status: ('A' for Active; 'I' for Inactive)
REMARK    1  A    between atoms: C_2  and  C_23
REMARK    2  A    between atoms: N_3  and  C_4
REMARK    3  A    between atoms: C_4  and  C_5
REMARK    4  A    between atoms: C_8  and  C_9
REMARK    5  A    between atoms: C_9  and  N_10
REMARK    6  A    between atoms: N_10  and  C_11
REMARK    7  A    between atoms: N_10  and  C_14
REMARK    8  A    between atoms: C_11  and  C_12
REMARK    9  A    between atoms: C_12  and  O_13
REMARK   10  A    between atoms: C_14  and  C_15
REMARK                            x       y       z     vdW  Elec       q    Type
REMARK                         _______ _______ _______ _____ _____    ______ ____
ROOT
ATOM      1  C   UNL     1      45.682   5.892  12.730  0.00  0.00    +0.000 A 
ATOM      2  C   UNL     1      46.690   6.831  12.994  0.00  0.00    +0.000 A 
ATOM      3  C   UNL     1      47.631   6.598  14.003  0.00  0.00    +0.000 A 
ATOM      4  C   UNL     1      47.579   5.422  14.763  0.00  0.00    +0.000 A 
ATOM      5  C   UNL     1      46.638   4.439  14.422  0.00  0.00    +0.000 A 
ATOM      6  C   UNL     1      45.702   4.671  13.413  0.00  0.00    +0.000 A 
ENDROOT
BRANCH   1   7
ATOM      7  C   UNL     1      44.563   6.199  11.767  0.00  0.00    +0.000 C 
BRANCH   7  10
ATOM      8  O   UNL     1      45.947   5.824   9.351  0.00  0.00    +0.000 OA
ATOM      9  C   UNL     1      45.158   4.970   9.741  0.00  0.00    +0.000 C 
ATOM     10  N   UNL     1      44.329   5.139  10.832  0.00  0.00    +0.000 N 
ATOM     11  H   UNL     1      43.816   4.310  11.120  0.00  0.00    +0.000 HD
BRANCH   9  12
ATOM     12  C   UNL     1      45.093   3.606   9.188  0.00  0.00    +0.000 A 
ATOM     13  N   UNL     1      44.327   2.654   9.768  0.00  0.00    +0.000 NA
ATOM     14  N   UNL     1      44.729   1.519   9.175  0.00  0.00    +0.000 N 
ATOM     15  C   UNL     1      45.768   1.683   8.303  0.00  0.00    +0.000 A 
ATOM     16  C   UNL     1      46.598   0.761   7.660  0.00  0.00    +0.000 A 
ATOM     17  C   UNL     1      47.547   1.274   6.770  0.00  0.00    +0.000 A 
ATOM     18  C   UNL     1      47.615   2.640   6.497  0.00  0.00    +0.000 A 
ATOM     19  C   UNL     1      46.805   3.550   7.188  0.00  0.00    +0.000 A 
ATOM     20  C   UNL     1      45.901   3.057   8.149  0.00  0.00    +0.000 A 
ATOM     21  H   UNL     1      44.281   0.651   9.442  0.00  0.00    +0.000 HD
ENDBRANCH   9  12
ENDBRANCH   7  10
ENDBRANCH   1   7
BRANCH   4  22
ATOM     22  C   UNL     1      48.490   5.223  15.960  0.00  0.00    +0.000 C 
BRANCH  22  23
ATOM     23  N   UNL     1      47.973   5.811  17.226  0.00  0.00    +0.000 NA
BRANCH  23  24
ATOM     24  C   UNL     1      47.623   4.746  18.198  0.00  0.00    +0.000 C 
BRANCH  24  25
ATOM     25  C   UNL     1      47.815   3.303  17.687  0.00  0.00    +0.000 C 
BRANCH  25  26
ATOM     26  O   UNL     1      46.598   2.568  17.785  0.00  0.00    +0.000 OA
ATOM     27  H   UNL     1      46.527   2.254  18.702  0.00  0.00    +0.000 HD
ENDBRANCH  25  26
ENDBRANCH  24  25
ENDBRANCH  23  24
BRANCH  23  28
ATOM     28  C   UNL     1      48.995   6.711  17.813  0.00  0.00    +0.000 C 
BRANCH  28  29
ATOM     29  C   UNL     1      48.583   8.163  17.926  0.00  0.00    +0.000 A 
ATOM     30  C   UNL     1      48.837   9.063  16.881  0.00  0.00    +0.000 A 
ATOM     31  C   UNL     1      48.412  10.386  16.971  0.00  0.00    +0.000 A 
ATOM     32  C   UNL     1      47.722  10.816  18.101  0.00  0.00    +0.000 A 
ATOM     33  C   UNL     1      47.469   9.933  19.149  0.00  0.00    +0.000 A 
ATOM     34  C   UNL     1      47.896   8.611  19.058  0.00  0.00    +0.000 A 
ENDBRANCH  28  29
ENDBRANCH  23  28
ENDBRANCH  22  23
ENDBRANCH   4  22
TORSDOF 10
ENDMDL
MODEL 4
REMARK VINA RESULT:    -7.851      2.509      9.696
REMARK INTER + INTRA:         -13.100
REMARK INTER:                 -11.656
REMARK INTRA:                  -1.444
REMARK UNBOUND:                -0.888
REMARK  Name = 
REMARK  10 active torsions:
REMARK  status: ('A' for Active; 'I' for Inactive)
REMARK    1  A    between atoms: C_2  and  C_23
REMARK    2  A    between atoms: N_3  and  C_4
REMARK    3  A    between atoms: C_4  and  C_5
REMARK    4  A    between atoms: C_8  and  C_9
REMARK    5  A    between atoms: C_9  and  N_10
REMARK    6  A    between atoms: N_10  and  C_11
REMARK    7  A    between atoms: N_10  and  C_14
REMARK    8  A    between atoms: C_11  and  C_12
REMARK    9  A    between atoms: C_12  and  O_13
REMARK   10  A    between atoms: C_14  and  C_15
REMARK                            x       y       z     vdW  Elec       q    Type
REMARK                         _______ _______ _______ _____ _____    ______ ____
ROOT
ATOM      1  C   UNL     1      46.359   6.874  12.350  0.00  0.00    +0.000 A 
ATOM      2  C   UNL     1      47.369   5.953  12.665  0.00  0.00    +0.000 A 
ATOM      3  C   UNL     1      48.401   6.303  13.543  0.00  0.00    +0.000 A 
ATOM      4  C   UNL     1      48.438   7.580  14.120  0.00  0.00    +0.000 A 
ATOM      5  C   UNL     1      47.369   8.457  13.888  0.00  0.00    +0.000 A 
ATOM      6  C   UNL     1      46.338   8.105  13.015  0.00  0.00    +0.000 A 
ENDROOT
BRANCH   1   7
ATOM      7  C   UNL     1      45.338   6.576  11.282  0.00  0.00    +0.000 C 
BRANCH   7  10
ATOM      8  O   UNL     1      43.090   5.192  10.324  0.00  0.00    +0.000 OA
ATOM      9  C   UNL     1      44.188   4.647  10.321  0.00  0.00    +0.000 C 
ATOM     10  N   UNL     1      45.312   5.193  10.909  0.00  0.00    +0.000 N 
ATOM     11  H   UNL     1      46.181   4.698  10.727  0.00  0.00    +0.000 HD
BRANCH   9  12
ATOM     12  C   UNL     1      44.485   3.413   9.573  0.00  0.00    +0.000 A 
ATOM     13  N   UNL     1      43.977   2.221   9.965  0.00  0.00    +0.000 NA
ATOM     14  N   UNL     1      44.667   1.329   9.238  0.00  0.00    +0.000 N 
ATOM     15  C   UNL     1      45.646   1.880   8.459  0.00  0.00    +0.000 A 
ATOM     16  C   UNL     1      46.696   1.306   7.738  0.00  0.00    +0.000 A 
ATOM     17  C   UNL     1      47.499   2.171   6.988  0.00  0.00    +0.000 A 
ATOM     18  C   UNL     1      47.220   3.536   6.920  0.00  0.00    +0.000 A 
ATOM     19  C   UNL     1      46.191   4.096   7.688  0.00  0.00    +0.000 A 
ATOM     20  C   UNL     1      45.425   3.250   8.513  0.00  0.00    +0.000 A 
ATOM     21  H   UNL     1      44.452   0.345   9.350  0.00  0.00    +0.000 HD
ENDBRANCH   9  12
ENDBRANCH   7  10
ENDBRANCH   1   7
BRANCH   4  22
ATOM     22  C   UNL     1      49.628   8.030  14.947  0.00  0.00    +0.000 C 
BRANCH  22  23
ATOM     23  N   UNL     1      50.385   6.918  15.584  0.00  0.00    +0.000 NA
BRANCH  23  24
ATOM     24  C   UNL     1      51.820   7.269  15.721  0.00  0.00    +0.000 C 
BRANCH  24  25
ATOM     25  C   UNL     1      52.486   6.808  17.035  0.00  0.00    +0.000 C 
BRANCH  25  26
ATOM     26  O   UNL     1      53.172   5.574  16.846  0.00  0.00    +0.000 OA
ATOM     27  H   UNL     1      52.966   5.012  17.611  0.00  0.00    +0.000 HD
ENDBRANCH  25  26
ENDBRANCH  24  25
ENDBRANCH  23  24
BRANCH  23  28
ATOM     28  C   UNL     1      49.811   6.623  16.919  0.00  0.00    +0.000 C 
BRANCH  28  29
ATOM     29  C   UNL     1      49.172   5.257  17.055  0.00  0.00    +0.000 A 
ATOM     30  C   UNL     1      49.938   4.142  17.422  0.00  0.00    +0.000 A 
ATOM     31  C   UNL     1      49.336   2.898  17.593  0.00  0.00    +0.000 A 
ATOM     32  C   UNL     1      47.962   2.763  17.409  0.00  0.00    +0.000 A 
ATOM     33  C   UNL     1      47.191   3.863  17.039  0.00  0.00    +0.000 A 
ATOM     34  C   UNL     1      47.795   5.105  16.868  0.00  0.00    +0.000 A 
ENDBRANCH  28  29
ENDBRANCH  23  28
ENDBRANCH  22  23
ENDBRANCH   4  22
TORSDOF 10
ENDMDL
MODEL 5
REMARK VINA RESULT:    -7.730      1.181      1.350
REMARK INTER + INTRA:         -12.911
REMARK INTER:                 -11.853
REMARK INTRA:                  -1.058
REMARK UNBOUND:                -0.888
REMARK  Name = 
REMARK  10 active torsions:
REMARK  status: ('A' for Active; 'I' for Inactive)
REMARK    1  A    between atoms: C_2  and  C_23
REMARK    2  A    between atoms: N_3  and  C_4
REMARK    3  A    between atoms: C_4  and  C_5
REMARK    4  A    between atoms: C_8  and  C_9
REMARK    5  A    between atoms: C_9  and  N_10
REMARK    6  A    between atoms: N_10  and  C_11
REMARK    7  A    between atoms: N_10  and  C_14
REMARK    8  A    between atoms: C_11  and  C_12
REMARK    9  A    between atoms: C_12  and  O_13
REMARK   10  A    between atoms: C_14  and  C_15
REMARK                            x       y       z     vdW  Elec       q    Type
REMARK                         _______ _______ _______ _____ _____    ______ ____
ROOT
ATOM      1  C   UNL     1      48.389   6.842  13.442  0.00  0.00    +0.000 A 
ATOM      2  C   UNL     1      47.434   5.890  13.829  0.00  0.00    +0.000 A 
ATOM      3  C   UNL     1      46.377   5.558  12.974  0.00  0.00    +0.000 A 
ATOM      4  C   UNL     1      46.259   6.171  11.720  0.00  0.00    +0.000 A 
ATOM      5  C   UNL     1      47.276   7.039  11.295  0.00  0.00    +0.000 A 
ATOM      6  C   UNL     1      48.331   7.367  12.147  0.00  0.00    +0.000 A 
ENDROOT
BRANCH   1   7
ATOM      7  C   UNL     1      49.433   7.336  14.411  0.00  0.00    +0.000 C 
BRANCH   7  10
ATOM      8  O   UNL     1      51.319   7.687  16.462  0.00  0.00    +0.000 OA
ATOM      9  C   UNL     1      50.521   6.759  16.520  0.00  0.00    +0.000 C 
ATOM     10  N   UNL     1      49.665   6.423  15.491  0.00  0.00    +0.000 N 
ATOM     11  H   UNL     1      48.972   5.714  15.716  0.00  0.00    +0.000 HD
BRANCH   9  12
ATOM     12  C   UNL     1      50.273   5.973  17.742  0.00  0.00    +0.000 A 
ATOM     13  N   UNL     1      50.716   4.699  17.852  0.00  0.00    +0.000 NA
ATOM     14  N   UNL     1      50.081   4.237  18.940  0.00  0.00    +0.000 N 
ATOM     15  C   UNL     1      49.193   5.121  19.487  0.00  0.00    +0.000 A 
ATOM     16  C   UNL     1      48.206   4.966  20.463  0.00  0.00    +0.000 A 
ATOM     17  C   UNL     1      47.497   6.112  20.837  0.00  0.00    +0.000 A 
ATOM     18  C   UNL     1      47.810   7.360  20.299  0.00  0.00    +0.000 A 
ATOM     19  C   UNL     1      48.771   7.484  19.288  0.00  0.00    +0.000 A 
ATOM     20  C   UNL     1      49.436   6.326  18.840  0.00  0.00    +0.000 A 
ATOM     21  H   UNL     1      50.265   3.286  19.239  0.00  0.00    +0.000 HD
ENDBRANCH   9  12
ENDBRANCH   7  10
ENDBRANCH   1   7
BRANCH   4  22
ATOM     22  C   UNL     1      45.039   5.941  10.847  0.00  0.00    +0.000 C 
BRANCH  22  23
ATOM     23  N   UNL     1      44.672   4.509  10.676  0.00  0.00    +0.000 NA
BRANCH  23  24
ATOM     24  C   UNL     1      43.486   4.167  11.499  0.00  0.00    +0.000 C 
BRANCH  24  25
ATOM     25  C   UNL     1      43.621   2.885  12.346  0.00  0.00    +0.000 C 
BRANCH  25  26
ATOM     26  O   UNL     1      43.071   1.766  11.657  0.00  0.00    +0.000 OA
ATOM     27  H   UNL     1      43.817   1.218  11.361  0.00  0.00    +0.000 HD
ENDBRANCH  25  26
ENDBRANCH  24  25
ENDBRANCH  23  24
BRANCH  23  28
ATOM     28  C   UNL     1      44.388   4.233   9.247  0.00  0.00    +0.000 C 
BRANCH  28  29
ATOM     29  C   UNL     1      45.405   3.355   8.548  0.00  0.00    +0.000 A 
ATOM     30  C   UNL     1      45.433   1.972   8.776  0.00  0.00    +0.000 A 
ATOM     31  C   UNL     1      46.339   1.164   8.093  0.00  0.00    +0.000 A 
ATOM     32  C   UNL     1      47.215   1.731   7.171  0.00  0.00    +0.000 A 
ATOM     33  C   UNL     1      47.200   3.105   6.941  0.00  0.00    +0.000 A 
ATOM     34  C   UNL     1      46.295   3.912   7.625  0.00  0.00    +0.000 A 
ENDBRANCH  28  29
ENDBRANCH  23  28
ENDBRANCH  22  23
ENDBRANCH   4  22
TORSDOF 10
ENDMDL
MODEL 6
REMARK VINA RESULT:    -7.591      2.552      9.863
REMARK INTER + INTRA:         -12.695
REMARK INTER:                 -11.577
REMARK INTRA:                  -1.119
REMARK UNBOUND:                -0.888
REMARK  Name = 
REMARK  10 active torsions:
REMARK  status: ('A' for Active; 'I' for Inactive)
REMARK    1  A    between atoms: C_2  and  C_23
REMARK    2  A    between atoms: N_3  and  C_4
REMARK    3  A    between atoms: C_4  and  C_5
REMARK    4  A    between atoms: C_8  and  C_9
REMARK    5  A    between atoms: C_9  and  N_10
REMARK    6  A    between atoms: N_10  and  C_11
REMARK    7  A    between atoms: N_10  and  C_14
REMARK    8  A    between atoms: C_11  and  C_12
REMARK    9  A    between atoms: C_12  and  O_13
REMARK   10  A    between atoms: C_14  and  C_15
REMARK                            x       y       z     vdW  Elec       q    Type
REMARK                         _______ _______ _______ _____ _____    ______ ____
ROOT
ATOM      1  C   UNL     1      46.663   6.590  12.367  0.00  0.00    +0.000 A 
ATOM      2  C   UNL     1      47.418   7.772  12.412  0.00  0.00    +0.000 A 
ATOM      3  C   UNL     1      48.290   8.017  13.478  0.00  0.00    +0.000 A 
ATOM      4  C   UNL     1      48.422   7.084  14.515  0.00  0.00    +0.000 A 
ATOM      5  C   UNL     1      47.750   5.859  14.410  0.00  0.00    +0.000 A 
ATOM      6  C   UNL     1      46.883   5.613  13.344  0.00  0.00    +0.000 A 
ENDROOT
BRANCH   1   7
ATOM      7  C   UNL     1      45.599   6.385  11.320  0.00  0.00    +0.000 C 
BRANCH   7  10
ATOM      8  O   UNL     1      43.303   5.218  10.199  0.00  0.00    +0.000 OA
ATOM      9  C   UNL     1      44.349   4.581  10.246  0.00  0.00    +0.000 C 
ATOM     10  N   UNL     1      45.478   5.017  10.911  0.00  0.00    +0.000 N 
ATOM     11  H   UNL     1      46.311   4.453  10.767  0.00  0.00    +0.000 HD
BRANCH   9  12
ATOM     12  C   UNL     1      44.585   3.341   9.485  0.00  0.00    +0.000 A 
ATOM     13  N   UNL     1      44.003   2.176   9.853  0.00  0.00    +0.000 NA
ATOM     14  N   UNL     1      44.651   1.255   9.124  0.00  0.00    +0.000 N 
ATOM     15  C   UNL     1      45.671   1.759   8.366  0.00  0.00    +0.000 A 
ATOM     16  C   UNL     1      46.696   1.134   7.651  0.00  0.00    +0.000 A 
ATOM     17  C   UNL     1      47.559   1.960   6.924  0.00  0.00    +0.000 A 
ATOM     18  C   UNL     1      47.360   3.340   6.871  0.00  0.00    +0.000 A 
ATOM     19  C   UNL     1      46.354   3.949   7.632  0.00  0.00    +0.000 A 
ATOM     20  C   UNL     1      45.529   3.139   8.436  0.00  0.00    +0.000 A 
ATOM     21  H   UNL     1      44.377   0.284   9.219  0.00  0.00    +0.000 HD
ENDBRANCH   9  12
ENDBRANCH   7  10
ENDBRANCH   1   7
BRANCH   4  22
ATOM     22  C   UNL     1      49.241   7.401  15.753  0.00  0.00    +0.000 C 
BRANCH  22  23
ATOM     23  N   UNL     1      50.370   6.462  15.996  0.00  0.00    +0.000 NA
BRANCH  23  24
ATOM     24  C   UNL     1      51.668   7.178  15.952  0.00  0.00    +0.000 C 
BRANCH  24  25
ATOM     25  C   UNL     1      51.604   8.622  15.412  0.00  0.00    +0.000 C 
BRANCH  25  26
ATOM     26  O   UNL     1      52.195   8.701  14.118  0.00  0.00    +0.000 OA
ATOM     27  H   UNL     1      52.469   9.624  13.984  0.00  0.00    +0.000 HD
ENDBRANCH  25  26
ENDBRANCH  24  25
ENDBRANCH  23  24
BRANCH  23  28
ATOM     28  C   UNL     1      50.201   5.809  17.316  0.00  0.00    +0.000 C 
BRANCH  28  29
ATOM     29  C   UNL     1      50.532   4.332  17.349  0.00  0.00    +0.000 A 
ATOM     30  C   UNL     1      51.816   3.894  17.704  0.00  0.00    +0.000 A 
ATOM     31  C   UNL     1      52.101   2.533  17.779  0.00  0.00    +0.000 A 
ATOM     32  C   UNL     1      51.103   1.601  17.511  0.00  0.00    +0.000 A 
ATOM     33  C   UNL     1      49.824   2.023  17.152  0.00  0.00    +0.000 A 
ATOM     34  C   UNL     1      49.541   3.385  17.076  0.00  0.00    +0.000 A 
ENDBRANCH  28  29
ENDBRANCH  23  28
ENDBRANCH  22  23
ENDBRANCH   4  22
TORSDOF 10
ENDMDL
MODEL 7
REMARK VINA RESULT:    -7.356      4.050      9.478
REMARK INTER + INTRA:         -12.330
REMARK INTER:                 -10.465
REMARK INTRA:                  -1.866
REMARK UNBOUND:                -0.888
REMARK  Name = 
REMARK  10 active torsions:
REMARK  status: ('A' for Active; 'I' for Inactive)
REMARK    1  A    between atoms: C_2  and  C_23
REMARK    2  A    between atoms: N_3  and  C_4
REMARK    3  A    between atoms: C_4  and  C_5
REMARK    4  A    between atoms: C_8  and  C_9
REMARK    5  A    between atoms: C_9  and  N_10
REMARK    6  A    between atoms: N_10  and  C_11
REMARK    7  A    between atoms: N_10  and  C_14
REMARK    8  A    between atoms: C_11  and  C_12
REMARK    9  A    between atoms: C_12  and  O_13
REMARK   10  A    between atoms: C_14  and  C_15
REMARK                            x       y       z     vdW  Elec       q    Type
REMARK                         _______ _______ _______ _____ _____    ______ ____
ROOT
ATOM      1  C   UNL     1      46.734   6.531  12.776  0.00  0.00    +0.000 A 
ATOM      2  C   UNL     1      47.300   6.949  11.562  0.00  0.00    +0.000 A 
ATOM      3  C   UNL     1      48.601   7.463  11.524  0.00  0.00    +0.000 A 
ATOM      4  C   UNL     1      49.357   7.566  12.699  0.00  0.00    +0.000 A 
ATOM      5  C   UNL     1      48.829   7.046  13.889  0.00  0.00    +0.000 A 
ATOM      6  C   UNL     1      47.532   6.530  13.925  0.00  0.00    +0.000 A 
ENDROOT
BRANCH   1   7
ATOM      7  C   UNL     1      45.283   6.136  12.864  0.00  0.00    +0.000 C 
BRANCH   7  10
ATOM      8  O   UNL     1      43.235   5.759  10.980  0.00  0.00    +0.000 OA
ATOM      9  C   UNL     1      44.056   4.869  11.174  0.00  0.00    +0.000 C 
ATOM     10  N   UNL     1      44.999   4.908  12.181  0.00  0.00    +0.000 N 
ATOM     11  H   UNL     1      45.695   4.168  12.153  0.00  0.00    +0.000 HD
BRANCH   9  12
ATOM     12  C   UNL     1      44.236   3.715  10.275  0.00  0.00    +0.000 A 
ATOM     13  N   UNL     1      43.731   2.500  10.593  0.00  0.00    +0.000 NA
ATOM     14  N   UNL     1      44.316   1.675   9.710  0.00  0.00    +0.000 N 
ATOM     15  C   UNL     1      45.229   2.284   8.896  0.00  0.00    +0.000 A 
ATOM     16  C   UNL     1      46.182   1.767   8.016  0.00  0.00    +0.000 A 
ATOM     17  C   UNL     1      46.934   2.688   7.280  0.00  0.00    +0.000 A 
ATOM     18  C   UNL     1      46.694   4.059   7.382  0.00  0.00    +0.000 A 
ATOM     19  C   UNL     1      45.766   4.557   8.305  0.00  0.00    +0.000 A 
ATOM     20  C   UNL     1      45.060   3.645   9.114  0.00  0.00    +0.000 A 
ATOM     21  H   UNL     1      44.080   0.690   9.741  0.00  0.00    +0.000 HD
ENDBRANCH   9  12
ENDBRANCH   7  10
ENDBRANCH   1   7
BRANCH   4  22
ATOM     22  C   UNL     1      50.705   8.263  12.703  0.00  0.00    +0.000 C 
BRANCH  22  23
ATOM     23  N   UNL     1      50.876   9.256  13.798  0.00  0.00    +0.000 NA
BRANCH  23  24
ATOM     24  C   UNL     1      52.162   9.043  14.507  0.00  0.00    +0.000 C 
BRANCH  24  25
ATOM     25  C   UNL     1      52.355   7.634  15.106  0.00  0.00    +0.000 C 
BRANCH  25  26
ATOM     26  O   UNL     1      53.534   7.025  14.589  0.00  0.00    +0.000 OA
ATOM     27  H   UNL     1      53.649   7.350  13.680  0.00  0.00    +0.000 HD
ENDBRANCH  25  26
ENDBRANCH  24  25
ENDBRANCH  23  24
BRANCH  23  28
ATOM     28  C   UNL     1      50.833  10.629  13.238  0.00  0.00    +0.000 C 
BRANCH  28  29
ATOM     29  C   UNL     1      49.634  10.928  12.363  0.00  0.00    +0.000 A 
ATOM     30  C   UNL     1      48.346  11.000  12.913  0.00  0.00    +0.000 A 
ATOM     31  C   UNL     1      47.254  11.324  12.112  0.00  0.00    +0.000 A 
ATOM     32  C   UNL     1      47.443  11.587  10.758  0.00  0.00    +0.000 A 
ATOM     33  C   UNL     1      48.717  11.512  10.198  0.00  0.00    +0.000 A 
ATOM     34  C   UNL     1      49.808  11.187  11.001  0.00  0.00    +0.000 A 
ENDBRANCH  28  29
ENDBRANCH  23  28
ENDBRANCH  22  23
ENDBRANCH   4  22
TORSDOF 10
ENDMDL
MODEL 8
REMARK VINA RESULT:    -6.722      2.723      9.067
REMARK INTER + INTRA:         -11.344
REMARK INTER:                  -9.383
REMARK INTRA:                  -1.961
REMARK UNBOUND:                -0.888
REMARK  Name = 
REMARK  10 active torsions:
REMARK  status: ('A' for Active; 'I' for Inactive)
REMARK    1  A    between atoms: C_2  and  C_23
REMARK    2  A    between atoms: N_3  and  C_4
REMARK    3  A    between atoms: C_4  and  C_5
REMARK    4  A    between atoms: C_8  and  C_9
REMARK    5  A    between atoms: C_9  and  N_10
REMARK    6  A    between atoms: N_10  and  C_11
REMARK    7  A    between atoms: N_10  and  C_14
REMARK    8  A    between atoms: C_11  and  C_12
REMARK    9  A    between atoms: C_12  and  O_13
REMARK   10  A    between atoms: C_14  and  C_15
REMARK                            x       y       z     vdW  Elec       q    Type
REMARK                         _______ _______ _______ _____ _____    ______ ____
ROOT
ATOM      1  C   UNL     1      48.578   8.178  15.196  0.00  0.00    +0.000 A 
ATOM      2  C   UNL     1      49.543   7.181  14.987  0.00  0.00    +0.000 A 
ATOM      3  C   UNL     1      50.403   6.797  16.021  0.00  0.00    +0.000 A 
ATOM      4  C   UNL     1      50.312   7.403  17.281  0.00  0.00    +0.000 A 
ATOM      5  C   UNL     1      49.276   8.318  17.516  0.00  0.00    +0.000 A 
ATOM      6  C   UNL     1      48.416   8.698  16.485  0.00  0.00    +0.000 A 
ENDROOT
BRANCH   1   7
ATOM      7  C   UNL     1      47.760   8.722  14.054  0.00  0.00    +0.000 C 
BRANCH   7  10
ATOM      8  O   UNL     1      47.923   7.031  11.818  0.00  0.00    +0.000 OA
ATOM      9  C   UNL     1      46.975   6.932  12.589  0.00  0.00    +0.000 C 
ATOM     10  N   UNL     1      46.737   7.816  13.622  0.00  0.00    +0.000 N 
ATOM     11  H   UNL     1      45.991   7.549  14.259  0.00  0.00    +0.000 HD
BRANCH   9  12
ATOM     12  C   UNL     1      46.050   5.784  12.603  0.00  0.00    +0.000 A 
ATOM     13  N   UNL     1      45.805   5.102  13.745  0.00  0.00    +0.000 NA
ATOM     14  N   UNL     1      45.164   4.001  13.323  0.00  0.00    +0.000 N 
ATOM     15  C   UNL     1      45.056   3.903  11.964  0.00  0.00    +0.000 A 
ATOM     16  C   UNL     1      44.664   2.849  11.135  0.00  0.00    +0.000 A 
ATOM     17  C   UNL     1      44.613   3.107   9.761  0.00  0.00    +0.000 A 
ATOM     18  C   UNL     1      44.884   4.380   9.257  0.00  0.00    +0.000 A 
ATOM     19  C   UNL     1      45.319   5.408  10.102  0.00  0.00    +0.000 A 
ATOM     20  C   UNL     1      45.457   5.141  11.477  0.00  0.00    +0.000 A 
ATOM     21  H   UNL     1      44.858   3.325  14.014  0.00  0.00    +0.000 HD
ENDBRANCH   9  12
ENDBRANCH   7  10
ENDBRANCH   1   7
BRANCH   4  22
ATOM     22  C   UNL     1      51.334   7.113  18.365  0.00  0.00    +0.000 C 
BRANCH  22  23
ATOM     23  N   UNL     1      51.502   5.667  18.676  0.00  0.00    +0.000 NA
BRANCH  23  24
ATOM     24  C   UNL     1      52.645   5.456  19.598  0.00  0.00    +0.000 C 
BRANCH  24  25
ATOM     25  C   UNL     1      53.561   4.265  19.246  0.00  0.00    +0.000 C 
BRANCH  25  26
ATOM     26  O   UNL     1      53.046   3.055  19.792  0.00  0.00    +0.000 OA
ATOM     27  H   UNL     1      52.188   3.267  20.199  0.00  0.00    +0.000 HD
ENDBRANCH  25  26
ENDBRANCH  24  25
ENDBRANCH  23  24
BRANCH  23  28
ATOM     28  C   UNL     1      50.259   5.140  19.288  0.00  0.00    +0.000 C 
BRANCH  28  29
ATOM     29  C   UNL     1      49.396   4.301  18.368  0.00  0.00    +0.000 A 
ATOM     30  C   UNL     1      48.055   4.640  18.137  0.00  0.00    +0.000 A 
ATOM     31  C   UNL     1      47.282   3.893  17.253  0.00  0.00    +0.000 A 
ATOM     32  C   UNL     1      47.845   2.809  16.586  0.00  0.00    +0.000 A 
ATOM     33  C   UNL     1      49.175   2.458  16.812  0.00  0.00    +0.000 A 
ATOM     34  C   UNL     1      49.947   3.205  17.697  0.00  0.00    +0.000 A 
ENDBRANCH  28  29
ENDBRANCH  23  28
ENDBRANCH  22  23
ENDBRANCH   4  22
TORSDOF 10
ENDMDL
MODEL 9
REMARK VINA RESULT:    -6.580      3.204      9.856
REMARK INTER + INTRA:         -11.123
REMARK INTER:                  -9.548
REMARK INTRA:                  -1.576
REMARK UNBOUND:                -0.888
REMARK  Name = 
REMARK  10 active torsions:
REMARK  status: ('A' for Active; 'I' for Inactive)
REMARK    1  A    between atoms: C_2  and  C_23
REMARK    2  A    between atoms: N_3  and  C_4
REMARK    3  A    between atoms: C_4  and  C_5
REMARK    4  A    between atoms: C_8  and  C_9
REMARK    5  A    between atoms: C_9  and  N_10
REMARK    6  A    between atoms: N_10  and  C_11
REMARK    7  A    between atoms: N_10  and  C_14
REMARK    8  A    between atoms: C_11  and  C_12
REMARK    9  A    between atoms: C_12  and  O_13
REMARK   10  A    between atoms: C_14  and  C_15
REMARK                            x       y       z     vdW  Elec       q    Type
REMARK                         _______ _______ _______ _____ _____    ______ ____
ROOT
ATOM      1  C   UNL     1      46.237   5.893  12.797  0.00  0.00    +0.000 A 
ATOM      2  C   UNL     1      46.424   6.645  11.627  0.00  0.00    +0.000 A 
ATOM      3  C   UNL     1      47.528   7.494  11.498  0.00  0.00    +0.000 A 
ATOM      4  C   UNL     1      48.463   7.606  12.536  0.00  0.00    +0.000 A 
ATOM      5  C   UNL     1      48.330   6.772  13.656  0.00  0.00    +0.000 A 
ATOM      6  C   UNL     1      47.230   5.922  13.782  0.00  0.00    +0.000 A 
ENDROOT
BRANCH   1   7
ATOM      7  C   UNL     1      44.973   5.106  13.024  0.00  0.00    +0.000 C 
BRANCH   7  10
ATOM      8  O   UNL     1      43.239   5.070  10.814  0.00  0.00    +0.000 OA
ATOM      9  C   UNL     1      44.043   4.158  10.973  0.00  0.00    +0.000 C 
ATOM     10  N   UNL     1      44.823   4.018  12.103  0.00  0.00    +0.000 N 
ATOM     11  H   UNL     1      45.533   3.292  12.053  0.00  0.00    +0.000 HD
BRANCH   9  12
ATOM     12  C   UNL     1      44.383   3.178   9.926  0.00  0.00    +0.000 A 
ATOM     13  N   UNL     1      43.976   1.891  10.019  0.00  0.00    +0.000 NA
ATOM     14  N   UNL     1      44.686   1.266   9.066  0.00  0.00    +0.000 N 
ATOM     15  C   UNL     1      45.585   2.070   8.422  0.00  0.00    +0.000 A 
ATOM     16  C   UNL     1      46.632   1.779   7.545  0.00  0.00    +0.000 A 
ATOM     17  C   UNL     1      47.336   2.864   7.014  0.00  0.00    +0.000 A 
ATOM     18  C   UNL     1      46.963   4.176   7.304  0.00  0.00    +0.000 A 
ATOM     19  C   UNL     1      45.940   4.444   8.222  0.00  0.00    +0.000 A 
ATOM     20  C   UNL     1      45.276   3.361   8.830  0.00  0.00    +0.000 A 
ATOM     21  H   UNL     1      44.543   0.272   8.931  0.00  0.00    +0.000 HD
ENDBRANCH   9  12
ENDBRANCH   7  10
ENDBRANCH   1   7
BRANCH   4  22
ATOM     22  C   UNL     1      49.576   8.635  12.479  0.00  0.00    +0.000 C 
BRANCH  22  23
ATOM     23  N   UNL     1      50.906   8.121  12.909  0.00  0.00    +0.000 NA
BRANCH  23  24
ATOM     24  C   UNL     1      51.911   8.298  11.833  0.00  0.00    +0.000 C 
BRANCH  24  25
ATOM     25  C   UNL     1      53.326   8.684  12.314  0.00  0.00    +0.000 C 
BRANCH  25  26
ATOM     26  O   UNL     1      53.650  10.010  11.909  0.00  0.00    +0.000 OA
ATOM     27  H   UNL     1      54.162  10.413  12.631  0.00  0.00    +0.000 HD
ENDBRANCH  25  26
ENDBRANCH  24  25
ENDBRANCH  23  24
BRANCH  23  28
ATOM     28  C   UNL     1      51.346   8.837  14.131  0.00  0.00    +0.000 C 
BRANCH  28  29
ATOM     29  C   UNL     1      50.875   8.230  15.436  0.00  0.00    +0.000 A 
ATOM     30  C   UNL     1      51.302   6.952  15.827  0.00  0.00    +0.000 A 
ATOM     31  C   UNL     1      50.903   6.420  17.050  0.00  0.00    +0.000 A 
ATOM     32  C   UNL     1      50.084   7.164  17.895  0.00  0.00    +0.000 A 
ATOM     33  C   UNL     1      49.649   8.432  17.515  0.00  0.00    +0.000 A 
ATOM     34  C   UNL     1      50.047   8.963  16.291  0.00  0.00    +0.000 A 
ENDBRANCH  28  29
ENDBRANCH  23  28
ENDBRANCH  22  23
ENDBRANCH   4  22
TORSDOF 10
ENDMDL
