MODEL 1
REMARK VINA RESULT:    -8.781      0.000      0.000
REMARK INTER + INTRA:         -12.469
REMARK INTER:                 -11.348
REMARK INTRA:                  -1.121
REMARK UNBOUND:                -1.121
REMARK  Name = 
REMARK  5 active torsions:
REMARK  status: ('A' for Active; 'I' for Inactive)
REMARK    1  A    between atoms: C_2  and  C_4
REMARK    2  A    between atoms: C_7  and  C_8
REMARK    3  A    between atoms: C_8  and  C_9
REMARK    4  A    between atoms: C_9  and  C_10
REMARK    5  A    between atoms: C_14  and  C_15
REMARK                            x       y       z     vdW  Elec       q    Type
REMARK                         _______ _______ _______ _____ _____    ______ ____
ROOT
ATOM      1  C   UNL     1      43.820   4.388  11.729  0.00  0.00    +0.000 C 
ENDROOT
BRANCH   1   2
ATOM      2  C   UNL     1      45.103   4.984  12.260  0.00  0.00    +0.000 A 
ATOM      3  C   UNL     1      45.583   6.192  11.745  0.00  0.00    +0.000 A 
ATOM      4  C   UNL     1      46.742   6.764  12.264  0.00  0.00    +0.000 A 
ATOM      5  C   UNL     1      47.408   6.152  13.326  0.00  0.00    +0.000 A 
ATOM      6  C   UNL     1      46.929   4.961  13.903  0.00  0.00    +0.000 A 
ATOM      7  C   UNL     1      45.789   4.373  13.323  0.00  0.00    +0.000 A 
BRANCH   6   8
ATOM      8  C   UNL     1      47.549   4.385  15.115  0.00  0.00    +0.000 A 
ATOM      9  C   UNL     1      47.911   5.180  16.206  0.00  0.00    +0.000 A 
ATOM     10  C   UNL     1      48.428   4.583  17.352  0.00  0.00    +0.000 A 
ATOM     11  C   UNL     1      48.578   3.204  17.389  0.00  0.00    +0.000 A 
ATOM     12  C   UNL     1      48.200   2.481  16.272  0.00  0.00    +0.000 A 
ATOM     13  N   UNL     1      47.688   3.034  15.147  0.00  0.00    +0.000 NA
ENDBRANCH   6   8
ENDBRANCH   1   2
BRANCH   1  14
ATOM     14  C   UNL     1      43.657   4.673  10.233  0.00  0.00    +0.000 C 
BRANCH  14  18
ATOM     15  C   UNL     1      46.352   2.311   7.818  0.00  0.00    +0.000 A 
ATOM     16  C   UNL     1      46.314   3.703   7.670  0.00  0.00    +0.000 A 
ATOM     17  C   UNL     1      45.437   4.465   8.449  0.00  0.00    +0.000 A 
ATOM     18  C   UNL     1      44.592   3.849   9.382  0.00  0.00    +0.000 A 
ATOM     19  C   UNL     1      44.617   2.453   9.504  0.00  0.00    +0.000 A 
ATOM     20  C   UNL     1      45.489   1.688   8.725  0.00  0.00    +0.000 A 
BRANCH  15  22
ATOM     21  N   UNL     1      48.416   2.053   6.552  0.00  0.00    +0.000 N 
ATOM     22  C   UNL     1      47.276   1.464   7.024  0.00  0.00    +0.000 C 
ATOM     23  O   UNL     1      47.057   0.272   6.829  0.00  0.00    +0.000 OA
ATOM     24  H   UNL     1      49.092   1.435   6.118  0.00  0.00    +0.000 HD
ATOM     25  H   UNL     1      48.755   2.933   6.915  0.00  0.00    +0.000 HD
ENDBRANCH  15  22
ENDBRANCH  14  18
ENDBRANCH   1  14
TORSDOF 5
ENDMDL
MODEL 2
REMARK VINA RESULT:    -8.246      2.282      4.251
REMARK INTER + INTRA:         -11.778
REMARK INTER:                 -10.523
REMARK INTRA:                  -1.255
REMARK UNBOUND:                -1.121
REMARK  Name = 
REMARK  5 active torsions:
REMARK  status: ('A' for Active; 'I' for Inactive)
REMARK    1  A    between atoms: C_2  and  C_4
REMARK    2  A    between atoms: C_7  and  C_8
REMARK    3  A    between atoms: C_8  and  C_9
REMARK    4  A    between atoms: C_9  and  C_10
REMARK    5  A    between atoms: C_14  and  C_15
REMARK                            x       y       z     vdW  Elec       q    Type
REMARK                         _______ _______ _______ _____ _____    ______ ____
ROOT
ATOM      1  C   UNL     1      44.036   3.494  12.082  0.00  0.00    +0.000 C 
ENDROOT
BRANCH   1   2
ATOM      2  C   UNL     1      45.083   4.453  12.598  0.00  0.00    +0.000 A 
ATOM      3  C   UNL     1      46.216   3.969  13.259  0.00  0.00    +0.000 A 
ATOM      4  C   UNL     1      47.203   4.849  13.696  0.00  0.00    +0.000 A 
ATOM      5  C   UNL     1      47.081   6.217  13.442  0.00  0.00    +0.000 A 
ATOM      6  C   UNL     1      45.979   6.736  12.738  0.00  0.00    +0.000 A 
ATOM      7  C   UNL     1      44.968   5.833  12.357  0.00  0.00    +0.000 A 
BRANCH   6   8
ATOM      8  C   UNL     1      45.914   8.160  12.344  0.00  0.00    +0.000 A 
ATOM      9  C   UNL     1      47.005   9.019  12.503  0.00  0.00    +0.000 A 
ATOM     10  C   UNL     1      46.918  10.333  12.055  0.00  0.00    +0.000 A 
ATOM     11  C   UNL     1      45.744  10.769  11.459  0.00  0.00    +0.000 A 
ATOM     12  C   UNL     1      44.704   9.865  11.337  0.00  0.00    +0.000 A 
ATOM     13  N   UNL     1      44.763   8.579  11.757  0.00  0.00    +0.000 NA
ENDBRANCH   6   8
ENDBRANCH   1   2
BRANCH   1  14
ATOM     14  C   UNL     1      43.591   3.874  10.667  0.00  0.00    +0.000 C 
BRANCH  14  18
ATOM     15  C   UNL     1      46.441   2.709   7.635  0.00  0.00    +0.000 A 
ATOM     16  C   UNL     1      45.795   1.733   8.403  0.00  0.00    +0.000 A 
ATOM     17  C   UNL     1      44.877   2.112   9.387  0.00  0.00    +0.000 A 
ATOM     18  C   UNL     1      44.593   3.466   9.615  0.00  0.00    +0.000 A 
ATOM     19  C   UNL     1      45.265   4.437   8.861  0.00  0.00    +0.000 A 
ATOM     20  C   UNL     1      46.186   4.062   7.879  0.00  0.00    +0.000 A 
BRANCH  15  22
ATOM     21  N   UNL     1      47.320   3.032   5.387  0.00  0.00    +0.000 N 
ATOM     22  C   UNL     1      47.412   2.352   6.570  0.00  0.00    +0.000 C 
ATOM     23  O   UNL     1      48.290   1.515   6.748  0.00  0.00    +0.000 OA
ATOM     24  H   UNL     1      48.062   2.865   4.718  0.00  0.00    +0.000 HD
ATOM     25  H   UNL     1      46.802   3.896   5.304  0.00  0.00    +0.000 HD
ENDBRANCH  15  22
ENDBRANCH  14  18
ENDBRANCH   1  14
TORSDOF 5
ENDMDL
MODEL 3
REMARK VINA RESULT:    -8.217      2.297      3.855
REMARK INTER + INTRA:         -11.740
REMARK INTER:                 -10.628
REMARK INTRA:                  -1.111
REMARK UNBOUND:                -1.121
REMARK  Name = 
REMARK  5 active torsions:
REMARK  status: ('A' for Active; 'I' for Inactive)
REMARK    1  A    between atoms: C_2  and  C_4
REMARK    2  A    between atoms: C_7  and  C_8
REMARK    3  A    between atoms: C_8  and  C_9
REMARK    4  A    between atoms: C_9  and  C_10
REMARK    5  A    between atoms: C_14  and  C_15
REMARK                            x       y       z     vdW  Elec       q    Type
REMARK                         _______ _______ _______ _____ _____    ______ ____
ROOT
ATOM      1  C   UNL     1      43.756   5.295  11.069  0.00  0.00    +0.000 C 
ENDROOT
BRANCH   1   2
ATOM      2  C   UNL     1      44.978   5.491  11.937  0.00  0.00    +0.000 A 
ATOM      3  C   UNL     1      45.316   4.539  12.903  0.00  0.00    +0.000 A 
ATOM      4  C   UNL     1      46.465   4.697  13.672  0.00  0.00    +0.000 A 
ATOM      5  C   UNL     1      47.306   5.791  13.456  0.00  0.00    +0.000 A 
ATOM      6  C   UNL     1      47.025   6.745  12.461  0.00  0.00    +0.000 A 
ATOM      7  C   UNL     1      45.827   6.593  11.736  0.00  0.00    +0.000 A 
BRANCH   6   8
ATOM      8  C   UNL     1      47.980   7.825  12.133  0.00  0.00    +0.000 A 
ATOM      9  C   UNL     1      49.297   7.553  11.753  0.00  0.00    +0.000 A 
ATOM     10  C   UNL     1      50.139   8.599  11.388  0.00  0.00    +0.000 A 
ATOM     11  C   UNL     1      49.653   9.899  11.411  0.00  0.00    +0.000 A 
ATOM     12  C   UNL     1      48.340  10.094  11.799  0.00  0.00    +0.000 A 
ATOM     13  N   UNL     1      47.497   9.095  12.152  0.00  0.00    +0.000 NA
ENDBRANCH   6   8
ENDBRANCH   1   2
BRANCH   1  14
ATOM     14  C   UNL     1      43.607   3.829  10.652  0.00  0.00    +0.000 C 
BRANCH  14  18
ATOM     15  C   UNL     1      46.404   2.698   7.558  0.00  0.00    +0.000 A 
ATOM     16  C   UNL     1      46.020   4.037   7.702  0.00  0.00    +0.000 A 
ATOM     17  C   UNL     1      45.111   4.400   8.701  0.00  0.00    +0.000 A 
ATOM     18  C   UNL     1      44.576   3.435   9.565  0.00  0.00    +0.000 A 
ATOM     19  C   UNL     1      44.945   2.093   9.396  0.00  0.00    +0.000 A 
ATOM     20  C   UNL     1      45.850   1.726   8.397  0.00  0.00    +0.000 A 
BRANCH  15  22
ATOM     21  N   UNL     1      47.465   3.032   5.393  0.00  0.00    +0.000 N 
ATOM     22  C   UNL     1      47.377   2.269   6.523  0.00  0.00    +0.000 C 
ATOM     23  O   UNL     1      48.106   1.295   6.683  0.00  0.00    +0.000 OA
ATOM     24  H   UNL     1      48.216   2.798   4.753  0.00  0.00    +0.000 HD
ATOM     25  H   UNL     1      47.090   3.969   5.347  0.00  0.00    +0.000 HD
ENDBRANCH  15  22
ENDBRANCH  14  18
ENDBRANCH   1  14
TORSDOF 5
ENDMDL
MODEL 4
REMARK VINA RESULT:    -7.763      1.973      2.540
REMARK INTER + INTRA:         -11.154
REMARK INTER:                 -10.091
REMARK INTRA:                  -1.063
REMARK UNBOUND:                -1.121
REMARK  Name = 
REMARK  5 active torsions:
REMARK  status: ('A' for Active; 'I' for Inactive)
REMARK    1  A    between atoms: C_2  and  C_4
REMARK    2  A    between atoms: C_7  and  C_8
REMARK    3  A    between atoms: C_8  and  C_9
REMARK    4  A    between atoms: C_9  and  C_10
REMARK    5  A    between atoms: C_14  and  C_15
REMARK                            x       y       z     vdW  Elec       q    Type
REMARK                         _______ _______ _______ _____ _____    ______ ____
ROOT
ATOM      1  C   UNL     1      44.586   4.145  11.985  0.00  0.00    +0.000 C 
ENDROOT
BRANCH   1   2
ATOM      2  C   UNL     1      45.229   5.511  12.049  0.00  0.00    +0.000 A 
ATOM      3  C   UNL     1      44.533   6.639  11.604  0.00  0.00    +0.000 A 
ATOM      4  C   UNL     1      45.109   7.903  11.704  0.00  0.00    +0.000 A 
ATOM      5  C   UNL     1      46.369   8.053  12.284  0.00  0.00    +0.000 A 
ATOM      6  C   UNL     1      47.080   6.949  12.788  0.00  0.00    +0.000 A 
ATOM      7  C   UNL     1      46.502   5.675  12.623  0.00  0.00    +0.000 A 
BRANCH   6   8
ATOM      8  C   UNL     1      48.349   7.117  13.528  0.00  0.00    +0.000 A 
ATOM      9  C   UNL     1      49.391   7.906  13.033  0.00  0.00    +0.000 A 
ATOM     10  C   UNL     1      50.539   8.090  13.797  0.00  0.00    +0.000 A 
ATOM     11  C   UNL     1      50.630   7.481  15.040  0.00  0.00    +0.000 A 
ATOM     12  C   UNL     1      49.561   6.712  15.465  0.00  0.00    +0.000 A 
ATOM     13  N   UNL     1      48.429   6.523  14.747  0.00  0.00    +0.000 NA
ENDBRANCH   6   8
ENDBRANCH   1   2
BRANCH   1  14
ATOM     14  C   UNL     1      43.855   3.944  10.654  0.00  0.00    +0.000 C 
BRANCH  14  18
ATOM     15  C   UNL     1      46.521   2.664   7.503  0.00  0.00    +0.000 A 
ATOM     16  C   UNL     1      46.203   4.020   7.646  0.00  0.00    +0.000 A 
ATOM     17  C   UNL     1      45.335   4.432   8.663  0.00  0.00    +0.000 A 
ATOM     18  C   UNL     1      44.779   3.498   9.547  0.00  0.00    +0.000 A 
ATOM     19  C   UNL     1      45.081   2.140   9.380  0.00  0.00    +0.000 A 
ATOM     20  C   UNL     1      45.944   1.725   8.363  0.00  0.00    +0.000 A 
BRANCH  15  22
ATOM     21  N   UNL     1      47.775   3.063   5.455  0.00  0.00    +0.000 N 
ATOM     22  C   UNL     1      47.448   2.183   6.449  0.00  0.00    +0.000 C 
ATOM     23  O   UNL     1      47.939   1.060   6.481  0.00  0.00    +0.000 OA
ATOM     24  H   UNL     1      48.500   2.763   4.814  0.00  0.00    +0.000 HD
ATOM     25  H   UNL     1      47.614   4.056   5.543  0.00  0.00    +0.000 HD
ENDBRANCH  15  22
ENDBRANCH  14  18
ENDBRANCH   1  14
TORSDOF 5
ENDMDL
MODEL 5
REMARK VINA RESULT:    -7.391      2.684      7.437
REMARK INTER + INTRA:         -10.673
REMARK INTER:                  -9.953
REMARK INTRA:                  -0.720
REMARK UNBOUND:                -1.121
REMARK  Name = 
REMARK  5 active torsions:
REMARK  status: ('A' for Active; 'I' for Inactive)
REMARK    1  A    between atoms: C_2  and  C_4
REMARK    2  A    between atoms: C_7  and  C_8
REMARK    3  A    between atoms: C_8  and  C_9
REMARK    4  A    between atoms: C_9  and  C_10
REMARK    5  A    between atoms: C_14  and  C_15
REMARK                            x       y       z     vdW  Elec       q    Type
REMARK                         _______ _______ _______ _____ _____    ______ ____
ROOT
ATOM      1  C   UNL     1      46.075   7.390  11.864  0.00  0.00    +0.000 C 
ENDROOT
BRANCH   1   2
ATOM      2  C   UNL     1      45.251   6.268  11.277  0.00  0.00    +0.000 A 
ATOM      3  C   UNL     1      43.886   6.172  11.564  0.00  0.00    +0.000 A 
ATOM      4  C   UNL     1      43.118   5.163  10.988  0.00  0.00    +0.000 A 
ATOM      5  C   UNL     1      43.702   4.264  10.093  0.00  0.00    +0.000 A 
ATOM      6  C   UNL     1      45.061   4.358   9.742  0.00  0.00    +0.000 A 
ATOM      7  C   UNL     1      45.829   5.351  10.382  0.00  0.00    +0.000 A 
BRANCH   6   8
ATOM      8  C   UNL     1      45.650   3.501   8.692  0.00  0.00    +0.000 A 
ATOM      9  C   UNL     1      46.231   4.041   7.541  0.00  0.00    +0.000 A 
ATOM     10  C   UNL     1      46.834   3.198   6.612  0.00  0.00    +0.000 A 
ATOM     11  C   UNL     1      46.844   1.830   6.847  0.00  0.00    +0.000 A 
ATOM     12  C   UNL     1      46.249   1.366   8.006  0.00  0.00    +0.000 A 
ATOM     13  N   UNL     1      45.662   2.164   8.930  0.00  0.00    +0.000 NA
ENDBRANCH   6   8
ENDBRANCH   1   2
BRANCH   1  14
ATOM     14  C   UNL     1      47.481   6.907  12.230  0.00  0.00    +0.000 C 
BRANCH  14  18
ATOM     15  C   UNL     1      47.538   4.718  15.956  0.00  0.00    +0.000 A 
ATOM     16  C   UNL     1      48.333   5.860  15.800  0.00  0.00    +0.000 A 
ATOM     17  C   UNL     1      48.318   6.564  14.592  0.00  0.00    +0.000 A 
ATOM     18  C   UNL     1      47.510   6.139  13.529  0.00  0.00    +0.000 A 
ATOM     19  C   UNL     1      46.738   4.979  13.683  0.00  0.00    +0.000 A 
ATOM     20  C   UNL     1      46.754   4.271  14.888  0.00  0.00    +0.000 A 
BRANCH  15  22
ATOM     21  N   UNL     1      48.344   4.364  18.226  0.00  0.00    +0.000 N 
ATOM     22  C   UNL     1      47.511   3.948  17.224  0.00  0.00    +0.000 C 
ATOM     23  O   UNL     1      46.747   3.003  17.392  0.00  0.00    +0.000 OA
ATOM     24  H   UNL     1      48.226   3.906  19.123  0.00  0.00    +0.000 HD
ATOM     25  H   UNL     1      48.773   5.278  18.222  0.00  0.00    +0.000 HD
ENDBRANCH  15  22
ENDBRANCH  14  18
ENDBRANCH   1  14
TORSDOF 5
ENDMDL
MODEL 6
REMARK VINA RESULT:    -7.369      3.730      7.107
REMARK INTER + INTRA:         -10.644
REMARK INTER:                  -9.574
REMARK INTRA:                  -1.070
REMARK UNBOUND:                -1.121
REMARK  Name = 
REMARK  5 active torsions:
REMARK  status: ('A' for Active; 'I' for Inactive)
REMARK    1  A    between atoms: C_2  and  C_4
REMARK    2  A    between atoms: C_7  and  C_8
REMARK    3  A    between atoms: C_8  and  C_9
REMARK    4  A    between atoms: C_9  and  C_10
REMARK    5  A    between atoms: C_14  and  C_15
REMARK                            x       y       z     vdW  Elec       q    Type
REMARK                         _______ _______ _______ _____ _____    ______ ____
ROOT
ATOM      1  C   UNL     1      44.527   7.018  11.391  0.00  0.00    +0.000 C 
ENDROOT
BRANCH   1   2
ATOM      2  C   UNL     1      44.380   5.535  11.141  0.00  0.00    +0.000 A 
ATOM      3  C   UNL     1      43.433   4.791  11.851  0.00  0.00    +0.000 A 
ATOM      4  C   UNL     1      43.267   3.434  11.589  0.00  0.00    +0.000 A 
ATOM      5  C   UNL     1      44.021   2.818  10.588  0.00  0.00    +0.000 A 
ATOM      6  C   UNL     1      44.949   3.543   9.819  0.00  0.00    +0.000 A 
ATOM      7  C   UNL     1      45.140   4.901  10.142  0.00  0.00    +0.000 A 
BRANCH   6   8
ATOM      8  C   UNL     1      45.647   2.932   8.668  0.00  0.00    +0.000 A 
ATOM      9  C   UNL     1      46.076   3.693   7.578  0.00  0.00    +0.000 A 
ATOM     10  C   UNL     1      46.789   3.084   6.549  0.00  0.00    +0.000 A 
ATOM     11  C   UNL     1      47.058   1.725   6.625  0.00  0.00    +0.000 A 
ATOM     12  C   UNL     1      46.601   1.034   7.732  0.00  0.00    +0.000 A 
ATOM     13  N   UNL     1      45.912   1.602   8.750  0.00  0.00    +0.000 NA
ENDBRANCH   6   8
ENDBRANCH   1   2
BRANCH   1  14
ATOM     14  C   UNL     1      45.297   7.283  12.688  0.00  0.00    +0.000 C 
BRANCH  14  18
ATOM     15  C   UNL     1      49.465   8.202  12.013  0.00  0.00    +0.000 A 
ATOM     16  C   UNL     1      48.500   9.211  11.918  0.00  0.00    +0.000 A 
ATOM     17  C   UNL     1      47.151   8.911  12.131  0.00  0.00    +0.000 A 
ATOM     18  C   UNL     1      46.751   7.604  12.443  0.00  0.00    +0.000 A 
ATOM     19  C   UNL     1      47.721   6.594  12.509  0.00  0.00    +0.000 A 
ATOM     20  C   UNL     1      49.069   6.891  12.293  0.00  0.00    +0.000 A 
BRANCH  15  22
ATOM     21  N   UNL     1      51.776   8.005  12.756  0.00  0.00    +0.000 N 
ATOM     22  C   UNL     1      50.910   8.477  11.810  0.00  0.00    +0.000 C 
ATOM     23  O   UNL     1      51.323   9.066  10.816  0.00  0.00    +0.000 OA
ATOM     24  H   UNL     1      52.762   8.094  12.542  0.00  0.00    +0.000 HD
ATOM     25  H   UNL     1      51.506   7.298  13.425  0.00  0.00    +0.000 HD
ENDBRANCH  15  22
ENDBRANCH  14  18
ENDBRANCH   1  14
TORSDOF 5
ENDMDL
MODEL 7
REMARK VINA RESULT:    -6.602      2.781      4.182
REMARK INTER + INTRA:          -9.652
REMARK INTER:                  -8.497
REMARK INTRA:                  -1.156
REMARK UNBOUND:                -1.121
REMARK  Name = 
REMARK  5 active torsions:
REMARK  status: ('A' for Active; 'I' for Inactive)
REMARK    1  A    between atoms: C_2  and  C_4
REMARK    2  A    between atoms: C_7  and  C_8
REMARK    3  A    between atoms: C_8  and  C_9
REMARK    4  A    between atoms: C_9  and  C_10
REMARK    5  A    between atoms: C_14  and  C_15
REMARK                            x       y       z     vdW  Elec       q    Type
REMARK                         _______ _______ _______ _____ _____    ______ ____
ROOT
ATOM      1  C   UNL     1      47.698   7.974  12.507  0.00  0.00    +0.000 C 
ENDROOT
BRANCH   1   2
ATOM      2  C   UNL     1      48.133   7.895  13.952  0.00  0.00    +0.000 A 
ATOM      3  C   UNL     1      48.250   9.059  14.717  0.00  0.00    +0.000 A 
ATOM      4  C   UNL     1      48.609   8.982  16.061  0.00  0.00    +0.000 A 
ATOM      5  C   UNL     1      48.817   7.738  16.658  0.00  0.00    +0.000 A 
ATOM      6  C   UNL     1      48.663   6.542  15.934  0.00  0.00    +0.000 A 
ATOM      7  C   UNL     1      48.356   6.649  14.563  0.00  0.00    +0.000 A 
BRANCH   6   8
ATOM      8  C   UNL     1      48.745   5.222  16.593  0.00  0.00    +0.000 A 
ATOM      9  C   UNL     1      47.625   4.395  16.728  0.00  0.00    +0.000 A 
ATOM     10  C   UNL     1      47.765   3.132  17.295  0.00  0.00    +0.000 A 
ATOM     11  C   UNL     1      49.019   2.716  17.720  0.00  0.00    +0.000 A 
ATOM     12  C   UNL     1      50.081   3.587  17.557  0.00  0.00    +0.000 A 
ATOM     13  N   UNL     1      49.975   4.817  17.002  0.00  0.00    +0.000 NA
ENDBRANCH   6   8
ENDBRANCH   1   2
BRANCH   1  14
ATOM     14  C   UNL     1      46.171   8.008  12.394  0.00  0.00    +0.000 C 
BRANCH  14  18
ATOM     15  C   UNL     1      44.475   4.165  11.381  0.00  0.00    +0.000 A 
ATOM     16  C   UNL     1      44.499   4.592  12.714  0.00  0.00    +0.000 A 
ATOM     17  C   UNL     1      45.053   5.834  13.041  0.00  0.00    +0.000 A 
ATOM     18  C   UNL     1      45.587   6.661  12.043  0.00  0.00    +0.000 A 
ATOM     19  C   UNL     1      45.584   6.214  10.715  0.00  0.00    +0.000 A 
ATOM     20  C   UNL     1      45.034   4.972  10.386  0.00  0.00    +0.000 A 
BRANCH  15  22
ATOM     21  N   UNL     1      44.483   2.189   9.959  0.00  0.00    +0.000 N 
ATOM     22  C   UNL     1      43.883   2.862  10.986  0.00  0.00    +0.000 C 
ATOM     23  O   UNL     1      42.923   2.380  11.578  0.00  0.00    +0.000 OA
ATOM     24  H   UNL     1      44.145   1.250   9.783  0.00  0.00    +0.000 HD
ATOM     25  H   UNL     1      45.414   2.416   9.640  0.00  0.00    +0.000 HD
ENDBRANCH  15  22
ENDBRANCH  14  18
ENDBRANCH   1  14
TORSDOF 5
ENDMDL
MODEL 8
REMARK VINA RESULT:    -6.413      4.587      7.358
REMARK INTER + INTRA:          -9.408
REMARK INTER:                  -8.203
REMARK INTRA:                  -1.205
REMARK UNBOUND:                -1.121
REMARK  Name = 
REMARK  5 active torsions:
REMARK  status: ('A' for Active; 'I' for Inactive)
REMARK    1  A    between atoms: C_2  and  C_4
REMARK    2  A    between atoms: C_7  and  C_8
REMARK    3  A    between atoms: C_8  and  C_9
REMARK    4  A    between atoms: C_9  and  C_10
REMARK    5  A    between atoms: C_14  and  C_15
REMARK                            x       y       z     vdW  Elec       q    Type
REMARK                         _______ _______ _______ _____ _____    ______ ____
ROOT
ATOM      1  C   UNL     1      47.727   8.598  13.081  0.00  0.00    +0.000 C 
ENDROOT
BRANCH   1   2
ATOM      2  C   UNL     1      47.121   9.733  12.288  0.00  0.00    +0.000 A 
ATOM      3  C   UNL     1      47.938  10.578  11.532  0.00  0.00    +0.000 A 
ATOM      4  C   UNL     1      47.376  11.597  10.766  0.00  0.00    +0.000 A 
ATOM      5  C   UNL     1      45.990  11.754  10.722  0.00  0.00    +0.000 A 
ATOM      6  C   UNL     1      45.132  10.893  11.430  0.00  0.00    +0.000 A 
ATOM      7  C   UNL     1      45.727   9.907  12.242  0.00  0.00    +0.000 A 
BRANCH   6   8
ATOM      8  C   UNL     1      43.663  10.965  11.277  0.00  0.00    +0.000 A 
ATOM      9  C   UNL     1      42.931   9.926  10.695  0.00  0.00    +0.000 A 
ATOM     10  C   UNL     1      41.544  10.010  10.634  0.00  0.00    +0.000 A 
ATOM     11  C   UNL     1      40.910  11.130  11.152  0.00  0.00    +0.000 A 
ATOM     12  C   UNL     1      41.698  12.120  11.711  0.00  0.00    +0.000 A 
ATOM     13  N   UNL     1      43.048  12.062  11.791  0.00  0.00    +0.000 NA
ENDBRANCH   6   8
ENDBRANCH   1   2
BRANCH   1  14
ATOM     14  C   UNL     1      48.088   7.421  12.170  0.00  0.00    +0.000 C 
BRANCH  14  18
ATOM     15  C   UNL     1      44.920   4.490  11.955  0.00  0.00    +0.000 A 
ATOM     16  C   UNL     1      45.827   4.466  13.021  0.00  0.00    +0.000 A 
ATOM     17  C   UNL     1      46.855   5.412  13.086  0.00  0.00    +0.000 A 
ATOM     18  C   UNL     1      46.988   6.391  12.092  0.00  0.00    +0.000 A 
ATOM     19  C   UNL     1      46.092   6.390  11.013  0.00  0.00    +0.000 A 
ATOM     20  C   UNL     1      45.067   5.444  10.944  0.00  0.00    +0.000 A 
BRANCH  15  22
ATOM     21  N   UNL     1      43.879   2.396  12.635  0.00  0.00    +0.000 N 
ATOM     22  C   UNL     1      43.805   3.515  11.853  0.00  0.00    +0.000 C 
ATOM     23  O   UNL     1      42.834   3.716  11.131  0.00  0.00    +0.000 OA
ATOM     24  H   UNL     1      43.056   1.804  12.645  0.00  0.00    +0.000 HD
ATOM     25  H   UNL     1      44.508   2.333  13.423  0.00  0.00    +0.000 HD
ENDBRANCH  15  22
ENDBRANCH  14  18
ENDBRANCH   1  14
TORSDOF 5
ENDMDL
MODEL 9
REMARK VINA RESULT:    -6.253      3.428      8.256
REMARK INTER + INTRA:          -9.201
REMARK INTER:                  -8.494
REMARK INTRA:                  -0.708
REMARK UNBOUND:                -1.121
REMARK  Name = 
REMARK  5 active torsions:
REMARK  status: ('A' for Active; 'I' for Inactive)
REMARK    1  A    between atoms: C_2  and  C_4
REMARK    2  A    between atoms: C_7  and  C_8
REMARK    3  A    between atoms: C_8  and  C_9
REMARK    4  A    between atoms: C_9  and  C_10
REMARK    5  A    between atoms: C_14  and  C_15
REMARK                            x       y       z     vdW  Elec       q    Type
REMARK                         _______ _______ _______ _____ _____    ______ ____
ROOT
ATOM      1  C   UNL     1      45.571   4.309  14.045  0.00  0.00    +0.000 C 
ENDROOT
BRANCH   1   2
ATOM      2  C   UNL     1      44.860   4.415  12.715  0.00  0.00    +0.000 A 
ATOM      3  C   UNL     1      43.736   5.235  12.582  0.00  0.00    +0.000 A 
ATOM      4  C   UNL     1      43.107   5.366  11.346  0.00  0.00    +0.000 A 
ATOM      5  C   UNL     1      43.620   4.708  10.227  0.00  0.00    +0.000 A 
ATOM      6  C   UNL     1      44.777   3.913  10.312  0.00  0.00    +0.000 A 
ATOM      7  C   UNL     1      45.361   3.750  11.583  0.00  0.00    +0.000 A 
BRANCH   6   8
ATOM      8  C   UNL     1      45.405   3.329   9.107  0.00  0.00    +0.000 A 
ATOM      9  C   UNL     1      45.854   4.126   8.050  0.00  0.00    +0.000 A 
ATOM     10  C   UNL     1      46.499   3.536   6.968  0.00  0.00    +0.000 A 
ATOM     11  C   UNL     1      46.684   2.161   6.957  0.00  0.00    +0.000 A 
ATOM     12  C   UNL     1      46.212   1.435   8.036  0.00  0.00    +0.000 A 
ATOM     13  N   UNL     1      45.588   1.983   9.105  0.00  0.00    +0.000 NA
ENDBRANCH   6   8
ENDBRANCH   1   2
BRANCH   1  14
ATOM     14  C   UNL     1      46.924   5.025  14.003  0.00  0.00    +0.000 C 
BRANCH  14  18
ATOM     15  C   UNL     1      49.111   4.693  17.716  0.00  0.00    +0.000 A 
ATOM     16  C   UNL     1      48.318   3.628  17.271  0.00  0.00    +0.000 A 
ATOM     17  C   UNL     1      47.607   3.740  16.072  0.00  0.00    +0.000 A 
ATOM     18  C   UNL     1      47.680   4.911  15.305  0.00  0.00    +0.000 A 
ATOM     19  C   UNL     1      48.454   5.982  15.772  0.00  0.00    +0.000 A 
ATOM     20  C   UNL     1      49.163   5.875  16.971  0.00  0.00    +0.000 A 
BRANCH  15  22
ATOM     21  N   UNL     1      50.989   3.794  18.979  0.00  0.00    +0.000 N 
ATOM     22  C   UNL     1      49.894   4.614  18.974  0.00  0.00    +0.000 C 
ATOM     23  O   UNL     1      49.606   5.284  19.960  0.00  0.00    +0.000 OA
ATOM     24  H   UNL     1      51.580   3.845  19.800  0.00  0.00    +0.000 HD
ATOM     25  H   UNL     1      51.405   3.451  18.125  0.00  0.00    +0.000 HD
ENDBRANCH  15  22
ENDBRANCH  14  18
ENDBRANCH   1  14
TORSDOF 5
ENDMDL
