MODEL 1
REMARK VINA RESULT:    -8.735      0.000      0.000
REMARK INTER + INTRA:         -11.836
REMARK INTER:                 -11.289
REMARK INTRA:                  -0.547
REMARK UNBOUND:                -0.547
REMARK  Name = 
REMARK  5 active torsions:
REMARK  status: ('A' for Active; 'I' for Inactive)
REMARK    1  A    between atoms: C_2  and  C_4
REMARK    2  A    between atoms: C_9  and  O_10
REMARK    3  A    between atoms: O_10  and  C_11
REMARK    4  A    between atoms: C_11  and  C_12
REMARK    5  A    between atoms: C_16  and  C_17
REMARK                            x       y       z     vdW  Elec       q    Type
REMARK                         _______ _______ _______ _____ _____    ______ ____
ROOT
ATOM      1  C   UNL     1      44.531   6.599  11.422  0.00  0.00    +0.000 C 
ENDROOT
BRANCH   1   2
ATOM      2  C   UNL     1      44.375   5.162  10.990  0.00  0.00    +0.000 A 
ATOM      3  C   UNL     1      43.490   4.307  11.646  0.00  0.00    +0.000 A 
ATOM      4  C   UNL     1      43.331   3.024  11.154  0.00  0.00    +0.000 A 
ATOM      5  N   UNL     1      44.002   2.535  10.088  0.00  0.00    +0.000 NA
ATOM      6  C   UNL     1      44.897   3.349   9.473  0.00  0.00    +0.000 A 
ATOM      7  C   UNL     1      45.092   4.666   9.895  0.00  0.00    +0.000 A 
BRANCH   6   8
ATOM      8  C   UNL     1      45.652   2.746   8.353  0.00  0.00    +0.000 A 
ATOM      9  C   UNL     1      46.121   1.419   8.419  0.00  0.00    +0.000 A 
ATOM     10  C   UNL     1      46.863   0.848   7.377  0.00  0.00    +0.000 A 
ATOM     11  C   UNL     1      47.153   1.600   6.242  0.00  0.00    +0.000 A 
ATOM     12  C   UNL     1      46.698   2.907   6.162  0.00  0.00    +0.000 A 
ATOM     13  F   UNL     1      46.979   3.640   5.076  0.00  0.00    +0.000 F 
ATOM     14  C   UNL     1      45.961   3.480   7.194  0.00  0.00    +0.000 A 
ENDBRANCH   6   8
ENDBRANCH   1   2
BRANCH   1  15
ATOM     15  O   UNL     1      45.881   7.022  11.273  0.00  0.00    +0.000 OA
BRANCH  15  21
ATOM     16  C   UNL     1      47.379   5.488  14.193  0.00  0.00    +0.000 A 
ATOM     17  C   UNL     1      48.270   6.452  14.663  0.00  0.00    +0.000 A 
ATOM     18  C   UNL     1      48.401   7.661  13.985  0.00  0.00    +0.000 A 
ATOM     19  C   UNL     1      47.640   7.934  12.836  0.00  0.00    +0.000 A 
ATOM     20 CL   UNL     1      47.949   9.489  12.144  0.00  0.00    +0.000 Cl
ATOM     21  C   UNL     1      46.727   6.978  12.355  0.00  0.00    +0.000 A 
ATOM     22  C   UNL     1      46.611   5.756  13.051  0.00  0.00    +0.000 A 
BRANCH  16  24
ATOM     23  N   UNL     1      46.907   4.305  16.270  0.00  0.00    +0.000 N 
ATOM     24  C   UNL     1      47.264   4.218  14.954  0.00  0.00    +0.000 C 
ATOM     25  O   UNL     1      47.439   3.133  14.417  0.00  0.00    +0.000 OA
ATOM     26  H   UNL     1      46.730   3.428  16.745  0.00  0.00    +0.000 HD
ATOM     27  H   UNL     1      46.520   5.143  16.677  0.00  0.00    +0.000 HD
ENDBRANCH  16  24
ENDBRANCH  15  21
ENDBRANCH   1  15
TORSDOF 5
ENDMDL
MODEL 2
REMARK VINA RESULT:    -8.719      2.431      3.308
REMARK INTER + INTRA:         -11.814
REMARK INTER:                 -10.666
REMARK INTRA:                  -1.149
REMARK UNBOUND:                -0.547
REMARK  Name = 
REMARK  5 active torsions:
REMARK  status: ('A' for Active; 'I' for Inactive)
REMARK    1  A    between atoms: C_2  and  C_4
REMARK    2  A    between atoms: C_9  and  O_10
REMARK    3  A    between atoms: O_10  and  C_11
REMARK    4  A    between atoms: C_11  and  C_12
REMARK    5  A    between atoms: C_16  and  C_17
REMARK                            x       y       z     vdW  Elec       q    Type
REMARK                         _______ _______ _______ _____ _____    ______ ____
ROOT
ATOM      1  C   UNL     1      43.816   6.501  11.644  0.00  0.00    +0.000 C 
ENDROOT
BRANCH   1   2
ATOM      2  C   UNL     1      43.903   5.052  11.233  0.00  0.00    +0.000 A 
ATOM      3  C   UNL     1      43.182   4.068  11.908  0.00  0.00    +0.000 A 
ATOM      4  C   UNL     1      43.239   2.770  11.435  0.00  0.00    +0.000 A 
ATOM      5  N   UNL     1      43.974   2.387  10.368  0.00  0.00    +0.000 NA
ATOM      6  C   UNL     1      44.712   3.332   9.733  0.00  0.00    +0.000 A 
ATOM      7  C   UNL     1      44.684   4.669  10.136  0.00  0.00    +0.000 A 
BRANCH   6   8
ATOM      8  C   UNL     1      45.550   2.850   8.613  0.00  0.00    +0.000 A 
ATOM      9  C   UNL     1      45.979   3.723   7.593  0.00  0.00    +0.000 A 
ATOM     10  C   UNL     1      46.748   3.271   6.513  0.00  0.00    +0.000 A 
ATOM     11  C   UNL     1      47.101   1.927   6.430  0.00  0.00    +0.000 A 
ATOM     12  C   UNL     1      46.687   1.056   7.425  0.00  0.00    +0.000 A 
ATOM     13  F   UNL     1      47.017  -0.240   7.349  0.00  0.00    +0.000 F 
ATOM     14  C   UNL     1      45.923   1.499   8.501  0.00  0.00    +0.000 A 
ENDBRANCH   6   8
ENDBRANCH   1   2
BRANCH   1  15
ATOM     15  O   UNL     1      44.521   6.718  12.860  0.00  0.00    +0.000 OA
BRANCH  15  21
ATOM     16  C   UNL     1      47.632   8.518  12.403  0.00  0.00    +0.000 A 
ATOM     17  C   UNL     1      48.616   7.561  12.647  0.00  0.00    +0.000 A 
ATOM     18  C   UNL     1      48.249   6.264  12.993  0.00  0.00    +0.000 A 
ATOM     19  C   UNL     1      46.896   5.895  13.090  0.00  0.00    +0.000 A 
ATOM     20 CL   UNL     1      46.651   4.241  13.530  0.00  0.00    +0.000 Cl
ATOM     21  C   UNL     1      45.889   6.845  12.836  0.00  0.00    +0.000 A 
ATOM     22  C   UNL     1      46.280   8.157  12.493  0.00  0.00    +0.000 A 
BRANCH  16  24
ATOM     23  N   UNL     1      47.343  10.935  12.518  0.00  0.00    +0.000 N 
ATOM     24  C   UNL     1      48.070   9.887  12.027  0.00  0.00    +0.000 C 
ATOM     25  O   UNL     1      49.066  10.073  11.343  0.00  0.00    +0.000 OA
ATOM     26  H   UNL     1      47.716  11.860  12.341  0.00  0.00    +0.000 HD
ATOM     27  H   UNL     1      46.680  10.835  13.271  0.00  0.00    +0.000 HD
ENDBRANCH  16  24
ENDBRANCH  15  21
ENDBRANCH   1  15
TORSDOF 5
ENDMDL
MODEL 3
REMARK VINA RESULT:    -8.378      2.611      3.770
REMARK INTER + INTRA:         -11.374
REMARK INTER:                 -10.521
REMARK INTRA:                  -0.853
REMARK UNBOUND:                -0.547
REMARK  Name = 
REMARK  5 active torsions:
REMARK  status: ('A' for Active; 'I' for Inactive)
REMARK    1  A    between atoms: C_2  and  C_4
REMARK    2  A    between atoms: C_9  and  O_10
REMARK    3  A    between atoms: O_10  and  C_11
REMARK    4  A    between atoms: C_11  and  C_12
REMARK    5  A    between atoms: C_16  and  C_17
REMARK                            x       y       z     vdW  Elec       q    Type
REMARK                         _______ _______ _______ _____ _____    ______ ____
ROOT
ATOM      1  C   UNL     1      44.702   6.112  12.874  0.00  0.00    +0.000 C 
ENDROOT
BRANCH   1   2
ATOM      2  C   UNL     1      44.433   4.844  12.102  0.00  0.00    +0.000 A 
ATOM      3  C   UNL     1      43.465   3.935  12.527  0.00  0.00    +0.000 A 
ATOM      4  C   UNL     1      43.208   2.831  11.734  0.00  0.00    +0.000 A 
ATOM      5  N   UNL     1      43.857   2.562  10.580  0.00  0.00    +0.000 NA
ATOM      6  C   UNL     1      44.831   3.420  10.184  0.00  0.00    +0.000 A 
ATOM      7  C   UNL     1      45.128   4.570  10.918  0.00  0.00    +0.000 A 
BRANCH   6   8
ATOM      8  C   UNL     1      45.556   3.046   8.951  0.00  0.00    +0.000 A 
ATOM      9  C   UNL     1      45.919   4.016   7.995  0.00  0.00    +0.000 A 
ATOM     10  C   UNL     1      46.580   3.669   6.809  0.00  0.00    +0.000 A 
ATOM     11  C   UNL     1      46.889   2.336   6.555  0.00  0.00    +0.000 A 
ATOM     12  C   UNL     1      46.539   1.370   7.486  0.00  0.00    +0.000 A 
ATOM     13  F   UNL     1      46.828   0.085   7.245  0.00  0.00    +0.000 F 
ATOM     14  C   UNL     1      45.883   1.709   8.666  0.00  0.00    +0.000 A 
ENDBRANCH   6   8
ENDBRANCH   1   2
BRANCH   1  15
ATOM     15  O   UNL     1      46.094   6.401  12.891  0.00  0.00    +0.000 OA
BRANCH  15  21
ATOM     16  C   UNL     1      45.650   9.848  11.867  0.00  0.00    +0.000 A 
ATOM     17  C   UNL     1      46.946  10.360  11.827  0.00  0.00    +0.000 A 
ATOM     18  C   UNL     1      48.022   9.544  12.166  0.00  0.00    +0.000 A 
ATOM     19  C   UNL     1      47.826   8.203  12.538  0.00  0.00    +0.000 A 
ATOM     20 CL   UNL     1      49.288   7.361  12.919  0.00  0.00    +0.000 Cl
ATOM     21  C   UNL     1      46.526   7.666  12.572  0.00  0.00    +0.000 A 
ATOM     22  C   UNL     1      45.447   8.509  12.231  0.00  0.00    +0.000 A 
BRANCH  16  24
ATOM     23  N   UNL     1      43.355  10.609  12.163  0.00  0.00    +0.000 N 
ATOM     24  C   UNL     1      44.534  10.752  11.488  0.00  0.00    +0.000 C 
ATOM     25  O   UNL     1      44.674  11.618  10.637  0.00  0.00    +0.000 OA
ATOM     26  H   UNL     1      42.640  11.300  11.968  0.00  0.00    +0.000 HD
ATOM     27  H   UNL     1      43.277  10.087  13.023  0.00  0.00    +0.000 HD
ENDBRANCH  16  24
ENDBRANCH  15  21
ENDBRANCH   1  15
TORSDOF 5
ENDMDL
MODEL 4
REMARK VINA RESULT:    -8.355      2.348      2.756
REMARK INTER + INTRA:         -11.344
REMARK INTER:                 -10.448
REMARK INTRA:                  -0.896
REMARK UNBOUND:                -0.547
REMARK  Name = 
REMARK  5 active torsions:
REMARK  status: ('A' for Active; 'I' for Inactive)
REMARK    1  A    between atoms: C_2  and  C_4
REMARK    2  A    between atoms: C_9  and  O_10
REMARK    3  A    between atoms: O_10  and  C_11
REMARK    4  A    between atoms: C_11  and  C_12
REMARK    5  A    between atoms: C_16  and  C_17
REMARK                            x       y       z     vdW  Elec       q    Type
REMARK                         _______ _______ _______ _____ _____    ______ ____
ROOT
ATOM      1  C   UNL     1      44.512   6.139  12.556  0.00  0.00    +0.000 C 
ENDROOT
BRANCH   1   2
ATOM      2  C   UNL     1      44.318   4.823  11.843  0.00  0.00    +0.000 A 
ATOM      3  C   UNL     1      43.391   3.888  12.301  0.00  0.00    +0.000 A 
ATOM      4  C   UNL     1      43.200   2.736  11.560  0.00  0.00    +0.000 A 
ATOM      5  N   UNL     1      43.877   2.445  10.427  0.00  0.00    +0.000 NA
ATOM      6  C   UNL     1      44.811   3.332  10.001  0.00  0.00    +0.000 A 
ATOM      7  C   UNL     1      45.041   4.530  10.681  0.00  0.00    +0.000 A 
BRANCH   6   8
ATOM      8  C   UNL     1      45.570   2.937   8.794  0.00  0.00    +0.000 A 
ATOM      9  C   UNL     1      45.915   3.882   7.807  0.00  0.00    +0.000 A 
ATOM     10  C   UNL     1      46.608   3.513   6.646  0.00  0.00    +0.000 A 
ATOM     11  C   UNL     1      46.969   2.184   6.449  0.00  0.00    +0.000 A 
ATOM     12  C   UNL     1      46.638   1.243   7.412  0.00  0.00    +0.000 A 
ATOM     13  F   UNL     1      46.977  -0.040   7.227  0.00  0.00    +0.000 F 
ATOM     14  C   UNL     1      45.950   1.603   8.567  0.00  0.00    +0.000 A 
ENDBRANCH   6   8
ENDBRANCH   1   2
BRANCH   1  15
ATOM     15  O   UNL     1      44.803   7.174  11.625  0.00  0.00    +0.000 OA
BRANCH  15  21
ATOM     16  C   UNL     1      48.211   8.068  12.468  0.00  0.00    +0.000 A 
ATOM     17  C   UNL     1      48.197   9.461  12.505  0.00  0.00    +0.000 A 
ATOM     18  C   UNL     1      47.019  10.148  12.226  0.00  0.00    +0.000 A 
ATOM     19  C   UNL     1      45.833   9.459  11.918  0.00  0.00    +0.000 A 
ATOM     20 CL   UNL     1      44.483  10.493  11.605  0.00  0.00    +0.000 Cl
ATOM     21  C   UNL     1      45.826   8.052  11.888  0.00  0.00    +0.000 A 
ATOM     22  C   UNL     1      47.031   7.373  12.167  0.00  0.00    +0.000 A 
BRANCH  16  24
ATOM     23  N   UNL     1      50.450   7.365  11.812  0.00  0.00    +0.000 N 
ATOM     24  C   UNL     1      49.488   7.377  12.782  0.00  0.00    +0.000 C 
ATOM     25  O   UNL     1      49.690   6.876  13.879  0.00  0.00    +0.000 OA
ATOM     26  H   UNL     1      51.350   6.985  12.078  0.00  0.00    +0.000 HD
ATOM     27  H   UNL     1      50.418   7.968  11.004  0.00  0.00    +0.000 HD
ENDBRANCH  16  24
ENDBRANCH  15  21
ENDBRANCH   1  15
TORSDOF 5
ENDMDL
MODEL 5
REMARK VINA RESULT:    -8.117      3.860      7.805
REMARK INTER + INTRA:         -11.036
REMARK INTER:                 -10.294
REMARK INTRA:                  -0.742
REMARK UNBOUND:                -0.547
REMARK  Name = 
REMARK  5 active torsions:
REMARK  status: ('A' for Active; 'I' for Inactive)
REMARK    1  A    between atoms: C_2  and  C_4
REMARK    2  A    between atoms: C_9  and  O_10
REMARK    3  A    between atoms: O_10  and  C_11
REMARK    4  A    between atoms: C_11  and  C_12
REMARK    5  A    between atoms: C_16  and  C_17
REMARK                            x       y       z     vdW  Elec       q    Type
REMARK                         _______ _______ _______ _____ _____    ______ ____
ROOT
ATOM      1  C   UNL     1      44.592   5.605  11.572  0.00  0.00    +0.000 C 
ENDROOT
BRANCH   1   2
ATOM      2  C   UNL     1      45.922   5.829  12.247  0.00  0.00    +0.000 A 
ATOM      3  C   UNL     1      46.932   6.560  11.622  0.00  0.00    +0.000 A 
ATOM      4  C   UNL     1      48.099   6.801  12.323  0.00  0.00    +0.000 A 
ATOM      5  N   UNL     1      48.336   6.349  13.574  0.00  0.00    +0.000 NA
ATOM      6  C   UNL     1      47.375   5.600  14.172  0.00  0.00    +0.000 A 
ATOM      7  C   UNL     1      46.158   5.338  13.537  0.00  0.00    +0.000 A 
BRANCH   6   8
ATOM      8  C   UNL     1      47.708   5.075  15.513  0.00  0.00    +0.000 A 
ATOM      9  C   UNL     1      48.685   5.695  16.318  0.00  0.00    +0.000 A 
ATOM     10  C   UNL     1      49.029   5.188  17.578  0.00  0.00    +0.000 A 
ATOM     11  C   UNL     1      48.400   4.043  18.058  0.00  0.00    +0.000 A 
ATOM     12  C   UNL     1      47.437   3.422  17.278  0.00  0.00    +0.000 A 
ATOM     13  F   UNL     1      46.833   2.316  17.731  0.00  0.00    +0.000 F 
ATOM     14  C   UNL     1      47.091   3.921  16.026  0.00  0.00    +0.000 A 
ENDBRANCH   6   8
ENDBRANCH   1   2
BRANCH   1  15
ATOM     15  O   UNL     1      44.768   5.412  10.174  0.00  0.00    +0.000 OA
BRANCH  15  21
ATOM     16  C   UNL     1      46.237   2.945   7.965  0.00  0.00    +0.000 A 
ATOM     17  C   UNL     1      45.649   1.744   8.359  0.00  0.00    +0.000 A 
ATOM     18  C   UNL     1      44.736   1.733   9.410  0.00  0.00    +0.000 A 
ATOM     19  C   UNL     1      44.385   2.919  10.078  0.00  0.00    +0.000 A 
ATOM     20 CL   UNL     1      43.236   2.693  11.350  0.00  0.00    +0.000 Cl
ATOM     21  C   UNL     1      44.959   4.143   9.685  0.00  0.00    +0.000 A 
ATOM     22  C   UNL     1      45.887   4.134   8.622  0.00  0.00    +0.000 A 
BRANCH  16  24
ATOM     23  N   UNL     1      46.974   3.771   5.795  0.00  0.00    +0.000 N 
ATOM     24  C   UNL     1      47.197   2.910   6.833  0.00  0.00    +0.000 C 
ATOM     25  O   UNL     1      48.173   2.175   6.845  0.00  0.00    +0.000 OA
ATOM     26  H   UNL     1      47.693   3.811   5.083  0.00  0.00    +0.000 HD
ATOM     27  H   UNL     1      46.337   4.550   5.859  0.00  0.00    +0.000 HD
ENDBRANCH  16  24
ENDBRANCH  15  21
ENDBRANCH   1  15
TORSDOF 5
ENDMDL
MODEL 6
REMARK VINA RESULT:    -8.068      1.604      2.110
REMARK INTER + INTRA:         -10.972
REMARK INTER:                 -10.118
REMARK INTRA:                  -0.854
REMARK UNBOUND:                -0.547
REMARK  Name = 
REMARK  5 active torsions:
REMARK  status: ('A' for Active; 'I' for Inactive)
REMARK    1  A    between atoms: C_2  and  C_4
REMARK    2  A    between atoms: C_9  and  O_10
REMARK    3  A    between atoms: O_10  and  C_11
REMARK    4  A    between atoms: C_11  and  C_12
REMARK    5  A    between atoms: C_16  and  C_17
REMARK                            x       y       z     vdW  Elec       q    Type
REMARK                         _______ _______ _______ _____ _____    ______ ____
ROOT
ATOM      1  C   UNL     1      45.722   7.030  12.718  0.00  0.00    +0.000 C 
ENDROOT
BRANCH   1   2
ATOM      2  C   UNL     1      44.978   6.017  11.884  0.00  0.00    +0.000 A 
ATOM      3  C   UNL     1      43.622   5.769  12.094  0.00  0.00    +0.000 A 
ATOM      4  C   UNL     1      42.976   4.889  11.246  0.00  0.00    +0.000 A 
ATOM      5  N   UNL     1      43.585   4.228  10.236  0.00  0.00    +0.000 NA
ATOM      6  C   UNL     1      44.914   4.432  10.055  0.00  0.00    +0.000 A 
ATOM      7  C   UNL     1      45.628   5.328  10.854  0.00  0.00    +0.000 A 
BRANCH   6   8
ATOM      8  C   UNL     1      45.547   3.637   8.980  0.00  0.00    +0.000 A 
ATOM      9  C   UNL     1      46.118   4.259   7.851  0.00  0.00    +0.000 A 
ATOM     10  C   UNL     1      46.694   3.514   6.814  0.00  0.00    +0.000 A 
ATOM     11  C   UNL     1      46.706   2.125   6.884  0.00  0.00    +0.000 A 
ATOM     12  C   UNL     1      46.148   1.498   7.988  0.00  0.00    +0.000 A 
ATOM     13  F   UNL     1      46.150   0.160   8.060  0.00  0.00    +0.000 F 
ATOM     14  C   UNL     1      45.575   2.233   9.022  0.00  0.00    +0.000 A 
ENDBRANCH   6   8
ENDBRANCH   1   2
BRANCH   1  15
ATOM     15  O   UNL     1      47.097   6.683  12.819  0.00  0.00    +0.000 OA
BRANCH  15  21
ATOM     16  C   UNL     1      47.948   4.785  15.785  0.00  0.00    +0.000 A 
ATOM     17  C   UNL     1      48.637   5.695  16.584  0.00  0.00    +0.000 A 
ATOM     18  C   UNL     1      48.850   6.993  16.128  0.00  0.00    +0.000 A 
ATOM     19  C   UNL     1      48.370   7.408  14.874  0.00  0.00    +0.000 A 
ATOM     20 CL   UNL     1      48.737   9.055  14.494  0.00  0.00    +0.000 Cl
ATOM     21  C   UNL     1      47.661   6.506  14.059  0.00  0.00    +0.000 A 
ATOM     22  C   UNL     1      47.460   5.193  14.535  0.00  0.00    +0.000 A 
BRANCH  16  24
ATOM     23  N   UNL     1      46.836   3.269  17.336  0.00  0.00    +0.000 N 
ATOM     24  C   UNL     1      47.735   3.414  16.317  0.00  0.00    +0.000 C 
ATOM     25  O   UNL     1      48.306   2.446  15.836  0.00  0.00    +0.000 OA
ATOM     26  H   UNL     1      46.624   2.319  17.615  0.00  0.00    +0.000 HD
ATOM     27  H   UNL     1      46.175   3.988  17.587  0.00  0.00    +0.000 HD
ENDBRANCH  16  24
ENDBRANCH  15  21
ENDBRANCH   1  15
TORSDOF 5
ENDMDL
MODEL 7
REMARK VINA RESULT:    -7.967      3.653      7.262
REMARK INTER + INTRA:         -10.843
REMARK INTER:                 -10.126
REMARK INTRA:                  -0.717
REMARK UNBOUND:                -0.547
REMARK  Name = 
REMARK  5 active torsions:
REMARK  status: ('A' for Active; 'I' for Inactive)
REMARK    1  A    between atoms: C_2  and  C_4
REMARK    2  A    between atoms: C_9  and  O_10
REMARK    3  A    between atoms: O_10  and  C_11
REMARK    4  A    between atoms: C_11  and  C_12
REMARK    5  A    between atoms: C_16  and  C_17
REMARK                            x       y       z     vdW  Elec       q    Type
REMARK                         _______ _______ _______ _____ _____    ______ ____
ROOT
ATOM      1  C   UNL     1      44.606   5.616  11.048  0.00  0.00    +0.000 C 
ENDROOT
BRANCH   1   2
ATOM      2  C   UNL     1      45.869   5.850  11.840  0.00  0.00    +0.000 A 
ATOM      3  C   UNL     1      46.158   5.089  12.972  0.00  0.00    +0.000 A 
ATOM      4  C   UNL     1      47.368   5.293  13.610  0.00  0.00    +0.000 A 
ATOM      5  N   UNL     1      48.283   6.208  13.218  0.00  0.00    +0.000 NA
ATOM      6  C   UNL     1      47.988   6.982  12.144  0.00  0.00    +0.000 A 
ATOM      7  C   UNL     1      46.797   6.814  11.432  0.00  0.00    +0.000 A 
BRANCH   6   8
ATOM      8  C   UNL     1      48.991   8.011  11.796  0.00  0.00    +0.000 A 
ATOM      9  C   UNL     1      48.653   9.379  11.763  0.00  0.00    +0.000 A 
ATOM     10  C   UNL     1      49.588  10.359  11.407  0.00  0.00    +0.000 A 
ATOM     11  C   UNL     1      50.887   9.987  11.071  0.00  0.00    +0.000 A 
ATOM     12  C   UNL     1      51.235   8.645  11.099  0.00  0.00    +0.000 A 
ATOM     13  F   UNL     1      52.480   8.278  10.770  0.00  0.00    +0.000 F 
ATOM     14  C   UNL     1      50.310   7.666  11.452  0.00  0.00    +0.000 A 
ENDBRANCH   6   8
ENDBRANCH   1   2
BRANCH   1  15
ATOM     15  O   UNL     1      44.911   5.377   9.680  0.00  0.00    +0.000 OA
BRANCH  15  21
ATOM     16  C   UNL     1      46.331   2.850   7.508  0.00  0.00    +0.000 A 
ATOM     17  C   UNL     1      45.834   1.650   8.013  0.00  0.00    +0.000 A 
ATOM     18  C   UNL     1      45.004   1.661   9.131  0.00  0.00    +0.000 A 
ATOM     19  C   UNL     1      44.646   2.869   9.755  0.00  0.00    +0.000 A 
ATOM     20 CL   UNL     1      43.608   2.668  11.124  0.00  0.00    +0.000 Cl
ATOM     21  C   UNL     1      45.128   4.090   9.250  0.00  0.00    +0.000 A 
ATOM     22  C   UNL     1      45.973   4.059   8.121  0.00  0.00    +0.000 A 
BRANCH  16  24
ATOM     23  N   UNL     1      48.543   2.613   6.515  0.00  0.00    +0.000 N 
ATOM     24  C   UNL     1      47.204   2.790   6.308  0.00  0.00    +0.000 C 
ATOM     25  O   UNL     1      46.743   2.852   5.177  0.00  0.00    +0.000 OA
ATOM     26  H   UNL     1      49.110   2.468   5.688  0.00  0.00    +0.000 HD
ATOM     27  H   UNL     1      48.924   2.314   7.400  0.00  0.00    +0.000 HD
ENDBRANCH  16  24
ENDBRANCH  15  21
ENDBRANCH   1  15
TORSDOF 5
ENDMDL
MODEL 8
REMARK VINA RESULT:    -7.381      3.003      4.514
REMARK INTER + INTRA:         -10.086
REMARK INTER:                  -9.214
REMARK INTRA:                  -0.872
REMARK UNBOUND:                -0.547
REMARK  Name = 
REMARK  5 active torsions:
REMARK  status: ('A' for Active; 'I' for Inactive)
REMARK    1  A    between atoms: C_2  and  C_4
REMARK    2  A    between atoms: C_9  and  O_10
REMARK    3  A    between atoms: O_10  and  C_11
REMARK    4  A    between atoms: C_11  and  C_12
REMARK    5  A    between atoms: C_16  and  C_17
REMARK                            x       y       z     vdW  Elec       q    Type
REMARK                         _______ _______ _______ _____ _____    ______ ____
ROOT
ATOM      1  C   UNL     1      49.039   7.724  13.587  0.00  0.00    +0.000 C 
ENDROOT
BRANCH   1   2
ATOM      2  C   UNL     1      47.623   7.650  13.073  0.00  0.00    +0.000 A 
ATOM      3  C   UNL     1      46.714   8.677  13.321  0.00  0.00    +0.000 A 
ATOM      4  C   UNL     1      45.454   8.591  12.756  0.00  0.00    +0.000 A 
ATOM      5  N   UNL     1      45.038   7.555  11.994  0.00  0.00    +0.000 NA
ATOM      6  C   UNL     1      45.904   6.532  11.785  0.00  0.00    +0.000 A 
ATOM      7  C   UNL     1      47.202   6.561  12.301  0.00  0.00    +0.000 A 
BRANCH   6   8
ATOM      8  C   UNL     1      45.379   5.394  11.000  0.00  0.00    +0.000 A 
ATOM      9  C   UNL     1      45.665   5.259   9.627  0.00  0.00    +0.000 A 
ATOM     10  C   UNL     1      45.148   4.201   8.868  0.00  0.00    +0.000 A 
ATOM     11  C   UNL     1      44.329   3.252   9.473  0.00  0.00    +0.000 A 
ATOM     12  C   UNL     1      44.039   3.370  10.823  0.00  0.00    +0.000 A 
ATOM     13  F   UNL     1      43.246   2.464  11.411  0.00  0.00    +0.000 F 
ATOM     14  C   UNL     1      44.549   4.419  11.582  0.00  0.00    +0.000 A 
ENDBRANCH   6   8
ENDBRANCH   1   2
BRANCH   1  15
ATOM     15  O   UNL     1      49.341   6.587  14.386  0.00  0.00    +0.000 OA
BRANCH  15  21
ATOM     16  C   UNL     1      48.070   5.032  17.401  0.00  0.00    +0.000 A 
ATOM     17  C   UNL     1      48.064   6.064  18.338  0.00  0.00    +0.000 A 
ATOM     18  C   UNL     1      48.512   7.331  17.974  0.00  0.00    +0.000 A 
ATOM     19  C   UNL     1      48.961   7.594  16.668  0.00  0.00    +0.000 A 
ATOM     20 CL   UNL     1      49.473   9.227  16.419  0.00  0.00    +0.000 Cl
ATOM     21  C   UNL     1      48.962   6.567  15.706  0.00  0.00    +0.000 A 
ATOM     22  C   UNL     1      48.511   5.288  16.095  0.00  0.00    +0.000 A 
BRANCH  16  24
ATOM     23  N   UNL     1      48.187   3.119  18.906  0.00  0.00    +0.000 N 
ATOM     24  C   UNL     1      47.574   3.700  17.831  0.00  0.00    +0.000 C 
ATOM     25  O   UNL     1      46.627   3.161  17.276  0.00  0.00    +0.000 OA
ATOM     26  H   UNL     1      47.769   2.264  19.252  0.00  0.00    +0.000 HD
ATOM     27  H   UNL     1      48.791   3.630  19.531  0.00  0.00    +0.000 HD
ENDBRANCH  16  24
ENDBRANCH  15  21
ENDBRANCH   1  15
TORSDOF 5
ENDMDL
MODEL 9
REMARK VINA RESULT:    -7.124      4.552      9.091
REMARK INTER + INTRA:          -9.752
REMARK INTER:                  -8.900
REMARK INTRA:                  -0.852
REMARK UNBOUND:                -0.547
REMARK  Name = 
REMARK  5 active torsions:
REMARK  status: ('A' for Active; 'I' for Inactive)
REMARK    1  A    between atoms: C_2  and  C_4
REMARK    2  A    between atoms: C_9  and  O_10
REMARK    3  A    between atoms: O_10  and  C_11
REMARK    4  A    between atoms: C_11  and  C_12
REMARK    5  A    between atoms: C_16  and  C_17
REMARK                            x       y       z     vdW  Elec       q    Type
REMARK                         _______ _______ _______ _____ _____    ______ ____
ROOT
ATOM      1  C   UNL     1      47.349   3.540  14.996  0.00  0.00    +0.000 C 
ENDROOT
BRANCH   1   2
ATOM      2  C   UNL     1      47.842   3.732  16.409  0.00  0.00    +0.000 A 
ATOM      3  C   UNL     1      48.569   2.736  17.059  0.00  0.00    +0.000 A 
ATOM      4  C   UNL     1      49.063   3.001  18.323  0.00  0.00    +0.000 A 
ATOM      5  N   UNL     1      48.862   4.163  18.984  0.00  0.00    +0.000 NA
ATOM      6  C   UNL     1      48.118   5.120  18.374  0.00  0.00    +0.000 A 
ATOM      7  C   UNL     1      47.609   4.935  17.087  0.00  0.00    +0.000 A 
BRANCH   6   8
ATOM      8  C   UNL     1      47.873   6.346  19.164  0.00  0.00    +0.000 A 
ATOM      9  C   UNL     1      47.659   6.287  20.556  0.00  0.00    +0.000 A 
ATOM     10  C   UNL     1      47.397   7.439  21.309  0.00  0.00    +0.000 A 
ATOM     11  C   UNL     1      47.339   8.679  20.679  0.00  0.00    +0.000 A 
ATOM     12  C   UNL     1      47.547   8.753  19.311  0.00  0.00    +0.000 A 
ATOM     13  F   UNL     1      47.487   9.942  18.696  0.00  0.00    +0.000 F 
ATOM     14  C   UNL     1      47.809   7.612  18.557  0.00  0.00    +0.000 A 
ENDBRANCH   6   8
ENDBRANCH   1   2
BRANCH   1  15
ATOM     15  O   UNL     1      46.259   4.411  14.724  0.00  0.00    +0.000 OA
BRANCH  15  21
ATOM     16  C   UNL     1      44.957   4.784  11.364  0.00  0.00    +0.000 A 
ATOM     17  C   UNL     1      45.646   5.883  10.853  0.00  0.00    +0.000 A 
ATOM     18  C   UNL     1      46.574   6.548  11.650  0.00  0.00    +0.000 A 
ATOM     19  C   UNL     1      46.839   6.123  12.963  0.00  0.00    +0.000 A 
ATOM     20 CL   UNL     1      48.023   7.080  13.783  0.00  0.00    +0.000 Cl
ATOM     21  C   UNL     1      46.162   5.008  13.490  0.00  0.00    +0.000 A 
ATOM     22  C   UNL     1      45.220   4.350  12.671  0.00  0.00    +0.000 A 
BRANCH  16  24
ATOM     23  N   UNL     1      43.993   4.442   9.152  0.00  0.00    +0.000 N 
ATOM     24  C   UNL     1      43.984   4.099  10.475  0.00  0.00    +0.000 C 
ATOM     25  O   UNL     1      43.233   3.232  10.897  0.00  0.00    +0.000 OA
ATOM     26  H   UNL     1      43.400   3.892   8.542  0.00  0.00    +0.000 HD
ATOM     27  H   UNL     1      44.748   4.959   8.727  0.00  0.00    +0.000 HD
ENDBRANCH  16  24
ENDBRANCH  15  21
ENDBRANCH   1  15
TORSDOF 5
ENDMDL
