MODEL 1
REMARK VINA RESULT:    -8.410      0.000      0.000
REMARK INTER + INTRA:         -12.685
REMARK INTER:                 -11.852
REMARK INTRA:                  -0.833
REMARK UNBOUND:                -0.833
REMARK  Name = 
REMARK  8 active torsions:
REMARK  status: ('A' for Active; 'I' for Inactive)
REMARK    1  A    between atoms: C_1  and  C_2
REMARK    2  A    between atoms: C_2  and  C_3
REMARK    3  A    between atoms: C_2  and  C_14
REMARK    4  A    between atoms: C_3  and  O_4
REMARK    5  A    between atoms: O_4  and  C_5
REMARK    6  A    between atoms: C_8  and  C_9
REMARK    7  A    between atoms: C_19  and  N_20
REMARK    8  A    between atoms: N_20  and  C_21
REMARK                            x       y       z     vdW  Elec       q    Type
REMARK                         _______ _______ _______ _____ _____    ______ ____
ROOT
ATOM      1  C   UNL     1      42.714   5.359  11.911  0.00  0.00    +0.000 C 
ATOM      2  C   UNL     1      43.683   4.315  12.481  0.00  0.00    +0.000 C 
ENDROOT
BRANCH   2   3
ATOM      3  C   UNL     1      45.046   4.938  12.776  0.00  0.00    +0.000 A 
ATOM      4  C   UNL     1      45.691   5.750  11.832  0.00  0.00    +0.000 A 
ATOM      5  C   UNL     1      46.947   6.275  12.107  0.00  0.00    +0.000 A 
ATOM      6  F   UNL     1      47.552   7.045  11.192  0.00  0.00    +0.000 F 
ATOM      7  C   UNL     1      47.590   6.015  13.312  0.00  0.00    +0.000 A 
ATOM      8  C   UNL     1      46.964   5.236  14.291  0.00  0.00    +0.000 A 
ATOM      9  C   UNL     1      45.699   4.691  14.002  0.00  0.00    +0.000 A 
BRANCH   8  10
ATOM     10  N   UNL     1      47.658   4.957  15.490  0.00  0.00    +0.000 N 
ATOM     11  H   UNL     1      48.164   5.770  15.835  0.00  0.00    +0.000 HD
BRANCH  10  12
ATOM     12  C   UNL     1      47.196   4.107  16.558  0.00  0.00    +0.000 C 
ATOM     13  C   UNL     1      47.274   4.765  17.956  0.00  0.00    +0.000 C 
ATOM     14  N   UNL     1      47.876   3.515  18.482  0.00  0.00    +0.000 NA
ATOM     15  C   UNL     1      48.296   3.167  17.104  0.00  0.00    +0.000 C 
ATOM     16  H   UNL     1      47.185   2.868  18.865  0.00  0.00    +0.000 HD
ENDBRANCH  10  12
ENDBRANCH   8  10
ENDBRANCH   2   3
BRANCH   2  17
ATOM     17  C   UNL     1      43.820   3.101  11.538  0.00  0.00    +0.000 C 
BRANCH  17  18
ATOM     18  O   UNL     1      43.452   3.448  10.190  0.00  0.00    +0.000 OA
BRANCH  18  19
ATOM     19  C   UNL     1      44.454   3.151   9.284  0.00  0.00    +0.000 A 
ATOM     20  C   UNL     1      44.992   4.178   8.514  0.00  0.00    +0.000 A 
ATOM     21  N   UNL     1      45.998   3.985   7.613  0.00  0.00    +0.000 NA
ATOM     22  C   UNL     1      46.437   2.697   7.521  0.00  0.00    +0.000 A 
ATOM     23  C   UNL     1      45.894   1.673   8.283  0.00  0.00    +0.000 A 
ATOM     24  N   UNL     1      44.894   1.876   9.176  0.00  0.00    +0.000 NA
BRANCH  22  25
ATOM     25  C   UNL     1      47.544   2.383   6.579  0.00  0.00    +0.000 C 
ATOM     26  N   UNL     1      47.521   3.034   5.378  0.00  0.00    +0.000 N 
ATOM     27  O   UNL     1      48.435   1.590   6.858  0.00  0.00    +0.000 OA
ATOM     28  H   UNL     1      46.782   3.694   5.164  0.00  0.00    +0.000 HD
ATOM     29  H   UNL     1      48.262   2.863   4.710  0.00  0.00    +0.000 HD
ENDBRANCH  22  25
ENDBRANCH  18  19
ENDBRANCH  17  18
ENDBRANCH   2  17
TORSDOF 7
ENDMDL
MODEL 2
REMARK VINA RESULT:    -7.926      2.708      7.828
REMARK INTER + INTRA:         -12.002
REMARK INTER:                 -11.291
REMARK INTRA:                  -0.711
REMARK UNBOUND:                -0.833
REMARK  Name = 
REMARK  8 active torsions:
REMARK  status: ('A' for Active; 'I' for Inactive)
REMARK    1  A    between atoms: C_1  and  C_2
REMARK    2  A    between atoms: C_2  and  C_3
REMARK    3  A    between atoms: C_2  and  C_14
REMARK    4  A    between atoms: C_3  and  O_4
REMARK    5  A    between atoms: O_4  and  C_5
REMARK    6  A    between atoms: C_8  and  C_9
REMARK    7  A    between atoms: C_19  and  N_20
REMARK    8  A    between atoms: N_20  and  C_21
REMARK                            x       y       z     vdW  Elec       q    Type
REMARK                         _______ _______ _______ _____ _____    ______ ____
ROOT
ATOM      1  C   UNL     1      44.639   7.278  11.811  0.00  0.00    +0.000 C 
ATOM      2  C   UNL     1      45.733   6.634  10.949  0.00  0.00    +0.000 C 
ENDROOT
BRANCH   2   3
ATOM      3  C   UNL     1      45.264   5.298  10.378  0.00  0.00    +0.000 A 
ATOM      4  C   UNL     1      44.421   4.452  11.112  0.00  0.00    +0.000 A 
ATOM      5  C   UNL     1      44.037   3.225  10.588  0.00  0.00    +0.000 A 
ATOM      6  F   UNL     1      43.236   2.425  11.305  0.00  0.00    +0.000 F 
ATOM      7  C   UNL     1      44.471   2.808   9.335  0.00  0.00    +0.000 A 
ATOM      8  C   UNL     1      45.286   3.639   8.559  0.00  0.00    +0.000 A 
ATOM      9  C   UNL     1      45.688   4.874   9.100  0.00  0.00    +0.000 A 
BRANCH   8  10
ATOM     10  N   UNL     1      45.742   3.172   7.305  0.00  0.00    +0.000 N 
ATOM     11  H   UNL     1      45.128   3.458   6.546  0.00  0.00    +0.000 HD
BRANCH  10  12
ATOM     12  C   UNL     1      47.117   3.073   6.887  0.00  0.00    +0.000 C 
ATOM     13  C   UNL     1      47.291   2.791   5.376  0.00  0.00    +0.000 C 
ATOM     14  N   UNL     1      48.296   1.754   5.711  0.00  0.00    +0.000 NA
ATOM     15  C   UNL     1      47.705   1.654   7.066  0.00  0.00    +0.000 C 
ATOM     16  H   UNL     1      49.254   2.111   5.717  0.00  0.00    +0.000 HD
ENDBRANCH  10  12
ENDBRANCH   8  10
ENDBRANCH   2   3
BRANCH   2  17
ATOM     17  C   UNL     1      47.047   6.469  11.741  0.00  0.00    +0.000 C 
BRANCH  17  18
ATOM     18  O   UNL     1      46.908   6.964  13.085  0.00  0.00    +0.000 OA
BRANCH  18  19
ATOM     19  C   UNL     1      47.183   5.991  14.030  0.00  0.00    +0.000 A 
ATOM     20  C   UNL     1      46.493   4.783  13.973  0.00  0.00    +0.000 A 
ATOM     21  N   UNL     1      46.713   3.758  14.846  0.00  0.00    +0.000 NA
ATOM     22  C   UNL     1      47.667   4.011  15.788  0.00  0.00    +0.000 A 
ATOM     23  C   UNL     1      48.348   5.217  15.848  0.00  0.00    +0.000 A 
ATOM     24  N   UNL     1      48.121   6.230  14.975  0.00  0.00    +0.000 NA
BRANCH  22  25
ATOM     25  C   UNL     1      47.995   2.950  16.777  0.00  0.00    +0.000 C 
ATOM     26  N   UNL     1      47.063   2.716  17.748  0.00  0.00    +0.000 N 
ATOM     27  O   UNL     1      49.039   2.311  16.728  0.00  0.00    +0.000 OA
ATOM     28  H   UNL     1      46.199   3.247  17.770  0.00  0.00    +0.000 HD
ATOM     29  H   UNL     1      47.236   1.994  18.434  0.00  0.00    +0.000 HD
ENDBRANCH  22  25
ENDBRANCH  18  19
ENDBRANCH  17  18
ENDBRANCH   2  17
TORSDOF 7
ENDMDL
MODEL 3
REMARK VINA RESULT:    -7.673      3.090      4.925
REMARK INTER + INTRA:         -11.646
REMARK INTER:                 -11.175
REMARK INTRA:                  -0.471
REMARK UNBOUND:                -0.833
REMARK  Name = 
REMARK  8 active torsions:
REMARK  status: ('A' for Active; 'I' for Inactive)
REMARK    1  A    between atoms: C_1  and  C_2
REMARK    2  A    between atoms: C_2  and  C_3
REMARK    3  A    between atoms: C_2  and  C_14
REMARK    4  A    between atoms: C_3  and  O_4
REMARK    5  A    between atoms: O_4  and  C_5
REMARK    6  A    between atoms: C_8  and  C_9
REMARK    7  A    between atoms: C_19  and  N_20
REMARK    8  A    between atoms: N_20  and  C_21
REMARK                            x       y       z     vdW  Elec       q    Type
REMARK                         _______ _______ _______ _____ _____    ______ ____
ROOT
ATOM      1  C   UNL     1      45.845   4.088  12.813  0.00  0.00    +0.000 C 
ATOM      2  C   UNL     1      45.476   4.940  11.592  0.00  0.00    +0.000 C 
ENDROOT
BRANCH   2   3
ATOM      3  C   UNL     1      45.888   6.396  11.797  0.00  0.00    +0.000 A 
ATOM      4  C   UNL     1      47.239   6.770  11.819  0.00  0.00    +0.000 A 
ATOM      5  C   UNL     1      47.592   8.094  12.044  0.00  0.00    +0.000 A 
ATOM      6  F   UNL     1      48.888   8.434  12.067  0.00  0.00    +0.000 F 
ATOM      7  C   UNL     1      46.627   9.073  12.249  0.00  0.00    +0.000 A 
ATOM      8  C   UNL     1      45.268   8.744  12.203  0.00  0.00    +0.000 A 
ATOM      9  C   UNL     1      44.914   7.398  11.992  0.00  0.00    +0.000 A 
BRANCH   8  10
ATOM     10  N   UNL     1      44.311   9.753  12.452  0.00  0.00    +0.000 N 
ATOM     11  H   UNL     1      44.551  10.313  13.268  0.00  0.00    +0.000 HD
BRANCH  10  12
ATOM     12  C   UNL     1      43.605  10.517  11.455  0.00  0.00    +0.000 C 
ATOM     13  C   UNL     1      42.541   9.702  10.684  0.00  0.00    +0.000 C 
ATOM     14  N   UNL     1      43.050  10.282   9.418  0.00  0.00    +0.000 NA
ATOM     15  C   UNL     1      44.339  10.563  10.095  0.00  0.00    +0.000 C 
ATOM     16  H   UNL     1      42.553  11.129   9.136  0.00  0.00    +0.000 HD
ENDBRANCH  10  12
ENDBRANCH   8  10
ENDBRANCH   2   3
BRANCH   2  17
ATOM     17  C   UNL     1      43.972   4.830  11.265  0.00  0.00    +0.000 C 
BRANCH  17  18
ATOM     18  O   UNL     1      43.749   4.834   9.843  0.00  0.00    +0.000 OA
BRANCH  18  19
ATOM     19  C   UNL     1      44.644   4.018   9.174  0.00  0.00    +0.000 A 
ATOM     20  C   UNL     1      44.645   2.653   9.446  0.00  0.00    +0.000 A 
ATOM     21  N   UNL     1      45.474   1.769   8.820  0.00  0.00    +0.000 NA
ATOM     22  C   UNL     1      46.311   2.331   7.900  0.00  0.00    +0.000 A 
ATOM     23  C   UNL     1      46.314   3.692   7.635  0.00  0.00    +0.000 A 
ATOM     24  N   UNL     1      45.486   4.563   8.264  0.00  0.00    +0.000 NA
BRANCH  22  25
ATOM     25  C   UNL     1      47.244   1.450   7.148  0.00  0.00    +0.000 C 
ATOM     26  N   UNL     1      48.355   2.048   6.625  0.00  0.00    +0.000 N 
ATOM     27  O   UNL     1      47.038   0.251   7.006  0.00  0.00    +0.000 OA
ATOM     28  H   UNL     1      48.517   3.040   6.759  0.00  0.00    +0.000 HD
ATOM     29  H   UNL     1      49.025   1.486   6.118  0.00  0.00    +0.000 HD
ENDBRANCH  22  25
ENDBRANCH  18  19
ENDBRANCH  17  18
ENDBRANCH   2  17
TORSDOF 7
ENDMDL
MODEL 4
REMARK VINA RESULT:    -7.019      2.841      4.444
REMARK INTER + INTRA:         -10.725
REMARK INTER:                 -10.015
REMARK INTRA:                  -0.710
REMARK UNBOUND:                -0.833
REMARK  Name = 
REMARK  8 active torsions:
REMARK  status: ('A' for Active; 'I' for Inactive)
REMARK    1  A    between atoms: C_1  and  C_2
REMARK    2  A    between atoms: C_2  and  C_3
REMARK    3  A    between atoms: C_2  and  C_14
REMARK    4  A    between atoms: C_3  and  O_4
REMARK    5  A    between atoms: O_4  and  C_5
REMARK    6  A    between atoms: C_8  and  C_9
REMARK    7  A    between atoms: C_19  and  N_20
REMARK    8  A    between atoms: N_20  and  C_21
REMARK                            x       y       z     vdW  Elec       q    Type
REMARK                         _______ _______ _______ _____ _____    ______ ____
ROOT
ATOM      1  C   UNL     1      44.643   4.109  13.014  0.00  0.00    +0.000 C 
ATOM      2  C   UNL     1      45.482   4.815  11.941  0.00  0.00    +0.000 C 
ENDROOT
BRANCH   2   3
ATOM      3  C   UNL     1      46.518   5.739  12.577  0.00  0.00    +0.000 A 
ATOM      4  C   UNL     1      46.999   5.505  13.873  0.00  0.00    +0.000 A 
ATOM      5  C   UNL     1      47.913   6.380  14.446  0.00  0.00    +0.000 A 
ATOM      6  F   UNL     1      48.359   6.144  15.688  0.00  0.00    +0.000 F 
ATOM      7  C   UNL     1      48.372   7.497  13.758  0.00  0.00    +0.000 A 
ATOM      8  C   UNL     1      47.939   7.746  12.450  0.00  0.00    +0.000 A 
ATOM      9  C   UNL     1      46.999   6.867  11.880  0.00  0.00    +0.000 A 
BRANCH   8  10
ATOM     10  N   UNL     1      48.393   8.910  11.790  0.00  0.00    +0.000 N 
ATOM     11  H   UNL     1      48.589   8.738  10.806  0.00  0.00    +0.000 HD
BRANCH  10  12
ATOM     12  C   UNL     1      47.932  10.254  12.028  0.00  0.00    +0.000 C 
ATOM     13  C   UNL     1      46.398  10.414  11.924  0.00  0.00    +0.000 C 
ATOM     14  N   UNL     1      46.606  11.633  11.105  0.00  0.00    +0.000 NA
ATOM     15  C   UNL     1      47.961  11.139  10.761  0.00  0.00    +0.000 C 
ATOM     16  H   UNL     1      46.621  12.491  11.659  0.00  0.00    +0.000 HD
ENDBRANCH  10  12
ENDBRANCH   8  10
ENDBRANCH   2   3
BRANCH   2  17
ATOM     17  C   UNL     1      44.588   5.585  10.946  0.00  0.00    +0.000 C 
BRANCH  17  18
ATOM     18  O   UNL     1      43.912   4.683  10.051  0.00  0.00    +0.000 OA
BRANCH  18  19
ATOM     19  C   UNL     1      44.797   3.976   9.257  0.00  0.00    +0.000 A 
ATOM     20  C   UNL     1      44.818   2.587   9.342  0.00  0.00    +0.000 A 
ATOM     21  N   UNL     1      45.639   1.807   8.583  0.00  0.00    +0.000 NA
ATOM     22  C   UNL     1      46.446   2.498   7.727  0.00  0.00    +0.000 A 
ATOM     23  C   UNL     1      46.429   3.882   7.648  0.00  0.00    +0.000 A 
ATOM     24  N   UNL     1      45.609   4.649   8.409  0.00  0.00    +0.000 NA
BRANCH  22  25
ATOM     25  C   UNL     1      47.368   1.738   6.841  0.00  0.00    +0.000 C 
ATOM     26  N   UNL     1      48.405   2.441   6.298  0.00  0.00    +0.000 N 
ATOM     27  O   UNL     1      47.215   0.545   6.610  0.00  0.00    +0.000 OA
ATOM     28  H   UNL     1      48.523   3.427   6.506  0.00  0.00    +0.000 HD
ATOM     29  H   UNL     1      49.066   1.963   5.700  0.00  0.00    +0.000 HD
ENDBRANCH  22  25
ENDBRANCH  18  19
ENDBRANCH  17  18
ENDBRANCH   2  17
TORSDOF 7
ENDMDL
MODEL 5
REMARK VINA RESULT:    -6.922      2.573      3.313
REMARK INTER + INTRA:         -10.587
REMARK INTER:                 -10.178
REMARK INTRA:                  -0.409
REMARK UNBOUND:                -0.833
REMARK  Name = 
REMARK  8 active torsions:
REMARK  status: ('A' for Active; 'I' for Inactive)
REMARK    1  A    between atoms: C_1  and  C_2
REMARK    2  A    between atoms: C_2  and  C_3
REMARK    3  A    between atoms: C_2  and  C_14
REMARK    4  A    between atoms: C_3  and  O_4
REMARK    5  A    between atoms: O_4  and  C_5
REMARK    6  A    between atoms: C_8  and  C_9
REMARK    7  A    between atoms: C_19  and  N_20
REMARK    8  A    between atoms: N_20  and  C_21
REMARK                            x       y       z     vdW  Elec       q    Type
REMARK                         _______ _______ _______ _____ _____    ______ ____
ROOT
ATOM      1  C   UNL     1      45.815   4.099  12.963  0.00  0.00    +0.000 C 
ATOM      2  C   UNL     1      45.392   4.938  11.750  0.00  0.00    +0.000 C 
ENDROOT
BRANCH   2   3
ATOM      3  C   UNL     1      45.490   6.431  12.057  0.00  0.00    +0.000 A 
ATOM      4  C   UNL     1      44.550   7.339  11.549  0.00  0.00    +0.000 A 
ATOM      5  C   UNL     1      44.680   8.696  11.810  0.00  0.00    +0.000 A 
ATOM      6  F   UNL     1      43.776   9.551  11.312  0.00  0.00    +0.000 F 
ATOM      7  C   UNL     1      45.732   9.186  12.575  0.00  0.00    +0.000 A 
ATOM      8  C   UNL     1      46.672   8.308  13.126  0.00  0.00    +0.000 A 
ATOM      9  C   UNL     1      46.546   6.935  12.845  0.00  0.00    +0.000 A 
BRANCH   8  10
ATOM     10  N   UNL     1      47.751   8.839  13.868  0.00  0.00    +0.000 N 
ATOM     11  H   UNL     1      47.470   9.113  14.807  0.00  0.00    +0.000 HD
BRANCH  10  12
ATOM     12  C   UNL     1      49.118   8.385  13.818  0.00  0.00    +0.000 C 
ATOM     13  C   UNL     1      49.449   7.289  14.857  0.00  0.00    +0.000 C 
ATOM     14  N   UNL     1      50.691   8.024  15.199  0.00  0.00    +0.000 NA
ATOM     15  C   UNL     1      50.079   9.260  14.656  0.00  0.00    +0.000 C 
ATOM     16  H   UNL     1      51.503   7.710  14.664  0.00  0.00    +0.000 HD
ENDBRANCH  10  12
ENDBRANCH   8  10
ENDBRANCH   2   3
BRANCH   2  17
ATOM     17  C   UNL     1      43.974   4.561  11.273  0.00  0.00    +0.000 C 
BRANCH  17  18
ATOM     18  O   UNL     1      43.836   4.754   9.853  0.00  0.00    +0.000 OA
BRANCH  18  19
ATOM     19  C   UNL     1      44.753   4.008   9.135  0.00  0.00    +0.000 A 
ATOM     20  C   UNL     1      44.802   2.631   9.330  0.00  0.00    +0.000 A 
ATOM     21  N   UNL     1      45.656   1.812   8.651  0.00  0.00    +0.000 NA
ATOM     22  C   UNL     1      46.467   2.453   7.760  0.00  0.00    +0.000 A 
ATOM     23  C   UNL     1      46.422   3.826   7.572  0.00  0.00    +0.000 A 
ATOM     24  N   UNL     1      45.569   4.631   8.253  0.00  0.00    +0.000 NA
BRANCH  22  25
ATOM     25  C   UNL     1      47.423   1.647   6.955  0.00  0.00    +0.000 C 
ATOM     26  N   UNL     1      48.504   2.314   6.450  0.00  0.00    +0.000 N 
ATOM     27  O   UNL     1      47.262   0.449   6.756  0.00  0.00    +0.000 OA
ATOM     28  H   UNL     1      48.628   3.304   6.631  0.00  0.00    +0.000 HD
ATOM     29  H   UNL     1      49.188   1.804   5.908  0.00  0.00    +0.000 HD
ENDBRANCH  22  25
ENDBRANCH  18  19
ENDBRANCH  17  18
ENDBRANCH   2  17
TORSDOF 7
ENDMDL
MODEL 6
REMARK VINA RESULT:    -6.784      2.987      8.002
REMARK INTER + INTRA:         -10.393
REMARK INTER:                 -10.079
REMARK INTRA:                  -0.315
REMARK UNBOUND:                -0.833
REMARK  Name = 
REMARK  8 active torsions:
REMARK  status: ('A' for Active; 'I' for Inactive)
REMARK    1  A    between atoms: C_1  and  C_2
REMARK    2  A    between atoms: C_2  and  C_3
REMARK    3  A    between atoms: C_2  and  C_14
REMARK    4  A    between atoms: C_3  and  O_4
REMARK    5  A    between atoms: O_4  and  C_5
REMARK    6  A    between atoms: C_8  and  C_9
REMARK    7  A    between atoms: C_19  and  N_20
REMARK    8  A    between atoms: N_20  and  C_21
REMARK                            x       y       z     vdW  Elec       q    Type
REMARK                         _______ _______ _______ _____ _____    ______ ____
ROOT
ATOM      1  C   UNL     1      46.169   8.330  13.122  0.00  0.00    +0.000 C 
ATOM      2  C   UNL     1      46.643   7.177  12.229  0.00  0.00    +0.000 C 
ENDROOT
BRANCH   2   3
ATOM      3  C   UNL     1      45.492   6.228  11.904  0.00  0.00    +0.000 A 
ATOM      4  C   UNL     1      44.644   5.745  12.911  0.00  0.00    +0.000 A 
ATOM      5  C   UNL     1      43.627   4.853  12.597  0.00  0.00    +0.000 A 
ATOM      6  F   UNL     1      42.829   4.398  13.573  0.00  0.00    +0.000 F 
ATOM      7  C   UNL     1      43.422   4.422  11.292  0.00  0.00    +0.000 A 
ATOM      8  C   UNL     1      44.228   4.906  10.255  0.00  0.00    +0.000 A 
ATOM      9  C   UNL     1      45.269   5.796  10.579  0.00  0.00    +0.000 A 
BRANCH   8  10
ATOM     10  N   UNL     1      44.021   4.420   8.944  0.00  0.00    +0.000 N 
ATOM     11  H   UNL     1      44.109   5.156   8.247  0.00  0.00    +0.000 HD
BRANCH  10  12
ATOM     12  C   UNL     1      44.439   3.137   8.441  0.00  0.00    +0.000 C 
ATOM     13  C   UNL     1      45.383   2.370   9.396  0.00  0.00    +0.000 C 
ATOM     14  N   UNL     1      46.259   2.060   8.240  0.00  0.00    +0.000 NA
ATOM     15  C   UNL     1      45.680   3.220   7.523  0.00  0.00    +0.000 C 
ATOM     16  H   UNL     1      46.039   1.166   7.799  0.00  0.00    +0.000 HD
ENDBRANCH  10  12
ENDBRANCH   8  10
ENDBRANCH   2   3
BRANCH   2  17
ATOM     17  C   UNL     1      47.824   6.418  12.871  0.00  0.00    +0.000 C 
BRANCH  17  18
ATOM     18  O   UNL     1      47.406   5.133  13.368  0.00  0.00    +0.000 OA
BRANCH  18  19
ATOM     19  C   UNL     1      47.625   5.005  14.728  0.00  0.00    +0.000 A 
ATOM     20  C   UNL     1      46.990   3.977  15.419  0.00  0.00    +0.000 A 
ATOM     21  N   UNL     1      47.163   3.758  16.753  0.00  0.00    +0.000 NA
ATOM     22  C   UNL     1      48.013   4.633  17.365  0.00  0.00    +0.000 A 
ATOM     23  C   UNL     1      48.639   5.661  16.678  0.00  0.00    +0.000 A 
ATOM     24  N   UNL     1      48.459   5.870  15.350  0.00  0.00    +0.000 NA
BRANCH  22  25
ATOM     25  C   UNL     1      48.284   4.469  18.819  0.00  0.00    +0.000 C 
ATOM     26  N   UNL     1      48.285   3.189  19.296  0.00  0.00    +0.000 N 
ATOM     27  O   UNL     1      48.502   5.425  19.554  0.00  0.00    +0.000 OA
ATOM     28  H   UNL     1      48.111   2.408  18.673  0.00  0.00    +0.000 HD
ATOM     29  H   UNL     1      48.478   3.028  20.275  0.00  0.00    +0.000 HD
ENDBRANCH  22  25
ENDBRANCH  18  19
ENDBRANCH  17  18
ENDBRANCH   2  17
TORSDOF 7
ENDMDL
MODEL 7
REMARK VINA RESULT:    -6.497      3.715      7.519
REMARK INTER + INTRA:          -9.988
REMARK INTER:                  -8.959
REMARK INTRA:                  -1.029
REMARK UNBOUND:                -0.833
REMARK  Name = 
REMARK  8 active torsions:
REMARK  status: ('A' for Active; 'I' for Inactive)
REMARK    1  A    between atoms: C_1  and  C_2
REMARK    2  A    between atoms: C_2  and  C_3
REMARK    3  A    between atoms: C_2  and  C_14
REMARK    4  A    between atoms: C_3  and  O_4
REMARK    5  A    between atoms: O_4  and  C_5
REMARK    6  A    between atoms: C_8  and  C_9
REMARK    7  A    between atoms: C_19  and  N_20
REMARK    8  A    between atoms: N_20  and  C_21
REMARK                            x       y       z     vdW  Elec       q    Type
REMARK                         _______ _______ _______ _____ _____    ______ ____
ROOT
ATOM      1  C   UNL     1      49.483   9.260  11.848  0.00  0.00    +0.000 C 
ATOM      2  C   UNL     1      48.935   7.827  11.824  0.00  0.00    +0.000 C 
ENDROOT
BRANCH   2   3
ATOM      3  C   UNL     1      47.409   7.826  11.752  0.00  0.00    +0.000 A 
ATOM      4  C   UNL     1      46.663   8.937  12.170  0.00  0.00    +0.000 A 
ATOM      5  C   UNL     1      45.276   8.899  12.131  0.00  0.00    +0.000 A 
ATOM      6  F   UNL     1      44.578   9.968  12.540  0.00  0.00    +0.000 F 
ATOM      7  C   UNL     1      44.597   7.774  11.680  0.00  0.00    +0.000 A 
ATOM      8  C   UNL     1      45.307   6.657  11.224  0.00  0.00    +0.000 A 
ATOM      9  C   UNL     1      46.713   6.692  11.282  0.00  0.00    +0.000 A 
BRANCH   8  10
ATOM     10  N   UNL     1      44.590   5.514  10.806  0.00  0.00    +0.000 N 
ATOM     11  H   UNL     1      45.072   5.012  10.064  0.00  0.00    +0.000 HD
BRANCH  10  12
ATOM     12  C   UNL     1      43.829   4.634  11.657  0.00  0.00    +0.000 C 
ATOM     13  C   UNL     1      44.663   3.981  12.784  0.00  0.00    +0.000 C 
ATOM     14  N   UNL     1      44.037   2.677  12.457  0.00  0.00    +0.000 NA
ATOM     15  C   UNL     1      43.726   3.194  11.103  0.00  0.00    +0.000 C 
ATOM     16  H   UNL     1      43.202   2.483  13.013  0.00  0.00    +0.000 HD
ENDBRANCH  10  12
ENDBRANCH   8  10
ENDBRANCH   2   3
BRANCH   2  17
ATOM     17  C   UNL     1      49.434   7.014  13.038  0.00  0.00    +0.000 C 
BRANCH  17  18
ATOM     18  O   UNL     1      48.916   7.551  14.269  0.00  0.00    +0.000 OA
BRANCH  18  19
ATOM     19  C   UNL     1      48.574   6.556  15.167  0.00  0.00    +0.000 A 
ATOM     20  C   UNL     1      47.742   5.523  14.745  0.00  0.00    +0.000 A 
ATOM     21  N   UNL     1      47.370   4.488  15.551  0.00  0.00    +0.000 NA
ATOM     22  C   UNL     1      47.879   4.545  16.816  0.00  0.00    +0.000 A 
ATOM     23  C   UNL     1      48.702   5.578  17.238  0.00  0.00    +0.000 A 
ATOM     24  N   UNL     1      49.066   6.602  16.427  0.00  0.00    +0.000 NA
BRANCH  22  25
ATOM     25  C   UNL     1      47.548   3.453  17.770  0.00  0.00    +0.000 C 
ATOM     26  N   UNL     1      48.331   3.364  18.886  0.00  0.00    +0.000 N 
ATOM     27  O   UNL     1      46.622   2.675  17.577  0.00  0.00    +0.000 OA
ATOM     28  H   UNL     1      49.089   4.021  19.037  0.00  0.00    +0.000 HD
ATOM     29  H   UNL     1      48.135   2.646  19.570  0.00  0.00    +0.000 HD
ENDBRANCH  22  25
ENDBRANCH  18  19
ENDBRANCH  17  18
ENDBRANCH   2  17
TORSDOF 7
ENDMDL
MODEL 8
REMARK VINA RESULT:    -6.365      3.504      7.971
REMARK INTER + INTRA:          -9.803
REMARK INTER:                  -9.182
REMARK INTRA:                  -0.621
REMARK UNBOUND:                -0.833
REMARK  Name = 
REMARK  8 active torsions:
REMARK  status: ('A' for Active; 'I' for Inactive)
REMARK    1  A    between atoms: C_1  and  C_2
REMARK    2  A    between atoms: C_2  and  C_3
REMARK    3  A    between atoms: C_2  and  C_14
REMARK    4  A    between atoms: C_3  and  O_4
REMARK    5  A    between atoms: O_4  and  C_5
REMARK    6  A    between atoms: C_8  and  C_9
REMARK    7  A    between atoms: C_19  and  N_20
REMARK    8  A    between atoms: N_20  and  C_21
REMARK                            x       y       z     vdW  Elec       q    Type
REMARK                         _______ _______ _______ _____ _____    ______ ____
ROOT
ATOM      1  C   UNL     1      49.444   8.545  11.820  0.00  0.00    +0.000 C 
ATOM      2  C   UNL     1      48.694   7.255  12.181  0.00  0.00    +0.000 C 
ENDROOT
BRANCH   2   3
ATOM      3  C   UNL     1      47.195   7.407  11.933  0.00  0.00    +0.000 A 
ATOM      4  C   UNL     1      46.516   8.580  12.290  0.00  0.00    +0.000 A 
ATOM      5  C   UNL     1      45.146   8.681  12.090  0.00  0.00    +0.000 A 
ATOM      6  F   UNL     1      44.512   9.808  12.442  0.00  0.00    +0.000 F 
ATOM      7  C   UNL     1      44.419   7.635  11.535  0.00  0.00    +0.000 A 
ATOM      8  C   UNL     1      45.067   6.460  11.136  0.00  0.00    +0.000 A 
ATOM      9  C   UNL     1      46.452   6.355  11.356  0.00  0.00    +0.000 A 
BRANCH   8  10
ATOM     10  N   UNL     1      44.296   5.399  10.609  0.00  0.00    +0.000 N 
ATOM     11  H   UNL     1      44.758   4.946   9.824  0.00  0.00    +0.000 HD
BRANCH  10  12
ATOM     12  C   UNL     1      43.484   4.483  11.369  0.00  0.00    +0.000 C 
ATOM     13  C   UNL     1      44.075   4.128  12.753  0.00  0.00    +0.000 C 
ATOM     14  N   UNL     1      43.778   2.700  12.486  0.00  0.00    +0.000 NA
ATOM     15  C   UNL     1      43.767   3.000  11.034  0.00  0.00    +0.000 C 
ATOM     16  H   UNL     1      42.866   2.407  12.840  0.00  0.00    +0.000 HD
ENDBRANCH  10  12
ENDBRANCH   8  10
ENDBRANCH   2   3
BRANCH   2  17
ATOM     17  C   UNL     1      48.976   6.830  13.637  0.00  0.00    +0.000 C 
BRANCH  17  18
ATOM     18  O   UNL     1      48.121   5.743  14.035  0.00  0.00    +0.000 OA
BRANCH  18  19
ATOM     19  C   UNL     1      48.234   5.459  15.384  0.00  0.00    +0.000 A 
ATOM     20  C   UNL     1      47.369   4.527  15.951  0.00  0.00    +0.000 A 
ATOM     21  N   UNL     1      47.421   4.165  17.265  0.00  0.00    +0.000 NA
ATOM     22  C   UNL     1      48.393   4.794  17.988  0.00  0.00    +0.000 A 
ATOM     23  C   UNL     1      49.249   5.728  17.423  0.00  0.00    +0.000 A 
ATOM     24  N   UNL     1      49.188   6.080  16.115  0.00  0.00    +0.000 NA
BRANCH  22  25
ATOM     25  C   UNL     1      48.545   4.457  19.428  0.00  0.00    +0.000 C 
ATOM     26  N   UNL     1      48.450   3.134  19.755  0.00  0.00    +0.000 N 
ATOM     27  O   UNL     1      48.750   5.312  20.281  0.00  0.00    +0.000 OA
ATOM     28  H   UNL     1      48.288   2.437  19.037  0.00  0.00    +0.000 HD
ATOM     29  H   UNL     1      48.561   2.855  20.721  0.00  0.00    +0.000 HD
ENDBRANCH  22  25
ENDBRANCH  18  19
ENDBRANCH  17  18
ENDBRANCH   2  17
TORSDOF 7
ENDMDL
MODEL 9
REMARK VINA RESULT:    -6.254      4.192      6.972
REMARK INTER + INTRA:          -9.647
REMARK INTER:                  -8.715
REMARK INTRA:                  -0.932
REMARK UNBOUND:                -0.833
REMARK  Name = 
REMARK  8 active torsions:
REMARK  status: ('A' for Active; 'I' for Inactive)
REMARK    1  A    between atoms: C_1  and  C_2
REMARK    2  A    between atoms: C_2  and  C_3
REMARK    3  A    between atoms: C_2  and  C_14
REMARK    4  A    between atoms: C_3  and  O_4
REMARK    5  A    between atoms: O_4  and  C_5
REMARK    6  A    between atoms: C_8  and  C_9
REMARK    7  A    between atoms: C_19  and  N_20
REMARK    8  A    between atoms: N_20  and  C_21
REMARK                            x       y       z     vdW  Elec       q    Type
REMARK                         _______ _______ _______ _____ _____    ______ ____
ROOT
ATOM      1  C   UNL     1      48.779   8.286  14.663  0.00  0.00    +0.000 C 
ATOM      2  C   UNL     1      49.207   8.213  13.191  0.00  0.00    +0.000 C 
ENDROOT
BRANCH   2   3
ATOM      3  C   UNL     1      48.561   9.333  12.378  0.00  0.00    +0.000 A 
ATOM      4  C   UNL     1      49.277  10.008  11.379  0.00  0.00    +0.000 A 
ATOM      5  C   UNL     1      48.681  11.048  10.678  0.00  0.00    +0.000 A 
ATOM      6  F   UNL     1      49.381  11.687   9.730  0.00  0.00    +0.000 F 
ATOM      7  C   UNL     1      47.375  11.442  10.942  0.00  0.00    +0.000 A 
ATOM      8  C   UNL     1      46.619  10.771  11.910  0.00  0.00    +0.000 A 
ATOM      9  C   UNL     1      47.231   9.729  12.630  0.00  0.00    +0.000 A 
BRANCH   8  10
ATOM     10  N   UNL     1      45.306  11.218  12.183  0.00  0.00    +0.000 N 
ATOM     11  H   UNL     1      45.250  12.234  12.221  0.00  0.00    +0.000 HD
BRANCH  10  12
ATOM     12  C   UNL     1      44.089  10.621  11.695  0.00  0.00    +0.000 C 
ATOM     13  C   UNL     1      44.295   9.240  11.031  0.00  0.00    +0.000 C 
ATOM     14  N   UNL     1      43.424   9.675   9.913  0.00  0.00    +0.000 NA
ATOM     15  C   UNL     1      43.716  11.084  10.267  0.00  0.00    +0.000 C 
ATOM     16  H   UNL     1      42.443   9.424  10.047  0.00  0.00    +0.000 HD
ENDBRANCH  10  12
ENDBRANCH   8  10
ENDBRANCH   2   3
BRANCH   2  17
ATOM     17  C   UNL     1      48.891   6.831  12.582  0.00  0.00    +0.000 C 
BRANCH  17  18
ATOM     18  O   UNL     1      48.191   5.997  13.524  0.00  0.00    +0.000 OA
BRANCH  18  19
ATOM     19  C   UNL     1      46.968   5.574  13.036  0.00  0.00    +0.000 A 
ATOM     20  C   UNL     1      46.218   4.672  13.786  0.00  0.00    +0.000 A 
ATOM     21  N   UNL     1      44.993   4.218  13.397  0.00  0.00    +0.000 NA
ATOM     22  C   UNL     1      44.556   4.716  12.204  0.00  0.00    +0.000 A 
ATOM     23  C   UNL     1      45.307   5.608  11.454  0.00  0.00    +0.000 A 
ATOM     24  N   UNL     1      46.525   6.054  11.851  0.00  0.00    +0.000 NA
BRANCH  22  25
ATOM     25  C   UNL     1      43.222   4.296  11.699  0.00  0.00    +0.000 C 
ATOM     26  N   UNL     1      42.219   5.220  11.789  0.00  0.00    +0.000 N 
ATOM     27  O   UNL     1      43.024   3.185  11.220  0.00  0.00    +0.000 OA
ATOM     28  H   UNL     1      42.400   6.138  12.180  0.00  0.00    +0.000 HD
ATOM     29  H   UNL     1      41.298   4.984  11.445  0.00  0.00    +0.000 HD
ENDBRANCH  22  25
ENDBRANCH  18  19
ENDBRANCH  17  18
ENDBRANCH   2  17
TORSDOF 7
ENDMDL
