MODEL 1
REMARK VINA RESULT:    -8.712      0.000      0.000
REMARK INTER + INTRA:         -11.931
REMARK INTER:                 -11.259
REMARK INTRA:                  -0.672
REMARK UNBOUND:                -0.672
REMARK  Name = 
REMARK  5 active torsions:
REMARK  status: ('A' for Active; 'I' for Inactive)
REMARK    1  A    between atoms: C_2  and  C_18
REMARK    2  A    between atoms: N_3  and  C_4
REMARK    3  A    between atoms: C_4  and  C_5
REMARK    4  A    between atoms: C_8  and  C_9
REMARK    5  A    between atoms: C_9  and  C_10
REMARK                            x       y       z     vdW  Elec       q    Type
REMARK                         _______ _______ _______ _____ _____    ______ ____
ROOT
ATOM      1  O   UNL     1      48.893   6.673  13.169  0.00  0.00    +0.000 OA
ATOM      2  C   UNL     1      48.126   6.603  14.127  0.00  0.00    +0.000 C 
ATOM      3  N   UNL     1      46.785   6.859  14.019  0.00  0.00    +0.000 N 
ATOM      4  H   UNL     1      46.222   6.944  14.859  0.00  0.00    +0.000 HD
ENDROOT
BRANCH   2   5
ATOM      5  C   UNL     1      48.598   6.193  15.453  0.00  0.00    +0.000 A 
ATOM      6  C   UNL     1      49.500   6.989  16.145  0.00  0.00    +0.000 A 
ATOM      7  S   UNL     1      49.895   6.382  17.691  0.00  0.00    +0.000 S 
ATOM      8  C   UNL     1      48.850   5.053  17.496  0.00  0.00    +0.000 A 
ATOM      9  N   UNL     1      48.669   4.149  18.496  0.00  0.00    +0.000 NA
ATOM     10  C   UNL     1      47.814   3.220  18.226  0.00  0.00    +0.000 A 
ATOM     11  N   UNL     1      47.143   3.094  17.039  0.00  0.00    +0.000 N 
ATOM     12  C   UNL     1      47.370   3.926  15.971  0.00  0.00    +0.000 A 
ATOM     13  O   UNL     1      46.891   3.678  14.866  0.00  0.00    +0.000 OA
ATOM     14  C   UNL     1      48.251   5.039  16.250  0.00  0.00    +0.000 A 
ATOM     15  H   UNL     1      46.528   2.308  16.873  0.00  0.00    +0.000 HD
ENDBRANCH   2   5
BRANCH   3  16
ATOM     16  C   UNL     1      46.178   7.325  12.800  0.00  0.00    +0.000 C 
BRANCH  16  17
ATOM     17  C   UNL     1      45.717   6.189  11.926  0.00  0.00    +0.000 A 
ATOM     18  C   UNL     1      45.913   6.243  10.540  0.00  0.00    +0.000 A 
ATOM     19  C   UNL     1      45.548   5.168   9.727  0.00  0.00    +0.000 A 
ATOM     20  C   UNL     1      44.983   4.012  10.283  0.00  0.00    +0.000 A 
ATOM     21  C   UNL     1      44.752   3.973  11.664  0.00  0.00    +0.000 A 
ATOM     22  C   UNL     1      45.100   5.057  12.475  0.00  0.00    +0.000 A 
BRANCH  20  23
ATOM     23  C   UNL     1      44.627   2.827   9.412  0.00  0.00    +0.000 C 
BRANCH  23  24
ATOM     24  C   UNL     1      45.630   2.471   8.334  0.00  0.00    +0.000 A 
ATOM     25  C   UNL     1      45.863   3.326   7.258  0.00  0.00    +0.000 A 
ATOM     26  C   UNL     1      46.686   2.903   6.217  0.00  0.00    +0.000 A 
ATOM     27  C   UNL     1      47.263   1.642   6.275  0.00  0.00    +0.000 A 
ATOM     28  C   UNL     1      47.002   0.860   7.386  0.00  0.00    +0.000 A 
ATOM     29  N   UNL     1      46.202   1.240   8.407  0.00  0.00    +0.000 NA
ENDBRANCH  23  24
ENDBRANCH  20  23
ENDBRANCH  16  17
ENDBRANCH   3  16
TORSDOF 5
ENDMDL
MODEL 2
REMARK VINA RESULT:    -8.334      0.794      1.430
REMARK INTER + INTRA:         -11.442
REMARK INTER:                 -10.663
REMARK INTRA:                  -0.779
REMARK UNBOUND:                -0.672
REMARK  Name = 
REMARK  5 active torsions:
REMARK  status: ('A' for Active; 'I' for Inactive)
REMARK    1  A    between atoms: C_2  and  C_18
REMARK    2  A    between atoms: N_3  and  C_4
REMARK    3  A    between atoms: C_4  and  C_5
REMARK    4  A    between atoms: C_8  and  C_9
REMARK    5  A    between atoms: C_9  and  C_10
REMARK                            x       y       z     vdW  Elec       q    Type
REMARK                         _______ _______ _______ _____ _____    ______ ____
ROOT
ATOM      1  O   UNL     1      49.470   6.891  13.769  0.00  0.00    +0.000 OA
ATOM      2  C   UNL     1      48.595   6.708  14.613  0.00  0.00    +0.000 C 
ATOM      3  N   UNL     1      47.268   6.943  14.363  0.00  0.00    +0.000 N 
ATOM      4  H   UNL     1      46.605   6.932  15.129  0.00  0.00    +0.000 HD
ENDROOT
BRANCH   2   5
ATOM      5  C   UNL     1      48.915   6.180  15.942  0.00  0.00    +0.000 A 
ATOM      6  C   UNL     1      49.741   6.900  16.794  0.00  0.00    +0.000 A 
ATOM      7  S   UNL     1      49.959   6.158  18.316  0.00  0.00    +0.000 S 
ATOM      8  C   UNL     1      48.932   4.868  17.895  0.00  0.00    +0.000 A 
ATOM      9  N   UNL     1      48.636   3.886  18.789  0.00  0.00    +0.000 NA
ATOM     10  C   UNL     1      47.810   2.997  18.348  0.00  0.00    +0.000 A 
ATOM     11  N   UNL     1      47.272   2.983  17.089  0.00  0.00    +0.000 N 
ATOM     12  C   UNL     1      47.621   3.898  16.127  0.00  0.00    +0.000 A 
ATOM     13  O   UNL     1      47.265   3.752  14.959  0.00  0.00    +0.000 OA
ATOM     14  C   UNL     1      48.475   4.969  16.594  0.00  0.00    +0.000 A 
ATOM     15  H   UNL     1      46.673   2.224  16.790  0.00  0.00    +0.000 HD
ENDBRANCH   2   5
BRANCH   3  16
ATOM     16  C   UNL     1      46.800   7.513  13.127  0.00  0.00    +0.000 C 
BRANCH  16  17
ATOM     17  C   UNL     1      46.223   6.472  12.204  0.00  0.00    +0.000 A 
ATOM     18  C   UNL     1      45.431   5.438  12.719  0.00  0.00    +0.000 A 
ATOM     19  C   UNL     1      44.839   4.504  11.866  0.00  0.00    +0.000 A 
ATOM     20  C   UNL     1      45.021   4.587  10.479  0.00  0.00    +0.000 A 
ATOM     21  C   UNL     1      45.844   5.598   9.967  0.00  0.00    +0.000 A 
ATOM     22  C   UNL     1      46.454   6.521  10.823  0.00  0.00    +0.000 A 
BRANCH  20  23
ATOM     23  C   UNL     1      44.345   3.604   9.548  0.00  0.00    +0.000 C 
BRANCH  23  24
ATOM     24  C   UNL     1      45.231   2.972   8.494  0.00  0.00    +0.000 A 
ATOM     25  C   UNL     1      45.699   1.666   8.637  0.00  0.00    +0.000 A 
ATOM     26  C   UNL     1      46.622   1.169   7.721  0.00  0.00    +0.000 A 
ATOM     27  C   UNL     1      47.051   1.980   6.679  0.00  0.00    +0.000 A 
ATOM     28  C   UNL     1      46.525   3.256   6.590  0.00  0.00    +0.000 A 
ATOM     29  N   UNL     1      45.634   3.769   7.469  0.00  0.00    +0.000 NA
ENDBRANCH  23  24
ENDBRANCH  20  23
ENDBRANCH  16  17
ENDBRANCH   3  16
TORSDOF 5
ENDMDL
MODEL 3
REMARK VINA RESULT:    -7.628      1.949      3.469
REMARK INTER + INTRA:         -10.529
REMARK INTER:                  -9.617
REMARK INTRA:                  -0.912
REMARK UNBOUND:                -0.672
REMARK  Name = 
REMARK  5 active torsions:
REMARK  status: ('A' for Active; 'I' for Inactive)
REMARK    1  A    between atoms: C_2  and  C_18
REMARK    2  A    between atoms: N_3  and  C_4
REMARK    3  A    between atoms: C_4  and  C_5
REMARK    4  A    between atoms: C_8  and  C_9
REMARK    5  A    between atoms: C_9  and  C_10
REMARK                            x       y       z     vdW  Elec       q    Type
REMARK                         _______ _______ _______ _____ _____    ______ ____
ROOT
ATOM      1  O   UNL     1      47.416   4.077  14.612  0.00  0.00    +0.000 OA
ATOM      2  C   UNL     1      47.308   5.282  14.390  0.00  0.00    +0.000 C 
ATOM      3  N   UNL     1      46.143   5.848  13.944  0.00  0.00    +0.000 N 
ATOM      4  H   UNL     1      46.145   6.811  13.624  0.00  0.00    +0.000 HD
ENDROOT
BRANCH   2   5
ATOM      5  C   UNL     1      48.420   6.205  14.635  0.00  0.00    +0.000 A 
ATOM      6  C   UNL     1      48.960   6.320  15.907  0.00  0.00    +0.000 A 
ATOM      7  S   UNL     1      50.280   7.399  15.990  0.00  0.00    +0.000 S 
ATOM      8  C   UNL     1      50.190   7.723  14.322  0.00  0.00    +0.000 A 
ATOM      9  N   UNL     1      51.091   8.544  13.717  0.00  0.00    +0.000 NA
ATOM     10  C   UNL     1      50.930   8.661  12.441  0.00  0.00    +0.000 A 
ATOM     11  N   UNL     1      49.937   8.057  11.717  0.00  0.00    +0.000 N 
ATOM     12  C   UNL     1      48.951   7.302  12.304  0.00  0.00    +0.000 A 
ATOM     13  O   UNL     1      47.975   6.927  11.657  0.00  0.00    +0.000 OA
ATOM     14  C   UNL     1      49.135   7.063  13.719  0.00  0.00    +0.000 A 
ATOM     15  H   UNL     1      49.835   8.238  10.727  0.00  0.00    +0.000 HD
ENDBRANCH   2   5
BRANCH   3  16
ATOM     16  C   UNL     1      44.981   5.070  13.604  0.00  0.00    +0.000 C 
BRANCH  16  17
ATOM     17  C   UNL     1      44.967   4.676  12.151  0.00  0.00    +0.000 A 
ATOM     18  C   UNL     1      44.913   3.324  11.789  0.00  0.00    +0.000 A 
ATOM     19  C   UNL     1      44.835   2.949  10.446  0.00  0.00    +0.000 A 
ATOM     20  C   UNL     1      44.803   3.919   9.435  0.00  0.00    +0.000 A 
ATOM     21  C   UNL     1      44.896   5.270   9.795  0.00  0.00    +0.000 A 
ATOM     22  C   UNL     1      44.994   5.644  11.138  0.00  0.00    +0.000 A 
BRANCH  20  23
ATOM     23  C   UNL     1      44.674   3.520   7.981  0.00  0.00    +0.000 C 
BRANCH  23  24
ATOM     24  C   UNL     1      45.918   2.939   7.340  0.00  0.00    +0.000 A 
ATOM     25  C   UNL     1      46.455   3.495   6.180  0.00  0.00    +0.000 A 
ATOM     26  C   UNL     1      47.513   2.851   5.543  0.00  0.00    +0.000 A 
ATOM     27  C   UNL     1      48.015   1.674   6.079  0.00  0.00    +0.000 A 
ATOM     28  C   UNL     1      47.445   1.196   7.245  0.00  0.00    +0.000 A 
ATOM     29  N   UNL     1      46.412   1.794   7.882  0.00  0.00    +0.000 NA
ENDBRANCH  23  24
ENDBRANCH  20  23
ENDBRANCH  16  17
ENDBRANCH   3  16
TORSDOF 5
ENDMDL
MODEL 4
REMARK VINA RESULT:    -7.625      2.554      4.207
REMARK INTER + INTRA:         -10.526
REMARK INTER:                  -9.579
REMARK INTRA:                  -0.947
REMARK UNBOUND:                -0.672
REMARK  Name = 
REMARK  5 active torsions:
REMARK  status: ('A' for Active; 'I' for Inactive)
REMARK    1  A    between atoms: C_2  and  C_18
REMARK    2  A    between atoms: N_3  and  C_4
REMARK    3  A    between atoms: C_4  and  C_5
REMARK    4  A    between atoms: C_8  and  C_9
REMARK    5  A    between atoms: C_9  and  C_10
REMARK                            x       y       z     vdW  Elec       q    Type
REMARK                         _______ _______ _______ _____ _____    ______ ____
ROOT
ATOM      1  O   UNL     1      49.037   6.153  15.316  0.00  0.00    +0.000 OA
ATOM      2  C   UNL     1      48.359   6.968  14.693  0.00  0.00    +0.000 C 
ATOM      3  N   UNL     1      47.152   6.647  14.130  0.00  0.00    +0.000 N 
ATOM      4  H   UNL     1      46.706   7.301  13.495  0.00  0.00    +0.000 HD
ENDROOT
BRANCH   2   5
ATOM      5  C   UNL     1      48.786   8.363  14.550  0.00  0.00    +0.000 A 
ATOM      6  C   UNL     1      48.838   9.190  15.662  0.00  0.00    +0.000 A 
ATOM      7  S   UNL     1      49.409  10.761  15.314  0.00  0.00    +0.000 S 
ATOM      8  C   UNL     1      49.631  10.375  13.671  0.00  0.00    +0.000 A 
ATOM      9  N   UNL     1      50.159  11.280  12.803  0.00  0.00    +0.000 NA
ATOM     10  C   UNL     1      50.313  10.835  11.600  0.00  0.00    +0.000 A 
ATOM     11  N   UNL     1      49.964   9.580  11.178  0.00  0.00    +0.000 N 
ATOM     12  C   UNL     1      49.339   8.673  11.997  0.00  0.00    +0.000 A 
ATOM     13  O   UNL     1      48.875   7.628  11.543  0.00  0.00    +0.000 OA
ATOM     14  C   UNL     1      49.224   9.086  13.379  0.00  0.00    +0.000 A 
ATOM     15  H   UNL     1      50.060   9.316  10.206  0.00  0.00    +0.000 HD
ENDBRANCH   2   5
BRANCH   3  16
ATOM     16  C   UNL     1      46.623   5.308  14.136  0.00  0.00    +0.000 C 
BRANCH  16  17
ATOM     17  C   UNL     1      46.057   4.916  12.797  0.00  0.00    +0.000 A 
ATOM     18  C   UNL     1      46.085   5.822  11.729  0.00  0.00    +0.000 A 
ATOM     19  C   UNL     1      45.622   5.447  10.466  0.00  0.00    +0.000 A 
ATOM     20  C   UNL     1      45.127   4.155  10.241  0.00  0.00    +0.000 A 
ATOM     21  C   UNL     1      45.063   3.262  11.318  0.00  0.00    +0.000 A 
ATOM     22  C   UNL     1      45.508   3.644  12.588  0.00  0.00    +0.000 A 
BRANCH  20  23
ATOM     23  C   UNL     1      44.666   3.731   8.865  0.00  0.00    +0.000 C 
BRANCH  23  24
ATOM     24  C   UNL     1      45.685   2.991   8.022  0.00  0.00    +0.000 A 
ATOM     25  C   UNL     1      46.195   3.553   6.853  0.00  0.00    +0.000 A 
ATOM     26  C   UNL     1      47.022   2.788   6.033  0.00  0.00    +0.000 A 
ATOM     27  C   UNL     1      47.327   1.486   6.402  0.00  0.00    +0.000 A 
ATOM     28  C   UNL     1      46.802   1.006   7.588  0.00  0.00    +0.000 A 
ATOM     29  N   UNL     1      45.990   1.721   8.399  0.00  0.00    +0.000 NA
ENDBRANCH  23  24
ENDBRANCH  20  23
ENDBRANCH  16  17
ENDBRANCH   3  16
TORSDOF 5
ENDMDL
MODEL 5
REMARK VINA RESULT:    -7.570      2.118      2.929
REMARK INTER + INTRA:         -10.455
REMARK INTER:                  -9.760
REMARK INTRA:                  -0.695
REMARK UNBOUND:                -0.672
REMARK  Name = 
REMARK  5 active torsions:
REMARK  status: ('A' for Active; 'I' for Inactive)
REMARK    1  A    between atoms: C_2  and  C_18
REMARK    2  A    between atoms: N_3  and  C_4
REMARK    3  A    between atoms: C_4  and  C_5
REMARK    4  A    between atoms: C_8  and  C_9
REMARK    5  A    between atoms: C_9  and  C_10
REMARK                            x       y       z     vdW  Elec       q    Type
REMARK                         _______ _______ _______ _____ _____    ______ ____
ROOT
ATOM      1  O   UNL     1      47.465   4.823  14.195  0.00  0.00    +0.000 OA
ATOM      2  C   UNL     1      47.490   6.007  13.865  0.00  0.00    +0.000 C 
ATOM      3  N   UNL     1      46.375   6.678  13.437  0.00  0.00    +0.000 N 
ATOM      4  H   UNL     1      46.473   7.601  13.026  0.00  0.00    +0.000 HD
ENDROOT
BRANCH   2   5
ATOM      5  C   UNL     1      48.723   6.796  13.952  0.00  0.00    +0.000 A 
ATOM      6  C   UNL     1      49.186   7.484  12.840  0.00  0.00    +0.000 A 
ATOM      7  S   UNL     1      50.601   8.389  13.142  0.00  0.00    +0.000 S 
ATOM      8  C   UNL     1      50.622   7.913  14.776  0.00  0.00    +0.000 A 
ATOM      9  N   UNL     1      51.566   8.388  15.633  0.00  0.00    +0.000 NA
ATOM     10  C   UNL     1      51.432   7.979  16.851  0.00  0.00    +0.000 A 
ATOM     11  N   UNL     1      50.460   7.118  17.286  0.00  0.00    +0.000 N 
ATOM     12  C   UNL     1      49.552   6.539  16.435  0.00  0.00    +0.000 A 
ATOM     13  O   UNL     1      48.814   5.634  16.821  0.00  0.00    +0.000 OA
ATOM     14  C   UNL     1      49.599   7.032  15.075  0.00  0.00    +0.000 A 
ATOM     15  H   UNL     1      50.448   6.793  18.244  0.00  0.00    +0.000 HD
ENDBRANCH   2   5
BRANCH   3  16
ATOM     16  C   UNL     1      45.104   6.030  13.245  0.00  0.00    +0.000 C 
BRANCH  16  17
ATOM     17  C   UNL     1      45.025   5.318  11.921  0.00  0.00    +0.000 A 
ATOM     18  C   UNL     1      44.258   4.154  11.793  0.00  0.00    +0.000 A 
ATOM     19  C   UNL     1      44.126   3.521  10.555  0.00  0.00    +0.000 A 
ATOM     20  C   UNL     1      44.754   4.043   9.416  0.00  0.00    +0.000 A 
ATOM     21  C   UNL     1      45.553   5.185   9.551  0.00  0.00    +0.000 A 
ATOM     22  C   UNL     1      45.701   5.807  10.795  0.00  0.00    +0.000 A 
BRANCH  20  23
ATOM     23  C   UNL     1      44.578   3.386   8.064  0.00  0.00    +0.000 C 
BRANCH  23  24
ATOM     24  C   UNL     1      45.839   2.851   7.417  0.00  0.00    +0.000 A 
ATOM     25  C   UNL     1      46.367   3.446   6.271  0.00  0.00    +0.000 A 
ATOM     26  C   UNL     1      47.445   2.844   5.626  0.00  0.00    +0.000 A 
ATOM     27  C   UNL     1      47.975   1.669   6.140  0.00  0.00    +0.000 A 
ATOM     28  C   UNL     1      47.411   1.151   7.293  0.00  0.00    +0.000 A 
ATOM     29  N   UNL     1      46.361   1.709   7.936  0.00  0.00    +0.000 NA
ENDBRANCH  23  24
ENDBRANCH  20  23
ENDBRANCH  16  17
ENDBRANCH   3  16
TORSDOF 5
ENDMDL
MODEL 6
REMARK VINA RESULT:    -7.360      2.987      4.191
REMARK INTER + INTRA:         -10.183
REMARK INTER:                  -9.499
REMARK INTRA:                  -0.684
REMARK UNBOUND:                -0.672
REMARK  Name = 
REMARK  5 active torsions:
REMARK  status: ('A' for Active; 'I' for Inactive)
REMARK    1  A    between atoms: C_2  and  C_18
REMARK    2  A    between atoms: N_3  and  C_4
REMARK    3  A    between atoms: C_4  and  C_5
REMARK    4  A    between atoms: C_8  and  C_9
REMARK    5  A    between atoms: C_9  and  C_10
REMARK                            x       y       z     vdW  Elec       q    Type
REMARK                         _______ _______ _______ _____ _____    ______ ____
ROOT
ATOM      1  O   UNL     1      48.098   5.675  13.527  0.00  0.00    +0.000 OA
ATOM      2  C   UNL     1      47.797   6.830  13.234  0.00  0.00    +0.000 C 
ATOM      3  N   UNL     1      46.500   7.268  13.193  0.00  0.00    +0.000 N 
ATOM      4  H   UNL     1      46.291   8.177  12.794  0.00  0.00    +0.000 HD
ENDROOT
BRANCH   2   5
ATOM      5  C   UNL     1      48.825   7.836  12.949  0.00  0.00    +0.000 A 
ATOM      6  C   UNL     1      49.664   7.680  11.855  0.00  0.00    +0.000 A 
ATOM      7  S   UNL     1      50.759   8.973  11.649  0.00  0.00    +0.000 S 
ATOM      8  C   UNL     1      50.127   9.796  12.997  0.00  0.00    +0.000 A 
ATOM      9  N   UNL     1      50.590  11.025  13.351  0.00  0.00    +0.000 NA
ATOM     10  C   UNL     1      49.987  11.549  14.365  0.00  0.00    +0.000 A 
ATOM     11  N   UNL     1      48.983  10.949  15.076  0.00  0.00    +0.000 N 
ATOM     12  C   UNL     1      48.555   9.671  14.814  0.00  0.00    +0.000 A 
ATOM     13  O   UNL     1      47.785   9.094  15.580  0.00  0.00    +0.000 OA
ATOM     14  C   UNL     1      49.134   9.071  13.630  0.00  0.00    +0.000 A 
ATOM     15  H   UNL     1      48.592  11.393  15.897  0.00  0.00    +0.000 HD
ENDBRANCH   2   5
BRANCH   3  16
ATOM     16  C   UNL     1      45.377   6.389  13.393  0.00  0.00    +0.000 C 
BRANCH  16  17
ATOM     17  C   UNL     1      45.238   5.385  12.280  0.00  0.00    +0.000 A 
ATOM     18  C   UNL     1      45.035   4.031  12.576  0.00  0.00    +0.000 A 
ATOM     19  C   UNL     1      44.840   3.101  11.553  0.00  0.00    +0.000 A 
ATOM     20  C   UNL     1      44.838   3.505  10.211  0.00  0.00    +0.000 A 
ATOM     21  C   UNL     1      45.079   4.852   9.913  0.00  0.00    +0.000 A 
ATOM     22  C   UNL     1      45.294   5.780  10.937  0.00  0.00    +0.000 A 
BRANCH  20  23
ATOM     23  C   UNL     1      44.583   2.509   9.101  0.00  0.00    +0.000 C 
BRANCH  23  24
ATOM     24  C   UNL     1      45.698   2.343   8.089  0.00  0.00    +0.000 A 
ATOM     25  C   UNL     1      45.897   3.282   7.077  0.00  0.00    +0.000 A 
ATOM     26  C   UNL     1      46.840   3.025   6.085  0.00  0.00    +0.000 A 
ATOM     27  C   UNL     1      47.568   1.844   6.128  0.00  0.00    +0.000 A 
ATOM     28  C   UNL     1      47.331   0.972   7.176  0.00  0.00    +0.000 A 
ATOM     29  N   UNL     1      46.417   1.190   8.148  0.00  0.00    +0.000 NA
ENDBRANCH  23  24
ENDBRANCH  20  23
ENDBRANCH  16  17
ENDBRANCH   3  16
TORSDOF 5
ENDMDL
MODEL 7
REMARK VINA RESULT:    -7.155      1.586      2.210
REMARK INTER + INTRA:          -9.919
REMARK INTER:                  -8.954
REMARK INTRA:                  -0.965
REMARK UNBOUND:                -0.672
REMARK  Name = 
REMARK  5 active torsions:
REMARK  status: ('A' for Active; 'I' for Inactive)
REMARK    1  A    between atoms: C_2  and  C_18
REMARK    2  A    between atoms: N_3  and  C_4
REMARK    3  A    between atoms: C_4  and  C_5
REMARK    4  A    between atoms: C_8  and  C_9
REMARK    5  A    between atoms: C_9  and  C_10
REMARK                            x       y       z     vdW  Elec       q    Type
REMARK                         _______ _______ _______ _____ _____    ______ ____
ROOT
ATOM      1  O   UNL     1      50.024   7.617  14.801  0.00  0.00    +0.000 OA
ATOM      2  C   UNL     1      49.047   7.786  15.528  0.00  0.00    +0.000 C 
ATOM      3  N   UNL     1      47.838   8.219  15.051  0.00  0.00    +0.000 N 
ATOM      4  H   UNL     1      47.112   8.496  15.703  0.00  0.00    +0.000 HD
ENDROOT
BRANCH   2   5
ATOM      5  C   UNL     1      49.105   7.492  16.963  0.00  0.00    +0.000 A 
ATOM      6  C   UNL     1      49.363   8.509  17.870  0.00  0.00    +0.000 A 
ATOM      7  S   UNL     1      49.338   7.991  19.496  0.00  0.00    +0.000 S 
ATOM      8  C   UNL     1      48.952   6.397  19.040  0.00  0.00    +0.000 A 
ATOM      9  N   UNL     1      48.731   5.433  19.974  0.00  0.00    +0.000 NA
ATOM     10  C   UNL     1      48.403   4.284  19.485  0.00  0.00    +0.000 A 
ATOM     11  N   UNL     1      48.301   4.001  18.149  0.00  0.00    +0.000 N 
ATOM     12  C   UNL     1      48.612   4.917  17.175  0.00  0.00    +0.000 A 
ATOM     13  O   UNL     1      48.689   4.580  15.995  0.00  0.00    +0.000 OA
ATOM     14  C   UNL     1      48.899   6.248  17.666  0.00  0.00    +0.000 A 
ATOM     15  H   UNL     1      48.095   3.062  17.834  0.00  0.00    +0.000 HD
ENDBRANCH   2   5
BRANCH   3  16
ATOM     16  C   UNL     1      47.636   8.603  13.678  0.00  0.00    +0.000 C 
BRANCH  16  17
ATOM     17  C   UNL     1      46.707   7.662  12.957  0.00  0.00    +0.000 A 
ATOM     18  C   UNL     1      45.573   8.158  12.302  0.00  0.00    +0.000 A 
ATOM     19  C   UNL     1      44.740   7.304  11.576  0.00  0.00    +0.000 A 
ATOM     20  C   UNL     1      45.026   5.935  11.485  0.00  0.00    +0.000 A 
ATOM     21  C   UNL     1      46.138   5.432  12.172  0.00  0.00    +0.000 A 
ATOM     22  C   UNL     1      46.961   6.285  12.915  0.00  0.00    +0.000 A 
BRANCH  20  23
ATOM     23  C   UNL     1      44.151   5.013  10.664  0.00  0.00    +0.000 C 
BRANCH  23  24
ATOM     24  C   UNL     1      44.876   4.089   9.707  0.00  0.00    +0.000 A 
ATOM     25  C   UNL     1      45.605   4.595   8.632  0.00  0.00    +0.000 A 
ATOM     26  C   UNL     1      46.140   3.713   7.696  0.00  0.00    +0.000 A 
ATOM     27  C   UNL     1      45.943   2.349   7.857  0.00  0.00    +0.000 A 
ATOM     28  C   UNL     1      45.229   1.921   8.962  0.00  0.00    +0.000 A 
ATOM     29  N   UNL     1      44.691   2.753   9.882  0.00  0.00    +0.000 NA
ENDBRANCH  23  24
ENDBRANCH  20  23
ENDBRANCH  16  17
ENDBRANCH   3  16
TORSDOF 5
ENDMDL
MODEL 8
REMARK VINA RESULT:    -7.122      3.333      8.105
REMARK INTER + INTRA:          -9.876
REMARK INTER:                  -8.965
REMARK INTRA:                  -0.911
REMARK UNBOUND:                -0.672
REMARK  Name = 
REMARK  5 active torsions:
REMARK  status: ('A' for Active; 'I' for Inactive)
REMARK    1  A    between atoms: C_2  and  C_18
REMARK    2  A    between atoms: N_3  and  C_4
REMARK    3  A    between atoms: C_4  and  C_5
REMARK    4  A    between atoms: C_8  and  C_9
REMARK    5  A    between atoms: C_9  and  C_10
REMARK                            x       y       z     vdW  Elec       q    Type
REMARK                         _______ _______ _______ _____ _____    ______ ____
ROOT
ATOM      1  O   UNL     1      45.799   7.882  11.920  0.00  0.00    +0.000 OA
ATOM      2  C   UNL     1      46.335   6.789  11.747  0.00  0.00    +0.000 C 
ATOM      3  N   UNL     1      47.556   6.472  12.281  0.00  0.00    +0.000 N 
ATOM      4  H   UNL     1      48.029   5.626  11.982  0.00  0.00    +0.000 HD
ENDROOT
BRANCH   2   5
ATOM      5  C   UNL     1      45.672   5.728  10.982  0.00  0.00    +0.000 A 
ATOM      6  C   UNL     1      45.873   5.631   9.613  0.00  0.00    +0.000 A 
ATOM      7  S   UNL     1      45.066   4.305   8.901  0.00  0.00    +0.000 S 
ATOM      8  C   UNL     1      44.448   3.804  10.405  0.00  0.00    +0.000 A 
ATOM      9  N   UNL     1      43.700   2.672  10.515  0.00  0.00    +0.000 NA
ATOM     10  C   UNL     1      43.338   2.389  11.721  0.00  0.00    +0.000 A 
ATOM     11  N   UNL     1      43.629   3.146  12.825  0.00  0.00    +0.000 N 
ATOM     12  C   UNL     1      44.294   4.344  12.744  0.00  0.00    +0.000 A 
ATOM     13  O   UNL     1      44.379   5.085  13.721  0.00  0.00    +0.000 OA
ATOM     14  C   UNL     1      44.803   4.664  11.427  0.00  0.00    +0.000 A 
ATOM     15  H   UNL     1      43.264   2.895  13.735  0.00  0.00    +0.000 HD
ENDBRANCH   2   5
BRANCH   3  16
ATOM     16  C   UNL     1      48.356   7.423  13.008  0.00  0.00    +0.000 C 
BRANCH  16  17
ATOM     17  C   UNL     1      48.795   6.889  14.345  0.00  0.00    +0.000 A 
ATOM     18  C   UNL     1      47.995   5.967  15.031  0.00  0.00    +0.000 A 
ATOM     19  C   UNL     1      48.422   5.416  16.241  0.00  0.00    +0.000 A 
ATOM     20  C   UNL     1      49.663   5.772  16.790  0.00  0.00    +0.000 A 
ATOM     21  C   UNL     1      50.445   6.723  16.123  0.00  0.00    +0.000 A 
ATOM     22  C   UNL     1      50.008   7.289  14.922  0.00  0.00    +0.000 A 
BRANCH  20  23
ATOM     23  C   UNL     1      50.149   5.145  18.078  0.00  0.00    +0.000 C 
BRANCH  23  24
ATOM     24  C   UNL     1      51.029   3.920  17.928  0.00  0.00    +0.000 A 
ATOM     25  C   UNL     1      50.536   2.745  17.361  0.00  0.00    +0.000 A 
ATOM     26  C   UNL     1      51.329   1.600  17.369  0.00  0.00    +0.000 A 
ATOM     27  C   UNL     1      52.596   1.654  17.933  0.00  0.00    +0.000 A 
ATOM     28  C   UNL     1      53.024   2.861  18.455  0.00  0.00    +0.000 A 
ATOM     29  N   UNL     1      52.274   3.987  18.470  0.00  0.00    +0.000 NA
ENDBRANCH  23  24
ENDBRANCH  20  23
ENDBRANCH  16  17
ENDBRANCH   3  16
TORSDOF 5
ENDMDL
MODEL 9
REMARK VINA RESULT:    -7.059      3.839      9.515
REMARK INTER + INTRA:          -9.795
REMARK INTER:                  -9.049
REMARK INTRA:                  -0.746
REMARK UNBOUND:                -0.672
REMARK  Name = 
REMARK  5 active torsions:
REMARK  status: ('A' for Active; 'I' for Inactive)
REMARK    1  A    between atoms: C_2  and  C_18
REMARK    2  A    between atoms: N_3  and  C_4
REMARK    3  A    between atoms: C_4  and  C_5
REMARK    4  A    between atoms: C_8  and  C_9
REMARK    5  A    between atoms: C_9  and  C_10
REMARK                            x       y       z     vdW  Elec       q    Type
REMARK                         _______ _______ _______ _____ _____    ______ ____
ROOT
ATOM      1  O   UNL     1      47.304   3.143  14.018  0.00  0.00    +0.000 OA
ATOM      2  C   UNL     1      46.883   4.182  14.522  0.00  0.00    +0.000 C 
ATOM      3  N   UNL     1      46.873   4.395  15.875  0.00  0.00    +0.000 N 
ATOM      4  H   UNL     1      46.374   5.194  16.253  0.00  0.00    +0.000 HD
ENDROOT
BRANCH   2   5
ATOM      5  C   UNL     1      46.398   5.290  13.692  0.00  0.00    +0.000 A 
ATOM      6  C   UNL     1      47.194   6.409  13.496  0.00  0.00    +0.000 A 
ATOM      7  S   UNL     1      46.490   7.570  12.461  0.00  0.00    +0.000 S 
ATOM      8  C   UNL     1      45.114   6.599  12.219  0.00  0.00    +0.000 A 
ATOM      9  N   UNL     1      44.120   6.988  11.375  0.00  0.00    +0.000 NA
ATOM     10  C   UNL     1      43.160   6.133  11.253  0.00  0.00    +0.000 A 
ATOM     11  N   UNL     1      43.087   4.937  11.917  0.00  0.00    +0.000 N 
ATOM     12  C   UNL     1      44.018   4.553  12.851  0.00  0.00    +0.000 A 
ATOM     13  O   UNL     1      43.830   3.567  13.560  0.00  0.00    +0.000 OA
ATOM     14  C   UNL     1      45.162   5.433  12.960  0.00  0.00    +0.000 A 
ATOM     15  H   UNL     1      42.277   4.339  11.819  0.00  0.00    +0.000 HD
ENDBRANCH   2   5
BRANCH   3  16
ATOM     16  C   UNL     1      47.263   3.385  16.823  0.00  0.00    +0.000 C 
BRANCH  16  17
ATOM     17  C   UNL     1      48.727   3.467  17.168  0.00  0.00    +0.000 A 
ATOM     18  C   UNL     1      49.535   2.326  17.082  0.00  0.00    +0.000 A 
ATOM     19  C   UNL     1      50.905   2.404  17.337  0.00  0.00    +0.000 A 
ATOM     20  C   UNL     1      51.500   3.626  17.679  0.00  0.00    +0.000 A 
ATOM     21  C   UNL     1      50.686   4.759  17.803  0.00  0.00    +0.000 A 
ATOM     22  C   UNL     1      49.310   4.677  17.567  0.00  0.00    +0.000 A 
BRANCH  20  23
ATOM     23  C   UNL     1      52.991   3.724  17.914  0.00  0.00    +0.000 C 
BRANCH  23  24
ATOM     24  C   UNL     1      53.418   4.162  19.300  0.00  0.00    +0.000 A 
ATOM     25  C   UNL     1      53.651   3.228  20.309  0.00  0.00    +0.000 A 
ATOM     26  C   UNL     1      53.904   3.673  21.604  0.00  0.00    +0.000 A 
ATOM     27  C   UNL     1      53.927   5.036  21.862  0.00  0.00    +0.000 A 
ATOM     28  C   UNL     1      53.709   5.902  20.805  0.00  0.00    +0.000 A 
ATOM     29  N   UNL     1      53.453   5.499  19.540  0.00  0.00    +0.000 NA
ENDBRANCH  23  24
ENDBRANCH  20  23
ENDBRANCH  16  17
ENDBRANCH   3  16
TORSDOF 5
ENDMDL
