MODEL 1
REMARK VINA RESULT:    -7.207      0.000      0.000
REMARK INTER + INTRA:         -12.298
REMARK INTER:                 -10.999
REMARK INTRA:                  -1.299
REMARK UNBOUND:                -1.299
REMARK  Name = 
REMARK  12 active torsions:
REMARK  status: ('A' for Active; 'I' for Inactive)
REMARK    1  A    between atoms: C_1  and  O_2
REMARK    2  A    between atoms: O_2  and  C_3
REMARK    3  A    between atoms: C_8  and  C_9
REMARK    4  A    between atoms: C_9  and  C_10
REMARK    5  A    between atoms: C_10  and  C_11
REMARK    6  A    between atoms: C_11  and  C_12
REMARK    7  A    between atoms: C_15  and  C_16
REMARK    8  A    between atoms: C_16  and  N_17
REMARK    9  A    between atoms: N_17  and  C_18
REMARK   10  A    between atoms: C_19  and  C_21
REMARK   11  A    between atoms: C_28  and  O_29
REMARK   12  A    between atoms: O_29  and  C_30
REMARK                            x       y       z     vdW  Elec       q    Type
REMARK                         _______ _______ _______ _____ _____    ______ ____
ROOT
ATOM      1  C   UNL     1      45.245   4.397  12.205  0.00  0.00    +0.000 A 
ATOM      2  C   UNL     1      45.450   5.699  11.734  0.00  0.00    +0.000 A 
ATOM      3  C   UNL     1      46.495   6.476  12.232  0.00  0.00    +0.000 A 
ATOM      4  C   UNL     1      47.345   5.984  13.237  0.00  0.00    +0.000 A 
ATOM      5  C   UNL     1      47.091   4.714  13.762  0.00  0.00    +0.000 A 
ATOM      6  C   UNL     1      46.056   3.924  13.247  0.00  0.00    +0.000 A 
ENDROOT
BRANCH   1   7
ATOM      7  C   UNL     1      44.215   3.503  11.547  0.00  0.00    +0.000 C 
BRANCH   7   8
ATOM      8  C   UNL     1      44.195   3.625  10.010  0.00  0.00    +0.000 C 
BRANCH   8   9
ATOM      9  C   UNL     1      44.619   2.324   9.320  0.00  0.00    +0.000 C 
BRANCH   9  15
ATOM     10  C   UNL     1      46.486   1.430   7.818  0.00  0.00    +0.000 A 
ATOM     11  C   UNL     1      47.542   1.678   6.932  0.00  0.00    +0.000 A 
ATOM     12  C   UNL     1      47.816   2.977   6.496  0.00  0.00    +0.000 A 
ATOM     13  C   UNL     1      47.024   4.036   6.923  0.00  0.00    +0.000 A 
ATOM     14  C   UNL     1      45.968   3.800   7.803  0.00  0.00    +0.000 A 
ATOM     15  C   UNL     1      45.701   2.503   8.276  0.00  0.00    +0.000 A 
BRANCH  10  17
ATOM     16  C   UNL     1      46.662  -0.927   7.557  0.00  0.00    +0.000 C 
ATOM     17  O   UNL     1      46.140   0.184   8.274  0.00  0.00    +0.000 OA
ENDBRANCH  10  17
ENDBRANCH   9  15
ENDBRANCH   8   9
ENDBRANCH   7   8
ENDBRANCH   1   7
BRANCH   4  18
ATOM     18  C   UNL     1      48.557   6.786  13.667  0.00  0.00    +0.000 C 
BRANCH  18  19
ATOM     19  N   UNL     1      48.479   7.492  14.946  0.00  0.00    +0.000 N 
ATOM     20  C   UNL     1      47.953   8.851  14.967  0.00  0.00    +0.000 C 
ATOM     21  C   UNL     1      49.217   6.924  16.008  0.00  0.00    +0.000 C 
ATOM     22  O   UNL     1      49.841   5.875  15.843  0.00  0.00    +0.000 OA
BRANCH  21  23
ATOM     23  C   UNL     1      49.196   7.573  17.327  0.00  0.00    +0.000 A 
ATOM     24  C   UNL     1      49.758   8.804  17.645  0.00  0.00    +0.000 A 
ATOM     25  N   UNL     1      49.503   9.081  18.959  0.00  0.00    +0.000 N 
ATOM     26  C   UNL     1      48.703   8.112  19.487  0.00  0.00    +0.000 A 
ATOM     27  N   UNL     1      48.221   8.155  20.742  0.00  0.00    +0.000 NA
ATOM     28  C   UNL     1      47.457   7.087  21.046  0.00  0.00    +0.000 A 
ATOM     29  C   UNL     1      47.187   6.016  20.206  0.00  0.00    +0.000 A 
ATOM     30  C   UNL     1      47.725   6.017  18.911  0.00  0.00    +0.000 A 
ATOM     31  C   UNL     1      48.506   7.130  18.518  0.00  0.00    +0.000 A 
ATOM     32  H   UNL     1      49.810   9.891  19.477  0.00  0.00    +0.000 HD
BRANCH  30  33
ATOM     33  O   UNL     1      47.589   4.963  18.047  0.00  0.00    +0.000 OA
ATOM     34  C   UNL     1      48.297   3.781  18.409  0.00  0.00    +0.000 C 
ENDBRANCH  30  33
ENDBRANCH  21  23
ENDBRANCH  18  19
ENDBRANCH   4  18
TORSDOF 9
ENDMDL
MODEL 2
REMARK VINA RESULT:    -6.934      2.289      3.257
REMARK INTER + INTRA:         -11.881
REMARK INTER:                 -10.629
REMARK INTRA:                  -1.253
REMARK UNBOUND:                -1.299
REMARK  Name = 
REMARK  12 active torsions:
REMARK  status: ('A' for Active; 'I' for Inactive)
REMARK    1  A    between atoms: C_1  and  O_2
REMARK    2  A    between atoms: O_2  and  C_3
REMARK    3  A    between atoms: C_8  and  C_9
REMARK    4  A    between atoms: C_9  and  C_10
REMARK    5  A    between atoms: C_10  and  C_11
REMARK    6  A    between atoms: C_11  and  C_12
REMARK    7  A    between atoms: C_15  and  C_16
REMARK    8  A    between atoms: C_16  and  N_17
REMARK    9  A    between atoms: N_17  and  C_18
REMARK   10  A    between atoms: C_19  and  C_21
REMARK   11  A    between atoms: C_28  and  O_29
REMARK   12  A    between atoms: O_29  and  C_30
REMARK                            x       y       z     vdW  Elec       q    Type
REMARK                         _______ _______ _______ _____ _____    ______ ____
ROOT
ATOM      1  C   UNL     1      44.520   4.964  12.049  0.00  0.00    +0.000 A 
ATOM      2  C   UNL     1      44.289   6.228  11.495  0.00  0.00    +0.000 A 
ATOM      3  C   UNL     1      45.064   7.322  11.879  0.00  0.00    +0.000 A 
ATOM      4  C   UNL     1      46.068   7.189  12.852  0.00  0.00    +0.000 A 
ATOM      5  C   UNL     1      46.245   5.944  13.462  0.00  0.00    +0.000 A 
ATOM      6  C   UNL     1      45.484   4.839  13.061  0.00  0.00    +0.000 A 
ENDROOT
BRANCH   1   7
ATOM      7  C   UNL     1      43.789   3.752  11.511  0.00  0.00    +0.000 C 
BRANCH   7   8
ATOM      8  C   UNL     1      44.719   2.742  10.810  0.00  0.00    +0.000 C 
BRANCH   8   9
ATOM      9  C   UNL     1      44.357   2.548   9.333  0.00  0.00    +0.000 C 
BRANCH   9  15
ATOM     10  C   UNL     1      46.143   3.389   7.707  0.00  0.00    +0.000 A 
ATOM     11  C   UNL     1      47.176   3.112   6.804  0.00  0.00    +0.000 A 
ATOM     12  C   UNL     1      47.628   1.802   6.619  0.00  0.00    +0.000 A 
ATOM     13  C   UNL     1      47.068   0.763   7.352  0.00  0.00    +0.000 A 
ATOM     14  C   UNL     1      46.040   1.028   8.256  0.00  0.00    +0.000 A 
ATOM     15  C   UNL     1      45.552   2.336   8.428  0.00  0.00    +0.000 A 
BRANCH  10  17
ATOM     16  C   UNL     1      46.381   5.431   8.903  0.00  0.00    +0.000 C 
ATOM     17  O   UNL     1      45.658   4.647   7.962  0.00  0.00    +0.000 OA
ENDBRANCH  10  17
ENDBRANCH   9  15
ENDBRANCH   8   9
ENDBRANCH   7   8
ENDBRANCH   1   7
BRANCH   4  18
ATOM     18  C   UNL     1      46.990   8.353  13.158  0.00  0.00    +0.000 C 
BRANCH  18  19
ATOM     19  N   UNL     1      48.404   8.053  13.383  0.00  0.00    +0.000 N 
ATOM     20  C   UNL     1      49.128   7.287  12.377  0.00  0.00    +0.000 C 
ATOM     21  C   UNL     1      48.872   8.249  14.701  0.00  0.00    +0.000 C 
ATOM     22  O   UNL     1      48.118   8.687  15.571  0.00  0.00    +0.000 OA
BRANCH  21  23
ATOM     23  C   UNL     1      50.280   7.967  15.014  0.00  0.00    +0.000 A 
ATOM     24  C   UNL     1      51.374   8.739  14.641  0.00  0.00    +0.000 A 
ATOM     25  N   UNL     1      52.510   8.170  15.144  0.00  0.00    +0.000 N 
ATOM     26  C   UNL     1      52.183   7.099  15.921  0.00  0.00    +0.000 A 
ATOM     27  N   UNL     1      53.089   6.385  16.613  0.00  0.00    +0.000 NA
ATOM     28  C   UNL     1      52.537   5.370  17.307  0.00  0.00    +0.000 A 
ATOM     29  C   UNL     1      51.190   5.034  17.320  0.00  0.00    +0.000 A 
ATOM     30  C   UNL     1      50.291   5.806  16.571  0.00  0.00    +0.000 A 
ATOM     31  C   UNL     1      50.805   6.910  15.850  0.00  0.00    +0.000 A 
ATOM     32  H   UNL     1      53.457   8.493  15.013  0.00  0.00    +0.000 HD
BRANCH  30  33
ATOM     33  O   UNL     1      48.962   5.495  16.451  0.00  0.00    +0.000 OA
ATOM     34  C   UNL     1      48.202   5.593  17.652  0.00  0.00    +0.000 C 
ENDBRANCH  30  33
ENDBRANCH  21  23
ENDBRANCH  18  19
ENDBRANCH   4  18
TORSDOF 9
ENDMDL
MODEL 3
REMARK VINA RESULT:    -6.910      3.091      4.637
REMARK INTER + INTRA:         -11.845
REMARK INTER:                 -10.467
REMARK INTRA:                  -1.377
REMARK UNBOUND:                -1.299
REMARK  Name = 
REMARK  12 active torsions:
REMARK  status: ('A' for Active; 'I' for Inactive)
REMARK    1  A    between atoms: C_1  and  O_2
REMARK    2  A    between atoms: O_2  and  C_3
REMARK    3  A    between atoms: C_8  and  C_9
REMARK    4  A    between atoms: C_9  and  C_10
REMARK    5  A    between atoms: C_10  and  C_11
REMARK    6  A    between atoms: C_11  and  C_12
REMARK    7  A    between atoms: C_15  and  C_16
REMARK    8  A    between atoms: C_16  and  N_17
REMARK    9  A    between atoms: N_17  and  C_18
REMARK   10  A    between atoms: C_19  and  C_21
REMARK   11  A    between atoms: C_28  and  O_29
REMARK   12  A    between atoms: O_29  and  C_30
REMARK                            x       y       z     vdW  Elec       q    Type
REMARK                         _______ _______ _______ _____ _____    ______ ____
ROOT
ATOM      1  C   UNL     1      47.295   7.404  13.423  0.00  0.00    +0.000 A 
ATOM      2  C   UNL     1      47.679   6.251  14.116  0.00  0.00    +0.000 A 
ATOM      3  C   UNL     1      48.447   6.344  15.276  0.00  0.00    +0.000 A 
ATOM      4  C   UNL     1      48.879   7.592  15.756  0.00  0.00    +0.000 A 
ATOM      5  C   UNL     1      48.562   8.736  15.020  0.00  0.00    +0.000 A 
ATOM      6  C   UNL     1      47.771   8.646  13.868  0.00  0.00    +0.000 A 
ENDROOT
BRANCH   1   7
ATOM      7  C   UNL     1      46.328   7.307  12.262  0.00  0.00    +0.000 C 
BRANCH   7   8
ATOM      8  C   UNL     1      45.858   5.865  11.979  0.00  0.00    +0.000 C 
BRANCH   8   9
ATOM      9  C   UNL     1      44.731   5.816  10.941  0.00  0.00    +0.000 C 
BRANCH   9  15
ATOM     10  C   UNL     1      44.191   3.507   9.985  0.00  0.00    +0.000 A 
ATOM     11  C   UNL     1      44.464   2.492   9.059  0.00  0.00    +0.000 A 
ATOM     12  C   UNL     1      45.419   2.681   8.057  0.00  0.00    +0.000 A 
ATOM     13  C   UNL     1      46.093   3.892   7.958  0.00  0.00    +0.000 A 
ATOM     14  C   UNL     1      45.828   4.910   8.873  0.00  0.00    +0.000 A 
ATOM     15  C   UNL     1      44.893   4.722   9.907  0.00  0.00    +0.000 A 
BRANCH  10  17
ATOM     16  C   UNL     1      43.604   2.616  12.111  0.00  0.00    +0.000 C 
ATOM     17  O   UNL     1      43.254   3.408  10.982  0.00  0.00    +0.000 OA
ENDBRANCH  10  17
ENDBRANCH   9  15
ENDBRANCH   8   9
ENDBRANCH   7   8
ENDBRANCH   1   7
BRANCH   4  18
ATOM     18  C   UNL     1      49.595   7.686  17.090  0.00  0.00    +0.000 C 
BRANCH  18  19
ATOM     19  N   UNL     1      50.732   6.792  17.310  0.00  0.00    +0.000 N 
ATOM     20  C   UNL     1      51.784   6.734  16.305  0.00  0.00    +0.000 C 
ATOM     21  C   UNL     1      50.561   5.818  18.319  0.00  0.00    +0.000 C 
ATOM     22  O   UNL     1      49.524   5.782  18.982  0.00  0.00    +0.000 OA
BRANCH  21  23
ATOM     23  C   UNL     1      51.654   4.877  18.602  0.00  0.00    +0.000 A 
ATOM     24  C   UNL     1      52.755   5.119  19.416  0.00  0.00    +0.000 A 
ATOM     25  N   UNL     1      53.532   3.995  19.455  0.00  0.00    +0.000 N 
ATOM     26  C   UNL     1      52.919   2.988  18.770  0.00  0.00    +0.000 A 
ATOM     27  N   UNL     1      53.409   1.737  18.701  0.00  0.00    +0.000 NA
ATOM     28  C   UNL     1      52.638   0.912  17.965  0.00  0.00    +0.000 A 
ATOM     29  C   UNL     1      51.470   1.267  17.304  0.00  0.00    +0.000 A 
ATOM     30  C   UNL     1      51.011   2.589  17.401  0.00  0.00    +0.000 A 
ATOM     31  C   UNL     1      51.757   3.495  18.192  0.00  0.00    +0.000 A 
ATOM     32  H   UNL     1      54.407   3.881  19.944  0.00  0.00    +0.000 HD
BRANCH  30  33
ATOM     33  O   UNL     1      49.922   3.051  16.711  0.00  0.00    +0.000 OA
ATOM     34  C   UNL     1      48.657   2.754  17.297  0.00  0.00    +0.000 C 
ENDBRANCH  30  33
ENDBRANCH  21  23
ENDBRANCH  18  19
ENDBRANCH   4  18
TORSDOF 9
ENDMDL
MODEL 4
REMARK VINA RESULT:    -6.603      1.689      2.657
REMARK INTER + INTRA:         -11.376
REMARK INTER:                 -10.185
REMARK INTRA:                  -1.191
REMARK UNBOUND:                -1.299
REMARK  Name = 
REMARK  12 active torsions:
REMARK  status: ('A' for Active; 'I' for Inactive)
REMARK    1  A    between atoms: C_1  and  O_2
REMARK    2  A    between atoms: O_2  and  C_3
REMARK    3  A    between atoms: C_8  and  C_9
REMARK    4  A    between atoms: C_9  and  C_10
REMARK    5  A    between atoms: C_10  and  C_11
REMARK    6  A    between atoms: C_11  and  C_12
REMARK    7  A    between atoms: C_15  and  C_16
REMARK    8  A    between atoms: C_16  and  N_17
REMARK    9  A    between atoms: N_17  and  C_18
REMARK   10  A    between atoms: C_19  and  C_21
REMARK   11  A    between atoms: C_28  and  O_29
REMARK   12  A    between atoms: O_29  and  C_30
REMARK                            x       y       z     vdW  Elec       q    Type
REMARK                         _______ _______ _______ _____ _____    ______ ____
ROOT
ATOM      1  C   UNL     1      45.169   4.743  12.306  0.00  0.00    +0.000 A 
ATOM      2  C   UNL     1      45.382   6.124  12.234  0.00  0.00    +0.000 A 
ATOM      3  C   UNL     1      46.469   6.708  12.883  0.00  0.00    +0.000 A 
ATOM      4  C   UNL     1      47.353   5.932  13.651  0.00  0.00    +0.000 A 
ATOM      5  C   UNL     1      47.094   4.566  13.788  0.00  0.00    +0.000 A 
ATOM      6  C   UNL     1      46.017   3.974  13.117  0.00  0.00    +0.000 A 
ENDROOT
BRANCH   1   7
ATOM      7  C   UNL     1      44.087   4.095  11.468  0.00  0.00    +0.000 C 
BRANCH   7   8
ATOM      8  C   UNL     1      44.542   2.785  10.793  0.00  0.00    +0.000 C 
BRANCH   8   9
ATOM      9  C   UNL     1      44.273   2.786   9.284  0.00  0.00    +0.000 C 
BRANCH   9  15
ATOM     10  C   UNL     1      46.167   3.400   7.679  0.00  0.00    +0.000 A 
ATOM     11  C   UNL     1      47.210   2.997   6.837  0.00  0.00    +0.000 A 
ATOM     12  C   UNL     1      47.580   1.652   6.755  0.00  0.00    +0.000 A 
ATOM     13  C   UNL     1      46.926   0.702   7.531  0.00  0.00    +0.000 A 
ATOM     14  C   UNL     1      45.887   1.093   8.375  0.00  0.00    +0.000 A 
ATOM     15  C   UNL     1      45.482   2.438   8.442  0.00  0.00    +0.000 A 
BRANCH  10  17
ATOM     16  C   UNL     1      46.348   5.433   8.900  0.00  0.00    +0.000 C 
ATOM     17  O   UNL     1      45.759   4.700   7.832  0.00  0.00    +0.000 OA
ENDBRANCH  10  17
ENDBRANCH   9  15
ENDBRANCH   8   9
ENDBRANCH   7   8
ENDBRANCH   1   7
BRANCH   4  18
ATOM     18  C   UNL     1      48.603   6.559  14.236  0.00  0.00    +0.000 C 
BRANCH  18  19
ATOM     19  N   UNL     1      48.533   7.043  15.615  0.00  0.00    +0.000 N 
ATOM     20  C   UNL     1      48.446   8.478  15.851  0.00  0.00    +0.000 C 
ATOM     21  C   UNL     1      48.881   6.107  16.614  0.00  0.00    +0.000 C 
ATOM     22  O   UNL     1      49.177   4.951  16.309  0.00  0.00    +0.000 OA
BRANCH  21  23
ATOM     23  C   UNL     1      48.840   6.513  18.026  0.00  0.00    +0.000 A 
ATOM     24  C   UNL     1      47.742   6.427  18.874  0.00  0.00    +0.000 A 
ATOM     25  N   UNL     1      48.104   6.872  20.114  0.00  0.00    +0.000 N 
ATOM     26  C   UNL     1      49.437   7.153  20.131  0.00  0.00    +0.000 A 
ATOM     27  N   UNL     1      50.097   7.537  21.238  0.00  0.00    +0.000 NA
ATOM     28  C   UNL     1      51.407   7.765  21.015  0.00  0.00    +0.000 A 
ATOM     29  C   UNL     1      52.053   7.660  19.791  0.00  0.00    +0.000 A 
ATOM     30  C   UNL     1      51.313   7.267  18.666  0.00  0.00    +0.000 A 
ATOM     31  C   UNL     1      49.940   6.975  18.843  0.00  0.00    +0.000 A 
ATOM     32  H   UNL     1      47.510   6.950  20.926  0.00  0.00    +0.000 HD
BRANCH  30  33
ATOM     33  O   UNL     1      51.844   7.224  17.404  0.00  0.00    +0.000 OA
ATOM     34  C   UNL     1      52.508   6.010  17.063  0.00  0.00    +0.000 C 
ENDBRANCH  30  33
ENDBRANCH  21  23
ENDBRANCH  18  19
ENDBRANCH   4  18
TORSDOF 9
ENDMDL
MODEL 5
REMARK VINA RESULT:    -6.595      2.281      4.295
REMARK INTER + INTRA:         -11.364
REMARK INTER:                  -9.538
REMARK INTRA:                  -1.826
REMARK UNBOUND:                -1.299
REMARK  Name = 
REMARK  12 active torsions:
REMARK  status: ('A' for Active; 'I' for Inactive)
REMARK    1  A    between atoms: C_1  and  O_2
REMARK    2  A    between atoms: O_2  and  C_3
REMARK    3  A    between atoms: C_8  and  C_9
REMARK    4  A    between atoms: C_9  and  C_10
REMARK    5  A    between atoms: C_10  and  C_11
REMARK    6  A    between atoms: C_11  and  C_12
REMARK    7  A    between atoms: C_15  and  C_16
REMARK    8  A    between atoms: C_16  and  N_17
REMARK    9  A    between atoms: N_17  and  C_18
REMARK   10  A    between atoms: C_19  and  C_21
REMARK   11  A    between atoms: C_28  and  O_29
REMARK   12  A    between atoms: O_29  and  C_30
REMARK                            x       y       z     vdW  Elec       q    Type
REMARK                         _______ _______ _______ _____ _____    ______ ____
ROOT
ATOM      1  C   UNL     1      47.409   6.178  13.335  0.00  0.00    +0.000 A 
ATOM      2  C   UNL     1      48.256   6.935  14.152  0.00  0.00    +0.000 A 
ATOM      3  C   UNL     1      48.658   6.453  15.396  0.00  0.00    +0.000 A 
ATOM      4  C   UNL     1      48.197   5.215  15.873  0.00  0.00    +0.000 A 
ATOM      5  C   UNL     1      47.288   4.495  15.092  0.00  0.00    +0.000 A 
ATOM      6  C   UNL     1      46.902   4.968  13.832  0.00  0.00    +0.000 A 
ENDROOT
BRANCH   1   7
ATOM      7  C   UNL     1      47.109   6.631  11.922  0.00  0.00    +0.000 C 
BRANCH   7   8
ATOM      8  C   UNL     1      45.806   7.446  11.806  0.00  0.00    +0.000 C 
BRANCH   8   9
ATOM      9  C   UNL     1      44.803   6.803  10.841  0.00  0.00    +0.000 C 
BRANCH   9  15
ATOM     10  C   UNL     1      44.603   4.304  10.337  0.00  0.00    +0.000 A 
ATOM     11  C   UNL     1      44.121   3.038  10.693  0.00  0.00    +0.000 A 
ATOM     12  C   UNL     1      43.461   2.843  11.909  0.00  0.00    +0.000 A 
ATOM     13  C   UNL     1      43.297   3.906  12.789  0.00  0.00    +0.000 A 
ATOM     14  C   UNL     1      43.774   5.170  12.446  0.00  0.00    +0.000 A 
ATOM     15  C   UNL     1      44.411   5.388  11.212  0.00  0.00    +0.000 A 
BRANCH  10  17
ATOM     16  C   UNL     1      45.006   3.722   8.067  0.00  0.00    +0.000 C 
ATOM     17  O   UNL     1      45.279   4.572   9.175  0.00  0.00    +0.000 OA
ENDBRANCH  10  17
ENDBRANCH   9  15
ENDBRANCH   8   9
ENDBRANCH   7   8
ENDBRANCH   1   7
BRANCH   4  18
ATOM     18  C   UNL     1      48.749   4.644  17.164  0.00  0.00    +0.000 C 
BRANCH  18  19
ATOM     19  N   UNL     1      48.767   5.520  18.336  0.00  0.00    +0.000 N 
ATOM     20  C   UNL     1      50.046   5.827  18.964  0.00  0.00    +0.000 C 
ATOM     21  C   UNL     1      47.519   5.738  18.960  0.00  0.00    +0.000 C 
ATOM     22  O   UNL     1      46.494   5.240  18.494  0.00  0.00    +0.000 OA
BRANCH  21  23
ATOM     23  C   UNL     1      47.449   6.603  20.146  0.00  0.00    +0.000 A 
ATOM     24  C   UNL     1      47.362   6.180  21.468  0.00  0.00    +0.000 A 
ATOM     25  N   UNL     1      47.350   7.276  22.284  0.00  0.00    +0.000 N 
ATOM     26  C   UNL     1      47.528   8.405  21.541  0.00  0.00    +0.000 A 
ATOM     27  N   UNL     1      47.638   9.633  22.080  0.00  0.00    +0.000 NA
ATOM     28  C   UNL     1      47.804  10.598  21.153  0.00  0.00    +0.000 A 
ATOM     29  C   UNL     1      47.836  10.407  19.779  0.00  0.00    +0.000 A 
ATOM     30  C   UNL     1      47.704   9.106  19.271  0.00  0.00    +0.000 A 
ATOM     31  C   UNL     1      47.565   8.043  20.196  0.00  0.00    +0.000 A 
ATOM     32  H   UNL     1      47.267   7.280  23.290  0.00  0.00    +0.000 HD
BRANCH  30  33
ATOM     33  O   UNL     1      47.632   8.833  17.931  0.00  0.00    +0.000 OA
ATOM     34  C   UNL     1      48.161   9.841  17.074  0.00  0.00    +0.000 C 
ENDBRANCH  30  33
ENDBRANCH  21  23
ENDBRANCH  18  19
ENDBRANCH   4  18
TORSDOF 9
ENDMDL
MODEL 6
REMARK VINA RESULT:    -6.513      4.044      8.441
REMARK INTER + INTRA:         -11.239
REMARK INTER:                  -9.179
REMARK INTRA:                  -2.059
REMARK UNBOUND:                -1.299
REMARK  Name = 
REMARK  12 active torsions:
REMARK  status: ('A' for Active; 'I' for Inactive)
REMARK    1  A    between atoms: C_1  and  O_2
REMARK    2  A    between atoms: O_2  and  C_3
REMARK    3  A    between atoms: C_8  and  C_9
REMARK    4  A    between atoms: C_9  and  C_10
REMARK    5  A    between atoms: C_10  and  C_11
REMARK    6  A    between atoms: C_11  and  C_12
REMARK    7  A    between atoms: C_15  and  C_16
REMARK    8  A    between atoms: C_16  and  N_17
REMARK    9  A    between atoms: N_17  and  C_18
REMARK   10  A    between atoms: C_19  and  C_21
REMARK   11  A    between atoms: C_28  and  O_29
REMARK   12  A    between atoms: O_29  and  C_30
REMARK                            x       y       z     vdW  Elec       q    Type
REMARK                         _______ _______ _______ _____ _____    ______ ____
ROOT
ATOM      1  C   UNL     1      50.995   6.878  16.053  0.00  0.00    +0.000 A 
ATOM      2  C   UNL     1      51.597   7.637  15.044  0.00  0.00    +0.000 A 
ATOM      3  C   UNL     1      50.828   8.200  14.026  0.00  0.00    +0.000 A 
ATOM      4  C   UNL     1      49.440   7.992  13.971  0.00  0.00    +0.000 A 
ATOM      5  C   UNL     1      48.850   7.168  14.935  0.00  0.00    +0.000 A 
ATOM      6  C   UNL     1      49.618   6.622  15.971  0.00  0.00    +0.000 A 
ENDROOT
BRANCH   1   7
ATOM      7  C   UNL     1      51.808   6.410  17.241  0.00  0.00    +0.000 C 
BRANCH   7   8
ATOM      8  C   UNL     1      51.019   6.428  18.566  0.00  0.00    +0.000 C 
BRANCH   8   9
ATOM      9  C   UNL     1      50.871   5.028  19.172  0.00  0.00    +0.000 C 
BRANCH   9  15
ATOM     10  C   UNL     1      50.189   3.067  17.679  0.00  0.00    +0.000 A 
ATOM     11  C   UNL     1      49.191   2.373  16.983  0.00  0.00    +0.000 A 
ATOM     12  C   UNL     1      47.851   2.755  17.088  0.00  0.00    +0.000 A 
ATOM     13  C   UNL     1      47.495   3.820  17.908  0.00  0.00    +0.000 A 
ATOM     14  C   UNL     1      48.479   4.516  18.607  0.00  0.00    +0.000 A 
ATOM     15  C   UNL     1      49.835   4.164  18.484  0.00  0.00    +0.000 A 
BRANCH  10  17
ATOM     16  C   UNL     1      51.837   1.369  17.440  0.00  0.00    +0.000 C 
ATOM     17  O   UNL     1      51.520   2.741  17.645  0.00  0.00    +0.000 OA
ENDBRANCH  10  17
ENDBRANCH   9  15
ENDBRANCH   8   9
ENDBRANCH   7   8
ENDBRANCH   1   7
BRANCH   4  18
ATOM     18  C   UNL     1      48.602   8.721  12.940  0.00  0.00    +0.000 C 
BRANCH  18  19
ATOM     19  N   UNL     1      47.500   7.983  12.321  0.00  0.00    +0.000 N 
ATOM     20  C   UNL     1      47.776   7.158  11.152  0.00  0.00    +0.000 C 
ATOM     21  C   UNL     1      46.201   8.380  12.707  0.00  0.00    +0.000 C 
ATOM     22  O   UNL     1      46.044   9.267  13.547  0.00  0.00    +0.000 OA
BRANCH  21  23
ATOM     23  C   UNL     1      45.037   7.692  12.130  0.00  0.00    +0.000 A 
ATOM     24  C   UNL     1      44.085   8.254  11.287  0.00  0.00    +0.000 A 
ATOM     25  N   UNL     1      43.180   7.292  10.937  0.00  0.00    +0.000 N 
ATOM     26  C   UNL     1      43.567   6.089  11.447  0.00  0.00    +0.000 A 
ATOM     27  N   UNL     1      42.913   4.939  11.203  0.00  0.00    +0.000 NA
ATOM     28  C   UNL     1      43.474   3.877  11.815  0.00  0.00    +0.000 A 
ATOM     29  C   UNL     1      44.588   3.912  12.642  0.00  0.00    +0.000 A 
ATOM     30  C   UNL     1      45.224   5.141  12.872  0.00  0.00    +0.000 A 
ATOM     31  C   UNL     1      44.705   6.288  12.226  0.00  0.00    +0.000 A 
ATOM     32  H   UNL     1      42.363   7.413  10.357  0.00  0.00    +0.000 HD
BRANCH  30  33
ATOM     33  O   UNL     1      46.271   5.286  13.743  0.00  0.00    +0.000 OA
ATOM     34  C   UNL     1      46.973   4.086  14.059  0.00  0.00    +0.000 C 
ENDBRANCH  30  33
ENDBRANCH  21  23
ENDBRANCH  18  19
ENDBRANCH   4  18
TORSDOF 9
ENDMDL
MODEL 7
REMARK VINA RESULT:    -6.510      3.713      5.557
REMARK INTER + INTRA:         -11.235
REMARK INTER:                  -9.784
REMARK INTRA:                  -1.451
REMARK UNBOUND:                -1.299
REMARK  Name = 
REMARK  12 active torsions:
REMARK  status: ('A' for Active; 'I' for Inactive)
REMARK    1  A    between atoms: C_1  and  O_2
REMARK    2  A    between atoms: O_2  and  C_3
REMARK    3  A    between atoms: C_8  and  C_9
REMARK    4  A    between atoms: C_9  and  C_10
REMARK    5  A    between atoms: C_10  and  C_11
REMARK    6  A    between atoms: C_11  and  C_12
REMARK    7  A    between atoms: C_15  and  C_16
REMARK    8  A    between atoms: C_16  and  N_17
REMARK    9  A    between atoms: N_17  and  C_18
REMARK   10  A    between atoms: C_19  and  C_21
REMARK   11  A    between atoms: C_28  and  O_29
REMARK   12  A    between atoms: O_29  and  C_30
REMARK                            x       y       z     vdW  Elec       q    Type
REMARK                         _______ _______ _______ _____ _____    ______ ____
ROOT
ATOM      1  C   UNL     1      44.549   4.029  12.442  0.00  0.00    +0.000 A 
ATOM      2  C   UNL     1      44.362   5.412  12.543  0.00  0.00    +0.000 A 
ATOM      3  C   UNL     1      45.405   6.241  12.955  0.00  0.00    +0.000 A 
ATOM      4  C   UNL     1      46.655   5.705  13.308  0.00  0.00    +0.000 A 
ATOM      5  C   UNL     1      46.817   4.317  13.283  0.00  0.00    +0.000 A 
ATOM      6  C   UNL     1      45.778   3.486  12.847  0.00  0.00    +0.000 A 
ENDROOT
BRANCH   1   7
ATOM      7  C   UNL     1      43.469   3.157  11.839  0.00  0.00    +0.000 C 
BRANCH   7   8
ATOM      8  C   UNL     1      43.954   2.333  10.629  0.00  0.00    +0.000 C 
BRANCH   8   9
ATOM      9  C   UNL     1      44.256   3.214   9.412  0.00  0.00    +0.000 C 
BRANCH   9  15
ATOM     10  C   UNL     1      46.239   3.641   7.854  0.00  0.00    +0.000 A 
ATOM     11  C   UNL     1      47.253   3.138   7.030  0.00  0.00    +0.000 A 
ATOM     12  C   UNL     1      47.482   1.762   6.941  0.00  0.00    +0.000 A 
ATOM     13  C   UNL     1      46.715   0.879   7.692  0.00  0.00    +0.000 A 
ATOM     14  C   UNL     1      45.704   1.369   8.517  0.00  0.00    +0.000 A 
ATOM     15  C   UNL     1      45.440   2.749   8.592  0.00  0.00    +0.000 A 
BRANCH  10  17
ATOM     16  C   UNL     1      46.184   5.522   9.309  0.00  0.00    +0.000 C 
ATOM     17  O   UNL     1      45.966   4.975   8.013  0.00  0.00    +0.000 OA
ENDBRANCH  10  17
ENDBRANCH   9  15
ENDBRANCH   8   9
ENDBRANCH   7   8
ENDBRANCH   1   7
BRANCH   4  18
ATOM     18  C   UNL     1      47.816   6.628  13.621  0.00  0.00    +0.000 C 
BRANCH  18  19
ATOM     19  N   UNL     1      48.065   7.736  12.697  0.00  0.00    +0.000 N 
ATOM     20  C   UNL     1      48.674   7.450  11.406  0.00  0.00    +0.000 C 
ATOM     21  C   UNL     1      47.993   9.031  13.258  0.00  0.00    +0.000 C 
ATOM     22  O   UNL     1      47.695   9.182  14.443  0.00  0.00    +0.000 OA
BRANCH  21  23
ATOM     23  C   UNL     1      48.233  10.200  12.399  0.00  0.00    +0.000 A 
ATOM     24  C   UNL     1      47.263  10.958  11.755  0.00  0.00    +0.000 A 
ATOM     25  N   UNL     1      47.874  11.977  11.079  0.00  0.00    +0.000 N 
ATOM     26  C   UNL     1      49.212  11.967  11.343  0.00  0.00    +0.000 A 
ATOM     27  N   UNL     1      50.062  12.900  10.879  0.00  0.00    +0.000 NA
ATOM     28  C   UNL     1      51.336  12.685  11.263  0.00  0.00    +0.000 A 
ATOM     29  C   UNL     1      51.784  11.618  12.030  0.00  0.00    +0.000 A 
ATOM     30  C   UNL     1      50.855  10.668  12.477  0.00  0.00    +0.000 A 
ATOM     31  C   UNL     1      49.494  10.859  12.139  0.00  0.00    +0.000 A 
ATOM     32  H   UNL     1      47.428  12.672  10.499  0.00  0.00    +0.000 HD
BRANCH  30  33
ATOM     33  O   UNL     1      51.216   9.537  13.160  0.00  0.00    +0.000 OA
ATOM     34  C   UNL     1      51.448   9.714  14.555  0.00  0.00    +0.000 C 
ENDBRANCH  30  33
ENDBRANCH  21  23
ENDBRANCH  18  19
ENDBRANCH   4  18
TORSDOF 9
ENDMDL
MODEL 8
REMARK VINA RESULT:    -6.501      3.496      8.687
REMARK INTER + INTRA:         -11.221
REMARK INTER:                  -8.783
REMARK INTRA:                  -2.439
REMARK UNBOUND:                -1.299
REMARK  Name = 
REMARK  12 active torsions:
REMARK  status: ('A' for Active; 'I' for Inactive)
REMARK    1  A    between atoms: C_1  and  O_2
REMARK    2  A    between atoms: O_2  and  C_3
REMARK    3  A    between atoms: C_8  and  C_9
REMARK    4  A    between atoms: C_9  and  C_10
REMARK    5  A    between atoms: C_10  and  C_11
REMARK    6  A    between atoms: C_11  and  C_12
REMARK    7  A    between atoms: C_15  and  C_16
REMARK    8  A    between atoms: C_16  and  N_17
REMARK    9  A    between atoms: N_17  and  C_18
REMARK   10  A    between atoms: C_19  and  C_21
REMARK   11  A    between atoms: C_28  and  O_29
REMARK   12  A    between atoms: O_29  and  C_30
REMARK                            x       y       z     vdW  Elec       q    Type
REMARK                         _______ _______ _______ _____ _____    ______ ____
ROOT
ATOM      1  C   UNL     1      48.473   7.835  17.592  0.00  0.00    +0.000 A 
ATOM      2  C   UNL     1      48.094   9.104  17.138  0.00  0.00    +0.000 A 
ATOM      3  C   UNL     1      48.069   9.390  15.774  0.00  0.00    +0.000 A 
ATOM      4  C   UNL     1      48.454   8.426  14.827  0.00  0.00    +0.000 A 
ATOM      5  C   UNL     1      48.908   7.186  15.285  0.00  0.00    +0.000 A 
ATOM      6  C   UNL     1      48.911   6.889  16.653  0.00  0.00    +0.000 A 
ENDROOT
BRANCH   1   7
ATOM      7  C   UNL     1      48.340   7.481  19.058  0.00  0.00    +0.000 C 
BRANCH   7   8
ATOM      8  C   UNL     1      47.458   6.241  19.307  0.00  0.00    +0.000 C 
BRANCH   8   9
ATOM      9  C   UNL     1      48.237   5.098  19.968  0.00  0.00    +0.000 C 
BRANCH   9  15
ATOM     10  C   UNL     1      50.369   4.299  18.804  0.00  0.00    +0.000 A 
ATOM     11  C   UNL     1      50.981   3.527  17.809  0.00  0.00    +0.000 A 
ATOM     12  C   UNL     1      50.225   2.666  17.009  0.00  0.00    +0.000 A 
ATOM     13  C   UNL     1      48.854   2.553  17.212  0.00  0.00    +0.000 A 
ATOM     14  C   UNL     1      48.235   3.316  18.201  0.00  0.00    +0.000 A 
ATOM     15  C   UNL     1      48.978   4.211  18.991  0.00  0.00    +0.000 A 
BRANCH  10  17
ATOM     16  C   UNL     1      51.852   6.145  19.029  0.00  0.00    +0.000 C 
ATOM     17  O   UNL     1      51.043   5.149  19.644  0.00  0.00    +0.000 OA
ENDBRANCH  10  17
ENDBRANCH   9  15
ENDBRANCH   8   9
ENDBRANCH   7   8
ENDBRANCH   1   7
BRANCH   4  18
ATOM     18  C   UNL     1      48.291   8.707  13.346  0.00  0.00    +0.000 C 
BRANCH  18  19
ATOM     19  N   UNL     1      47.164   8.075  12.660  0.00  0.00    +0.000 N 
ATOM     20  C   UNL     1      45.813   8.527  12.966  0.00  0.00    +0.000 C 
ATOM     21  C   UNL     1      47.450   6.860  11.999  0.00  0.00    +0.000 C 
ATOM     22  O   UNL     1      48.598   6.413  11.986  0.00  0.00    +0.000 OA
BRANCH  21  23
ATOM     23  C   UNL     1      46.373   6.157  11.288  0.00  0.00    +0.000 A 
ATOM     24  C   UNL     1      46.103   6.231   9.926  0.00  0.00    +0.000 A 
ATOM     25  N   UNL     1      45.046   5.414   9.638  0.00  0.00    +0.000 N 
ATOM     26  C   UNL     1      44.677   4.728  10.757  0.00  0.00    +0.000 A 
ATOM     27  N   UNL     1      43.714   3.789  10.763  0.00  0.00    +0.000 NA
ATOM     28  C   UNL     1      43.517   3.248  11.982  0.00  0.00    +0.000 A 
ATOM     29  C   UNL     1      44.187   3.603  13.145  0.00  0.00    +0.000 A 
ATOM     30  C   UNL     1      45.174   4.597  13.083  0.00  0.00    +0.000 A 
ATOM     31  C   UNL     1      45.454   5.177  11.823  0.00  0.00    +0.000 A 
ATOM     32  H   UNL     1      44.611   5.283   8.738  0.00  0.00    +0.000 HD
BRANCH  30  33
ATOM     33  O   UNL     1      45.820   5.075  14.192  0.00  0.00    +0.000 OA
ATOM     34  C   UNL     1      46.932   4.298  14.632  0.00  0.00    +0.000 C 
ENDBRANCH  30  33
ENDBRANCH  21  23
ENDBRANCH  18  19
ENDBRANCH   4  18
TORSDOF 9
ENDMDL
MODEL 9
REMARK VINA RESULT:    -6.405      3.713      8.896
REMARK INTER + INTRA:         -11.074
REMARK INTER:                  -8.794
REMARK INTRA:                  -2.281
REMARK UNBOUND:                -1.299
REMARK  Name = 
REMARK  12 active torsions:
REMARK  status: ('A' for Active; 'I' for Inactive)
REMARK    1  A    between atoms: C_1  and  O_2
REMARK    2  A    between atoms: O_2  and  C_3
REMARK    3  A    between atoms: C_8  and  C_9
REMARK    4  A    between atoms: C_9  and  C_10
REMARK    5  A    between atoms: C_10  and  C_11
REMARK    6  A    between atoms: C_11  and  C_12
REMARK    7  A    between atoms: C_15  and  C_16
REMARK    8  A    between atoms: C_16  and  N_17
REMARK    9  A    between atoms: N_17  and  C_18
REMARK   10  A    between atoms: C_19  and  C_21
REMARK   11  A    between atoms: C_28  and  O_29
REMARK   12  A    between atoms: O_29  and  C_30
REMARK                            x       y       z     vdW  Elec       q    Type
REMARK                         _______ _______ _______ _____ _____    ______ ____
ROOT
ATOM      1  C   UNL     1      51.912   6.994  16.277  0.00  0.00    +0.000 A 
ATOM      2  C   UNL     1      52.430   7.816  15.269  0.00  0.00    +0.000 A 
ATOM      3  C   UNL     1      51.590   8.362  14.299  0.00  0.00    +0.000 A 
ATOM      4  C   UNL     1      50.215   8.076  14.291  0.00  0.00    +0.000 A 
ATOM      5  C   UNL     1      49.712   7.192  15.250  0.00  0.00    +0.000 A 
ATOM      6  C   UNL     1      50.550   6.661  16.238  0.00  0.00    +0.000 A 
ENDROOT
BRANCH   1   7
ATOM      7  C   UNL     1      52.797   6.539  17.418  0.00  0.00    +0.000 C 
BRANCH   7   8
ATOM      8  C   UNL     1      53.195   5.053  17.324  0.00  0.00    +0.000 C 
BRANCH   8   9
ATOM      9  C   UNL     1      52.633   4.228  18.487  0.00  0.00    +0.000 C 
BRANCH   9  15
ATOM     10  C   UNL     1      50.184   4.531  19.159  0.00  0.00    +0.000 A 
ATOM     11  C   UNL     1      48.850   4.115  19.070  0.00  0.00    +0.000 A 
ATOM     12  C   UNL     1      48.480   3.093  18.191  0.00  0.00    +0.000 A 
ATOM     13  C   UNL     1      49.435   2.495  17.377  0.00  0.00    +0.000 A 
ATOM     14  C   UNL     1      50.766   2.904  17.456  0.00  0.00    +0.000 A 
ATOM     15  C   UNL     1      51.159   3.907  18.360  0.00  0.00    +0.000 A 
BRANCH  10  17
ATOM     16  C   UNL     1      49.843   6.729  20.002  0.00  0.00    +0.000 C 
ATOM     17  O   UNL     1      50.624   5.539  19.978  0.00  0.00    +0.000 OA
ENDBRANCH  10  17
ENDBRANCH   9  15
ENDBRANCH   8   9
ENDBRANCH   7   8
ENDBRANCH   1   7
BRANCH   4  18
ATOM     18  C   UNL     1      49.297   8.785  13.315  0.00  0.00    +0.000 C 
BRANCH  18  19
ATOM     19  N   UNL     1      48.321   7.969  12.593  0.00  0.00    +0.000 N 
ATOM     20  C   UNL     1      48.708   7.374  11.320  0.00  0.00    +0.000 C 
ATOM     21  C   UNL     1      46.981   8.089  13.023  0.00  0.00    +0.000 C 
ATOM     22  O   UNL     1      46.695   8.811  13.979  0.00  0.00    +0.000 OA
BRANCH  21  23
ATOM     23  C   UNL     1      45.936   7.306  12.348  0.00  0.00    +0.000 A 
ATOM     24  C   UNL     1      44.977   7.799  11.471  0.00  0.00    +0.000 A 
ATOM     25  N   UNL     1      44.206   6.762  11.028  0.00  0.00    +0.000 N 
ATOM     26  C   UNL     1      44.695   5.585  11.512  0.00  0.00    +0.000 A 
ATOM     27  N   UNL     1      44.188   4.384  11.181  0.00  0.00    +0.000 NA
ATOM     28  C   UNL     1      44.829   3.362  11.784  0.00  0.00    +0.000 A 
ATOM     29  C   UNL     1      45.883   3.479  12.679  0.00  0.00    +0.000 A 
ATOM     30  C   UNL     1      46.364   4.758  12.997  0.00  0.00    +0.000 A 
ATOM     31  C   UNL     1      45.758   5.871  12.366  0.00  0.00    +0.000 A 
ATOM     32  H   UNL     1      43.415   6.820  10.403  0.00  0.00    +0.000 HD
BRANCH  30  33
ATOM     33  O   UNL     1      47.337   4.975  13.936  0.00  0.00    +0.000 OA
ATOM     34  C   UNL     1      47.080   4.415  15.221  0.00  0.00    +0.000 C 
ENDBRANCH  30  33
ENDBRANCH  21  23
ENDBRANCH  18  19
ENDBRANCH   4  18
TORSDOF 9
ENDMDL
