MODEL 1
REMARK VINA RESULT:    -8.346      0.000      0.000
REMARK INTER + INTRA:         -11.487
REMARK INTER:                 -10.786
REMARK INTRA:                  -0.701
REMARK UNBOUND:                -0.701
REMARK  Name = 
REMARK  5 active torsions:
REMARK  status: ('A' for Active; 'I' for Inactive)
REMARK    1  A    between atoms: C_2  and  C_4
REMARK    2  A    between atoms: C_7  and  C_8
REMARK    3  A    between atoms: C_8  and  O_9
REMARK    4  A    between atoms: O_9  and  C_10
REMARK    5  A    between atoms: C_14  and  C_15
REMARK                            x       y       z     vdW  Elec       q    Type
REMARK                         _______ _______ _______ _____ _____    ______ ____
ROOT
ATOM      1  O   UNL     1      43.962   5.119  11.077  0.00  0.00    +0.000 OA
ENDROOT
BRANCH   1   2
ATOM      2  C   UNL     1      45.010   5.194  11.946  0.00  0.00    +0.000 A 
ATOM      3  C   UNL     1      44.958   4.383  13.069  0.00  0.00    +0.000 A 
ATOM      4  N   UNL     1      45.916   4.342  14.026  0.00  0.00    +0.000 NA
ATOM      5  C   UNL     1      46.980   5.160  13.855  0.00  0.00    +0.000 A 
ATOM      6  C   UNL     1      47.145   6.023  12.774  0.00  0.00    +0.000 A 
ATOM      7  C   UNL     1      46.125   6.013  11.812  0.00  0.00    +0.000 A 
BRANCH   6   8
ATOM      8  C   UNL     1      48.375   6.910  12.678  0.00  0.00    +0.000 C 
ATOM      9  C   UNL     1      48.989   7.283  14.037  0.00  0.00    +0.000 C 
ATOM     10  C   UNL     1      48.261   8.423  14.750  0.00  0.00    +0.000 C 
ATOM     11  N   UNL     1      48.040   9.593  13.901  0.00  0.00    +0.000 NA
ATOM     12  C   UNL     1      47.432   9.286  12.606  0.00  0.00    +0.000 C 
ATOM     13  C   UNL     1      48.160   8.181  11.845  0.00  0.00    +0.000 C 
ATOM     14  H   UNL     1      48.936  10.054  13.740  0.00  0.00    +0.000 HD
ENDBRANCH   6   8
ENDBRANCH   1   2
BRANCH   1  15
ATOM     15  C   UNL     1      43.621   3.822  10.570  0.00  0.00    +0.000 C 
BRANCH  15  19
ATOM     16  C   UNL     1      46.444   2.645   7.505  0.00  0.00    +0.000 A 
ATOM     17  C   UNL     1      45.933   1.690   8.388  0.00  0.00    +0.000 A 
ATOM     18  C   UNL     1      45.014   2.067   9.372  0.00  0.00    +0.000 A 
ATOM     19  C   UNL     1      44.609   3.404   9.502  0.00  0.00    +0.000 A 
ATOM     20  C   UNL     1      45.106   4.350   8.593  0.00  0.00    +0.000 A 
ATOM     21  C   UNL     1      46.026   3.976   7.608  0.00  0.00    +0.000 A 
BRANCH  16  23
ATOM     22  N   UNL     1      47.530   3.101   5.371  0.00  0.00    +0.000 N 
ATOM     23  C   UNL     1      47.462   2.298   6.478  0.00  0.00    +0.000 C 
ATOM     24  O   UNL     1      48.225   1.356   6.621  0.00  0.00    +0.000 OA
ATOM     25  H   UNL     1      48.274   2.901   4.717  0.00  0.00    +0.000 HD
ATOM     26  H   UNL     1      47.093   4.009   5.329  0.00  0.00    +0.000 HD
ENDBRANCH  16  23
ENDBRANCH  15  19
ENDBRANCH   1  15
TORSDOF 5
ENDMDL
MODEL 2
REMARK VINA RESULT:    -7.412      2.562      3.565
REMARK INTER + INTRA:         -10.280
REMARK INTER:                  -9.674
REMARK INTRA:                  -0.606
REMARK UNBOUND:                -0.701
REMARK  Name = 
REMARK  5 active torsions:
REMARK  status: ('A' for Active; 'I' for Inactive)
REMARK    1  A    between atoms: C_2  and  C_4
REMARK    2  A    between atoms: C_7  and  C_8
REMARK    3  A    between atoms: C_8  and  O_9
REMARK    4  A    between atoms: O_9  and  C_10
REMARK    5  A    between atoms: C_14  and  C_15
REMARK                            x       y       z     vdW  Elec       q    Type
REMARK                         _______ _______ _______ _____ _____    ______ ____
ROOT
ATOM      1  O   UNL     1      44.506   5.148  11.429  0.00  0.00    +0.000 OA
ENDROOT
BRANCH   1   2
ATOM      2  C   UNL     1      45.074   6.372  11.622  0.00  0.00    +0.000 A 
ATOM      3  C   UNL     1      46.440   6.406  11.851  0.00  0.00    +0.000 A 
ATOM      4  N   UNL     1      47.151   7.539  12.063  0.00  0.00    +0.000 NA
ATOM      5  C   UNL     1      46.459   8.701  12.051  0.00  0.00    +0.000 A 
ATOM      6  C   UNL     1      45.085   8.798  11.838  0.00  0.00    +0.000 A 
ATOM      7  C   UNL     1      44.406   7.592  11.615  0.00  0.00    +0.000 A 
BRANCH   6   8
ATOM      8  C   UNL     1      44.398  10.153  11.853  0.00  0.00    +0.000 C 
ATOM      9  C   UNL     1      43.240  10.283  10.849  0.00  0.00    +0.000 C 
ATOM     10  C   UNL     1      43.695  10.561   9.416  0.00  0.00    +0.000 C 
ATOM     11  N   UNL     1      44.645  11.668   9.312  0.00  0.00    +0.000 NA
ATOM     12  C   UNL     1      45.779  11.572  10.232  0.00  0.00    +0.000 C 
ATOM     13  C   UNL     1      45.361  11.337  11.681  0.00  0.00    +0.000 C 
ATOM     14  H   UNL     1      44.150  12.542   9.494  0.00  0.00    +0.000 HD
ENDBRANCH   6   8
ENDBRANCH   1   2
BRANCH   1  15
ATOM     15  C   UNL     1      43.899   4.899  10.155  0.00  0.00    +0.000 C 
BRANCH  15  19
ATOM     16  C   UNL     1      46.492   2.411   7.738  0.00  0.00    +0.000 A 
ATOM     17  C   UNL     1      46.522   3.800   7.592  0.00  0.00    +0.000 A 
ATOM     18  C   UNL     1      45.692   4.606   8.378  0.00  0.00    +0.000 A 
ATOM     19  C   UNL     1      44.807   4.035   9.306  0.00  0.00    +0.000 A 
ATOM     20  C   UNL     1      44.804   2.641   9.466  0.00  0.00    +0.000 A 
ATOM     21  C   UNL     1      45.633   1.834   8.680  0.00  0.00    +0.000 A 
BRANCH  16  23
ATOM     22  N   UNL     1      48.453   2.048   6.338  0.00  0.00    +0.000 N 
ATOM     23  C   UNL     1      47.318   1.515   6.888  0.00  0.00    +0.000 C 
ATOM     24  O   UNL     1      47.019   0.345   6.705  0.00  0.00    +0.000 OA
ATOM     25  H   UNL     1      49.046   1.409   5.825  0.00  0.00    +0.000 HD
ATOM     26  H   UNL     1      48.855   2.918   6.654  0.00  0.00    +0.000 HD
ENDBRANCH  16  23
ENDBRANCH  15  19
ENDBRANCH   1  15
TORSDOF 5
ENDMDL
MODEL 3
REMARK VINA RESULT:    -7.135      4.612      8.078
REMARK INTER + INTRA:          -9.922
REMARK INTER:                  -9.590
REMARK INTRA:                  -0.331
REMARK UNBOUND:                -0.701
REMARK  Name = 
REMARK  5 active torsions:
REMARK  status: ('A' for Active; 'I' for Inactive)
REMARK    1  A    between atoms: C_2  and  C_4
REMARK    2  A    between atoms: C_7  and  C_8
REMARK    3  A    between atoms: C_8  and  O_9
REMARK    4  A    between atoms: O_9  and  C_10
REMARK    5  A    between atoms: C_14  and  C_15
REMARK                            x       y       z     vdW  Elec       q    Type
REMARK                         _______ _______ _______ _____ _____    ______ ____
ROOT
ATOM      1  O   UNL     1      46.802   4.122  15.465  0.00  0.00    +0.000 OA
ENDROOT
BRANCH   1   2
ATOM      2  C   UNL     1      46.628   4.769  14.277  0.00  0.00    +0.000 A 
ATOM      3  C   UNL     1      47.560   5.739  13.945  0.00  0.00    +0.000 A 
ATOM      4  N   UNL     1      47.527   6.470  12.805  0.00  0.00    +0.000 NA
ATOM      5  C   UNL     1      46.505   6.222  11.953  0.00  0.00    +0.000 A 
ATOM      6  C   UNL     1      45.505   5.278  12.177  0.00  0.00    +0.000 A 
ATOM      7  C   UNL     1      45.599   4.546  13.369  0.00  0.00    +0.000 A 
BRANCH   6   8
ATOM      8  C   UNL     1      44.392   5.081  11.161  0.00  0.00    +0.000 C 
ATOM      9  C   UNL     1      43.170   4.323  11.705  0.00  0.00    +0.000 C 
ATOM     10  C   UNL     1      43.356   2.807  11.752  0.00  0.00    +0.000 C 
ATOM     11  N   UNL     1      43.844   2.241  10.495  0.00  0.00    +0.000 NA
ATOM     12  C   UNL     1      45.024   2.916   9.953  0.00  0.00    +0.000 C 
ATOM     13  C   UNL     1      44.858   4.430   9.851  0.00  0.00    +0.000 C 
ATOM     14  H   UNL     1      43.095   2.288   9.802  0.00  0.00    +0.000 HD
ENDBRANCH   6   8
ENDBRANCH   1   2
BRANCH   1  15
ATOM     15  C   UNL     1      47.575   4.791  16.470  0.00  0.00    +0.000 C 
BRANCH  15  19
ATOM     16  C   UNL     1      51.054   2.416  17.475  0.00  0.00    +0.000 A 
ATOM     17  C   UNL     1      51.056   3.793  17.711  0.00  0.00    +0.000 A 
ATOM     18  C   UNL     1      49.930   4.560  17.396  0.00  0.00    +0.000 A 
ATOM     19  C   UNL     1      48.795   3.967  16.822  0.00  0.00    +0.000 A 
ATOM     20  C   UNL     1      48.791   2.579  16.615  0.00  0.00    +0.000 A 
ATOM     21  C   UNL     1      49.916   1.810  16.929  0.00  0.00    +0.000 A 
BRANCH  16  23
ATOM     22  N   UNL     1      52.021   0.293  18.180  0.00  0.00    +0.000 N 
ATOM     23  C   UNL     1      52.247   1.572  17.747  0.00  0.00    +0.000 C 
ATOM     24  O   UNL     1      53.382   1.985  17.568  0.00  0.00    +0.000 OA
ATOM     25  H   UNL     1      52.837  -0.295  18.288  0.00  0.00    +0.000 HD
ATOM     26  H   UNL     1      51.120  -0.155  18.110  0.00  0.00    +0.000 HD
ENDBRANCH  16  23
ENDBRANCH  15  19
ENDBRANCH   1  15
TORSDOF 5
ENDMDL
MODEL 4
REMARK VINA RESULT:    -6.528      4.489      8.780
REMARK INTER + INTRA:          -9.138
REMARK INTER:                  -8.767
REMARK INTRA:                  -0.371
REMARK UNBOUND:                -0.701
REMARK  Name = 
REMARK  5 active torsions:
REMARK  status: ('A' for Active; 'I' for Inactive)
REMARK    1  A    between atoms: C_2  and  C_4
REMARK    2  A    between atoms: C_7  and  C_8
REMARK    3  A    between atoms: C_8  and  O_9
REMARK    4  A    between atoms: O_9  and  C_10
REMARK    5  A    between atoms: C_14  and  C_15
REMARK                            x       y       z     vdW  Elec       q    Type
REMARK                         _______ _______ _______ _____ _____    ______ ____
ROOT
ATOM      1  O   UNL     1      47.868   4.963  14.513  0.00  0.00    +0.000 OA
ENDROOT
BRANCH   1   2
ATOM      2  C   UNL     1      47.180   5.429  13.432  0.00  0.00    +0.000 A 
ATOM      3  C   UNL     1      47.794   6.406  12.665  0.00  0.00    +0.000 A 
ATOM      4  N   UNL     1      47.242   6.971  11.565  0.00  0.00    +0.000 NA
ATOM      5  C   UNL     1      46.008   6.541  11.215  0.00  0.00    +0.000 A 
ATOM      6  C   UNL     1      45.287   5.570  11.906  0.00  0.00    +0.000 A 
ATOM      7  C   UNL     1      45.915   5.015  13.030  0.00  0.00    +0.000 A 
BRANCH   6   8
ATOM      8  C   UNL     1      43.901   5.161  11.436  0.00  0.00    +0.000 C 
ATOM      9  C   UNL     1      43.152   4.239  12.412  0.00  0.00    +0.000 C 
ATOM     10  C   UNL     1      43.581   2.774  12.328  0.00  0.00    +0.000 C 
ATOM     11  N   UNL     1      43.589   2.248  10.963  0.00  0.00    +0.000 NA
ATOM     12  C   UNL     1      44.314   3.082  10.004  0.00  0.00    +0.000 C 
ATOM     13  C   UNL     1      43.881   4.546  10.030  0.00  0.00    +0.000 C 
ATOM     14  H   UNL     1      42.623   2.149  10.645  0.00  0.00    +0.000 HD
ENDBRANCH   6   8
ENDBRANCH   1   2
BRANCH   1  15
ATOM     15  C   UNL     1      47.208   4.003  15.349  0.00  0.00    +0.000 C 
BRANCH  15  19
ATOM     16  C   UNL     1      48.504   4.439  19.457  0.00  0.00    +0.000 A 
ATOM     17  C   UNL     1      48.313   5.571  18.661  0.00  0.00    +0.000 A 
ATOM     18  C   UNL     1      47.885   5.433  17.337  0.00  0.00    +0.000 A 
ATOM     19  C   UNL     1      47.663   4.162  16.784  0.00  0.00    +0.000 A 
ATOM     20  C   UNL     1      47.830   3.033  17.599  0.00  0.00    +0.000 A 
ATOM     21  C   UNL     1      48.259   3.169  18.923  0.00  0.00    +0.000 A 
BRANCH  16  23
ATOM     22  N   UNL     1      50.364   4.609  21.023  0.00  0.00    +0.000 N 
ATOM     23  C   UNL     1      49.008   4.537  20.853  0.00  0.00    +0.000 C 
ATOM     24  O   UNL     1      48.250   4.579  21.809  0.00  0.00    +0.000 OA
ATOM     25  H   UNL     1      50.690   4.752  21.969  0.00  0.00    +0.000 HD
ATOM     26  H   UNL     1      50.998   4.818  20.267  0.00  0.00    +0.000 HD
ENDBRANCH  16  23
ENDBRANCH  15  19
ENDBRANCH   1  15
TORSDOF 5
ENDMDL
MODEL 5
REMARK VINA RESULT:    -6.246      4.076      6.207
REMARK INTER + INTRA:          -8.773
REMARK INTER:                  -8.385
REMARK INTRA:                  -0.388
REMARK UNBOUND:                -0.701
REMARK  Name = 
REMARK  5 active torsions:
REMARK  status: ('A' for Active; 'I' for Inactive)
REMARK    1  A    between atoms: C_2  and  C_4
REMARK    2  A    between atoms: C_7  and  C_8
REMARK    3  A    between atoms: C_8  and  O_9
REMARK    4  A    between atoms: O_9  and  C_10
REMARK    5  A    between atoms: C_14  and  C_15
REMARK                            x       y       z     vdW  Elec       q    Type
REMARK                         _______ _______ _______ _____ _____    ______ ____
ROOT
ATOM      1  O   UNL     1      48.572   7.579  14.015  0.00  0.00    +0.000 OA
ENDROOT
BRANCH   1   2
ATOM      2  C   UNL     1      49.372   7.068  14.993  0.00  0.00    +0.000 A 
ATOM      3  C   UNL     1      50.686   7.506  15.028  0.00  0.00    +0.000 A 
ATOM      4  N   UNL     1      51.605   7.093  15.934  0.00  0.00    +0.000 NA
ATOM      5  C   UNL     1      51.190   6.188  16.850  0.00  0.00    +0.000 A 
ATOM      6  C   UNL     1      49.900   5.668  16.914  0.00  0.00    +0.000 A 
ATOM      7  C   UNL     1      48.991   6.142  15.957  0.00  0.00    +0.000 A 
BRANCH   6   8
ATOM      8  C   UNL     1      49.535   4.647  17.979  0.00  0.00    +0.000 C 
ATOM      9  C   UNL     1      49.422   3.205  17.457  0.00  0.00    +0.000 C 
ATOM     10  C   UNL     1      48.097   2.905  16.757  0.00  0.00    +0.000 C 
ATOM     11  N   UNL     1      46.924   3.306  17.534  0.00  0.00    +0.000 NA
ATOM     12  C   UNL     1      46.977   4.682  18.030  0.00  0.00    +0.000 C 
ATOM     13  C   UNL     1      48.271   5.005  18.774  0.00  0.00    +0.000 C 
ATOM     14  H   UNL     1      46.829   2.675  18.332  0.00  0.00    +0.000 HD
ENDBRANCH   6   8
ENDBRANCH   1   2
BRANCH   1  15
ATOM     15  C   UNL     1      48.497   6.853  12.781  0.00  0.00    +0.000 C 
BRANCH  15  19
ATOM     16  C   UNL     1      44.427   5.558  12.067  0.00  0.00    +0.000 A 
ATOM     17  C   UNL     1      45.287   4.768  12.834  0.00  0.00    +0.000 A 
ATOM     18  C   UNL     1      46.598   5.189  13.073  0.00  0.00    +0.000 A 
ATOM     19  C   UNL     1      47.076   6.394  12.534  0.00  0.00    +0.000 A 
ATOM     20  C   UNL     1      46.197   7.194  11.789  0.00  0.00    +0.000 A 
ATOM     21  C   UNL     1      44.885   6.774  11.547  0.00  0.00    +0.000 A 
BRANCH  16  23
ATOM     22  N   UNL     1      42.059   6.075  11.809  0.00  0.00    +0.000 N 
ATOM     23  C   UNL     1      43.042   5.125  11.744  0.00  0.00    +0.000 C 
ATOM     24  O   UNL     1      42.788   3.979  11.408  0.00  0.00    +0.000 OA
ATOM     25  H   UNL     1      41.136   5.787  11.514  0.00  0.00    +0.000 HD
ATOM     26  H   UNL     1      42.258   7.063  11.845  0.00  0.00    +0.000 HD
ENDBRANCH  16  23
ENDBRANCH  15  19
ENDBRANCH   1  15
TORSDOF 5
ENDMDL
MODEL 6
REMARK VINA RESULT:    -6.222      3.597      6.224
REMARK INTER + INTRA:          -8.742
REMARK INTER:                  -8.133
REMARK INTRA:                  -0.609
REMARK UNBOUND:                -0.701
REMARK  Name = 
REMARK  5 active torsions:
REMARK  status: ('A' for Active; 'I' for Inactive)
REMARK    1  A    between atoms: C_2  and  C_4
REMARK    2  A    between atoms: C_7  and  C_8
REMARK    3  A    between atoms: C_8  and  O_9
REMARK    4  A    between atoms: O_9  and  C_10
REMARK    5  A    between atoms: C_14  and  C_15
REMARK                            x       y       z     vdW  Elec       q    Type
REMARK                         _______ _______ _______ _____ _____    ______ ____
ROOT
ATOM      1  O   UNL     1      48.047   7.371  14.373  0.00  0.00    +0.000 OA
ENDROOT
BRANCH   1   2
ATOM      2  C   UNL     1      49.029   6.932  15.210  0.00  0.00    +0.000 A 
ATOM      3  C   UNL     1      50.301   7.449  15.016  0.00  0.00    +0.000 A 
ATOM      4  N   UNL     1      51.381   7.113  15.760  0.00  0.00    +0.000 NA
ATOM      5  C   UNL     1      51.183   6.209  16.747  0.00  0.00    +0.000 A 
ATOM      6  C   UNL     1      49.956   5.615  17.036  0.00  0.00    +0.000 A 
ATOM      7  C   UNL     1      48.873   6.010  16.238  0.00  0.00    +0.000 A 
BRANCH   6   8
ATOM      8  C   UNL     1      49.839   4.602  18.162  0.00  0.00    +0.000 C 
ATOM      9  C   UNL     1      51.180   3.993  18.603  0.00  0.00    +0.000 C 
ATOM     10  C   UNL     1      51.679   2.874  17.688  0.00  0.00    +0.000 C 
ATOM     11  N   UNL     1      50.669   1.852  17.415  0.00  0.00    +0.000 NA
ATOM     12  C   UNL     1      49.383   2.386  16.967  0.00  0.00    +0.000 C 
ATOM     13  C   UNL     1      48.832   3.478  17.882  0.00  0.00    +0.000 C 
ATOM     14  H   UNL     1      50.517   1.306  18.265  0.00  0.00    +0.000 HD
ENDBRANCH   6   8
ENDBRANCH   1   2
BRANCH   1  15
ATOM     15  C   UNL     1      48.165   7.030  12.985  0.00  0.00    +0.000 C 
BRANCH  15  19
ATOM     16  C   UNL     1      45.062   4.216  11.884  0.00  0.00    +0.000 A 
ATOM     17  C   UNL     1      45.300   5.341  11.089  0.00  0.00    +0.000 A 
ATOM     18  C   UNL     1      46.308   6.245  11.438  0.00  0.00    +0.000 A 
ATOM     19  C   UNL     1      47.077   6.051  12.596  0.00  0.00    +0.000 A 
ATOM     20  C   UNL     1      46.851   4.905  13.372  0.00  0.00    +0.000 A 
ATOM     21  C   UNL     1      45.843   3.999  13.025  0.00  0.00    +0.000 A 
BRANCH  16  23
ATOM     22  N   UNL     1      43.740   2.260  12.489  0.00  0.00    +0.000 N 
ATOM     23  C   UNL     1      43.968   3.257  11.579  0.00  0.00    +0.000 C 
ATOM     24  O   UNL     1      43.280   3.364  10.577  0.00  0.00    +0.000 OA
ATOM     25  H   UNL     1      42.946   1.661  12.309  0.00  0.00    +0.000 HD
ATOM     26  H   UNL     1      44.116   2.280  13.425  0.00  0.00    +0.000 HD
ENDBRANCH  16  23
ENDBRANCH  15  19
ENDBRANCH   1  15
TORSDOF 5
ENDMDL
MODEL 7
REMARK VINA RESULT:    -6.123      3.053      5.492
REMARK INTER + INTRA:          -8.615
REMARK INTER:                  -8.006
REMARK INTRA:                  -0.608
REMARK UNBOUND:                -0.701
REMARK  Name = 
REMARK  5 active torsions:
REMARK  status: ('A' for Active; 'I' for Inactive)
REMARK    1  A    between atoms: C_2  and  C_4
REMARK    2  A    between atoms: C_7  and  C_8
REMARK    3  A    between atoms: C_8  and  O_9
REMARK    4  A    between atoms: O_9  and  C_10
REMARK    5  A    between atoms: C_14  and  C_15
REMARK                            x       y       z     vdW  Elec       q    Type
REMARK                         _______ _______ _______ _____ _____    ______ ____
ROOT
ATOM      1  O   UNL     1      48.498   7.371  13.113  0.00  0.00    +0.000 OA
ENDROOT
BRANCH   1   2
ATOM      2  C   UNL     1      49.098   7.347  14.336  0.00  0.00    +0.000 A 
ATOM      3  C   UNL     1      49.977   8.378  14.629  0.00  0.00    +0.000 A 
ATOM      4  N   UNL     1      50.652   8.495  15.797  0.00  0.00    +0.000 NA
ATOM      5  C   UNL     1      50.445   7.528  16.720  0.00  0.00    +0.000 A 
ATOM      6  C   UNL     1      49.593   6.440  16.542  0.00  0.00    +0.000 A 
ATOM      7  C   UNL     1      48.913   6.379  15.317  0.00  0.00    +0.000 A 
BRANCH   6   8
ATOM      8  C   UNL     1      49.434   5.401  17.639  0.00  0.00    +0.000 C 
ATOM      9  C   UNL     1      48.586   4.183  17.234  0.00  0.00    +0.000 C 
ATOM     10  C   UNL     1      47.079   4.434  17.294  0.00  0.00    +0.000 C 
ATOM     11  N   UNL     1      46.637   5.021  18.559  0.00  0.00    +0.000 NA
ATOM     12  C   UNL     1      47.401   6.200  18.970  0.00  0.00    +0.000 C 
ATOM     13  C   UNL     1      48.910   5.973  18.963  0.00  0.00    +0.000 C 
ATOM     14  H   UNL     1      46.709   4.314  19.291  0.00  0.00    +0.000 HD
ENDBRANCH   6   8
ENDBRANCH   1   2
BRANCH   1  15
ATOM     15  C   UNL     1      47.091   7.648  13.077  0.00  0.00    +0.000 C 
BRANCH  15  19
ATOM     16  C   UNL     1      44.936   4.237  11.506  0.00  0.00    +0.000 A 
ATOM     17  C   UNL     1      45.205   4.323  12.874  0.00  0.00    +0.000 A 
ATOM     18  C   UNL     1      45.893   5.429  13.384  0.00  0.00    +0.000 A 
ATOM     19  C   UNL     1      46.339   6.452  12.534  0.00  0.00    +0.000 A 
ATOM     20  C   UNL     1      46.039   6.370  11.166  0.00  0.00    +0.000 A 
ATOM     21  C   UNL     1      45.352   5.265  10.653  0.00  0.00    +0.000 A 
BRANCH  16  23
ATOM     22  N   UNL     1      44.893   2.416   9.886  0.00  0.00    +0.000 N 
ATOM     23  C   UNL     1      44.254   3.056  10.914  0.00  0.00    +0.000 C 
ATOM     24  O   UNL     1      43.183   2.651  11.339  0.00  0.00    +0.000 OA
ATOM     25  H   UNL     1      44.457   1.571   9.543  0.00  0.00    +0.000 HD
ATOM     26  H   UNL     1      45.867   2.567   9.672  0.00  0.00    +0.000 HD
ENDBRANCH  16  23
ENDBRANCH  15  19
ENDBRANCH   1  15
TORSDOF 5
ENDMDL
MODEL 8
REMARK VINA RESULT:    -5.815      3.250      7.162
REMARK INTER + INTRA:          -8.216
REMARK INTER:                  -7.815
REMARK INTRA:                  -0.401
REMARK UNBOUND:                -0.701
REMARK  Name = 
REMARK  5 active torsions:
REMARK  status: ('A' for Active; 'I' for Inactive)
REMARK    1  A    between atoms: C_2  and  C_4
REMARK    2  A    between atoms: C_7  and  C_8
REMARK    3  A    between atoms: C_8  and  O_9
REMARK    4  A    between atoms: O_9  and  C_10
REMARK    5  A    between atoms: C_14  and  C_15
REMARK                            x       y       z     vdW  Elec       q    Type
REMARK                         _______ _______ _______ _____ _____    ______ ____
ROOT
ATOM      1  O   UNL     1      47.005   7.220  13.453  0.00  0.00    +0.000 OA
ENDROOT
BRANCH   1   2
ATOM      2  C   UNL     1      46.732   5.887  13.376  0.00  0.00    +0.000 A 
ATOM      3  C   UNL     1      47.514   5.037  14.142  0.00  0.00    +0.000 A 
ATOM      4  N   UNL     1      47.371   3.690  14.174  0.00  0.00    +0.000 NA
ATOM      5  C   UNL     1      46.398   3.164  13.395  0.00  0.00    +0.000 A 
ATOM      6  C   UNL     1      45.553   3.911  12.578  0.00  0.00    +0.000 A 
ATOM      7  C   UNL     1      45.743   5.300  12.595  0.00  0.00    +0.000 A 
BRANCH   6   8
ATOM      8  C   UNL     1      44.495   3.223  11.732  0.00  0.00    +0.000 C 
ATOM      9  C   UNL     1      44.963   2.856  10.314  0.00  0.00    +0.000 C 
ATOM     10  C   UNL     1      44.940   4.030   9.335  0.00  0.00    +0.000 C 
ATOM     11  N   UNL     1      43.671   4.758   9.329  0.00  0.00    +0.000 NA
ATOM     12  C   UNL     1      43.200   5.150  10.658  0.00  0.00    +0.000 C 
ATOM     13  C   UNL     1      43.169   3.992  11.652  0.00  0.00    +0.000 C 
ATOM     14  H   UNL     1      42.959   4.171   8.890  0.00  0.00    +0.000 HD
ENDBRANCH   6   8
ENDBRANCH   1   2
BRANCH   1  15
ATOM     15  C   UNL     1      47.331   7.896  12.231  0.00  0.00    +0.000 C 
BRANCH  15  19
ATOM     16  C   UNL     1      44.409  10.983  11.407  0.00  0.00    +0.000 A 
ATOM     17  C   UNL     1      44.038   9.637  11.350  0.00  0.00    +0.000 A 
ATOM     18  C   UNL     1      44.978   8.639  11.625  0.00  0.00    +0.000 A 
ATOM     19  C   UNL     1      46.305   8.970  11.940  0.00  0.00    +0.000 A 
ATOM     20  C   UNL     1      46.661  10.324  12.023  0.00  0.00    +0.000 A 
ATOM     21  C   UNL     1      45.723  11.324  11.748  0.00  0.00    +0.000 A 
BRANCH  16  23
ATOM     22  N   UNL     1      43.224  12.314   9.745  0.00  0.00    +0.000 N 
ATOM     23  C   UNL     1      43.456  12.074  11.072  0.00  0.00    +0.000 C 
ATOM     24  O   UNL     1      42.881  12.715  11.938  0.00  0.00    +0.000 OA
ATOM     25  H   UNL     1      42.518  13.005   9.530  0.00  0.00    +0.000 HD
ATOM     26  H   UNL     1      43.486  11.663   9.019  0.00  0.00    +0.000 HD
ENDBRANCH  16  23
ENDBRANCH  15  19
ENDBRANCH   1  15
TORSDOF 5
ENDMDL
MODEL 9
REMARK VINA RESULT:    -5.726      3.504      5.442
REMARK INTER + INTRA:          -8.101
REMARK INTER:                  -7.548
REMARK INTRA:                  -0.553
REMARK UNBOUND:                -0.701
REMARK  Name = 
REMARK  5 active torsions:
REMARK  status: ('A' for Active; 'I' for Inactive)
REMARK    1  A    between atoms: C_2  and  C_4
REMARK    2  A    between atoms: C_7  and  C_8
REMARK    3  A    between atoms: C_8  and  O_9
REMARK    4  A    between atoms: O_9  and  C_10
REMARK    5  A    between atoms: C_14  and  C_15
REMARK                            x       y       z     vdW  Elec       q    Type
REMARK                         _______ _______ _______ _____ _____    ______ ____
ROOT
ATOM      1  O   UNL     1      48.459   5.503  14.908  0.00  0.00    +0.000 OA
ENDROOT
BRANCH   1   2
ATOM      2  C   UNL     1      48.327   5.793  16.234  0.00  0.00    +0.000 A 
ATOM      3  C   UNL     1      47.638   4.879  17.014  0.00  0.00    +0.000 A 
ATOM      4  N   UNL     1      47.419   5.022  18.343  0.00  0.00    +0.000 NA
ATOM      5  C   UNL     1      47.910   6.141  18.923  0.00  0.00    +0.000 A 
ATOM      6  C   UNL     1      48.613   7.135  18.245  0.00  0.00    +0.000 A 
ATOM      7  C   UNL     1      48.817   6.926  16.874  0.00  0.00    +0.000 A 
BRANCH   6   8
ATOM      8  C   UNL     1      49.117   8.362  18.987  0.00  0.00    +0.000 C 
ATOM      9  C   UNL     1      48.218   8.807  20.152  0.00  0.00    +0.000 C 
ATOM     10  C   UNL     1      46.993   9.610  19.714  0.00  0.00    +0.000 C 
ATOM     11  N   UNL     1      47.315  10.715  18.811  0.00  0.00    +0.000 NA
ATOM     12  C   UNL     1      48.149  10.331  17.671  0.00  0.00    +0.000 C 
ATOM     13  C   UNL     1      49.405   9.563  18.074  0.00  0.00    +0.000 C 
ATOM     14  H   UNL     1      47.800  11.440  19.340  0.00  0.00    +0.000 HD
ENDBRANCH   6   8
ENDBRANCH   1   2
BRANCH   1  15
ATOM     15  C   UNL     1      47.956   6.465  13.972  0.00  0.00    +0.000 C 
BRANCH  15  19
ATOM     16  C   UNL     1      44.955   4.661  11.423  0.00  0.00    +0.000 A 
ATOM     17  C   UNL     1      45.264   4.082  12.657  0.00  0.00    +0.000 A 
ATOM     18  C   UNL     1      46.226   4.668  13.485  0.00  0.00    +0.000 A 
ATOM     19  C   UNL     1      46.907   5.828  13.085  0.00  0.00    +0.000 A 
ATOM     20  C   UNL     1      46.570   6.419  11.858  0.00  0.00    +0.000 A 
ATOM     21  C   UNL     1      45.609   5.834  11.028  0.00  0.00    +0.000 A 
BRANCH  16  23
ATOM     22  N   UNL     1      44.001   4.470   9.189  0.00  0.00    +0.000 N 
ATOM     23  C   UNL     1      43.977   4.043  10.489  0.00  0.00    +0.000 C 
ATOM     24  O   UNL     1      43.203   3.173  10.852  0.00  0.00    +0.000 OA
ATOM     25  H   UNL     1      43.385   3.990   8.548  0.00  0.00    +0.000 HD
ATOM     26  H   UNL     1      44.768   4.999   8.803  0.00  0.00    +0.000 HD
ENDBRANCH  16  23
ENDBRANCH  15  19
ENDBRANCH   1  15
TORSDOF 5
ENDMDL
