MODEL 1
REMARK VINA RESULT:    -8.173      0.000      0.000
REMARK INTER + INTRA:         -12.503
REMARK INTER:                 -11.517
REMARK INTRA:                  -0.986
REMARK UNBOUND:                -0.986
REMARK  Name = 
REMARK  8 active torsions:
REMARK  status: ('A' for Active; 'I' for Inactive)
REMARK    1  A    between atoms: C_1  and  O_2
REMARK    2  A    between atoms: O_2  and  C_3
REMARK    3  A    between atoms: C_7  and  C_8
REMARK    4  A    between atoms: C_8  and  O_9
REMARK    5  A    between atoms: O_9  and  C_10
REMARK    6  A    between atoms: C_13  and  C_14
REMARK    7  A    between atoms: C_14  and  N_15
REMARK    8  A    between atoms: C_16  and  C_18
REMARK                            x       y       z     vdW  Elec       q    Type
REMARK                         _______ _______ _______ _____ _____    ______ ____
ROOT
ATOM      1  C   UNL     1      44.955   5.020  11.980  0.00  0.00    +0.000 A 
ATOM      2  C   UNL     1      45.527   4.301  13.032  0.00  0.00    +0.000 A 
ATOM      3  C   UNL     1      46.648   4.797  13.698  0.00  0.00    +0.000 A 
ATOM      4  C   UNL     1      47.228   6.006  13.294  0.00  0.00    +0.000 A 
ATOM      5  C   UNL     1      46.653   6.702  12.230  0.00  0.00    +0.000 A 
ATOM      6  F   UNL     1      47.187   7.865  11.826  0.00  0.00    +0.000 F 
ATOM      7  C   UNL     1      45.533   6.218  11.564  0.00  0.00    +0.000 A 
ENDROOT
BRANCH   1   8
ATOM      8  O   UNL     1      43.844   4.454  11.418  0.00  0.00    +0.000 OA
BRANCH   8   9
ATOM      9  C   UNL     1      43.707   4.676  10.011  0.00  0.00    +0.000 C 
BRANCH   9  14
ATOM     10  C   UNL     1      46.007   3.476   7.412  0.00  0.00    +0.000 A 
ATOM     11  C   UNL     1      46.171   2.125   7.668  0.00  0.00    +0.000 A 
ATOM     12  C   UNL     1      45.501   1.573   8.754  0.00  0.00    +0.000 A 
ATOM     13  C   UNL     1      44.697   2.389   9.542  0.00  0.00    +0.000 A 
ATOM     14  C   UNL     1      44.599   3.742   9.227  0.00  0.00    +0.000 A 
ATOM     15  N   UNL     1      45.235   4.289   8.160  0.00  0.00    +0.000 NA
BRANCH  10  17
ATOM     16  C   UNL     1      47.121   2.979   5.424  0.00  0.00    +0.000 C 
ATOM     17  O   UNL     1      46.687   3.990   6.328  0.00  0.00    +0.000 OA
ENDBRANCH  10  17
ENDBRANCH   9  14
ENDBRANCH   8   9
ENDBRANCH   1   8
BRANCH   4  18
ATOM     18  C   UNL     1      48.425   6.561  14.004  0.00  0.00    +0.000 C 
BRANCH  18  19
ATOM     19  N   UNL     1      48.189   6.689  15.420  0.00  0.00    +0.000 N 
ATOM     20  C   UNL     1      49.170   6.481  16.353  0.00  0.00    +0.000 C 
ATOM     21  O   UNL     1      50.315   6.163  16.040  0.00  0.00    +0.000 OA
ATOM     22  H   UNL     1      47.219   6.749  15.715  0.00  0.00    +0.000 HD
BRANCH  20  23
ATOM     23  C   UNL     1      48.805   6.737  17.752  0.00  0.00    +0.000 A 
ATOM     24  C   UNL     1      48.498   8.031  18.150  0.00  0.00    +0.000 A 
ATOM     25  S   UNL     1      48.035   8.152  19.786  0.00  0.00    +0.000 S 
ATOM     26  C   UNL     1      48.273   6.485  20.032  0.00  0.00    +0.000 A 
ATOM     27  N   UNL     1      48.062   5.924  21.253  0.00  0.00    +0.000 NA
ATOM     28  C   UNL     1      48.313   4.658  21.308  0.00  0.00    +0.000 A 
ATOM     29  N   UNL     1      48.749   3.902  20.251  0.00  0.00    +0.000 N 
ATOM     30  C   UNL     1      48.934   4.418  18.990  0.00  0.00    +0.000 A 
ATOM     31  O   UNL     1      49.257   3.701  18.049  0.00  0.00    +0.000 OA
ATOM     32  C   UNL     1      48.686   5.843  18.878  0.00  0.00    +0.000 A 
ATOM     33  H   UNL     1      48.915   2.913  20.357  0.00  0.00    +0.000 HD
ENDBRANCH  20  23
ENDBRANCH  18  19
ENDBRANCH   4  18
TORSDOF 7
ENDMDL
MODEL 2
REMARK VINA RESULT:    -7.916      1.291      1.928
REMARK INTER + INTRA:         -12.141
REMARK INTER:                 -10.922
REMARK INTRA:                  -1.218
REMARK UNBOUND:                -0.986
REMARK  Name = 
REMARK  8 active torsions:
REMARK  status: ('A' for Active; 'I' for Inactive)
REMARK    1  A    between atoms: C_1  and  O_2
REMARK    2  A    between atoms: O_2  and  C_3
REMARK    3  A    between atoms: C_7  and  C_8
REMARK    4  A    between atoms: C_8  and  O_9
REMARK    5  A    between atoms: O_9  and  C_10
REMARK    6  A    between atoms: C_13  and  C_14
REMARK    7  A    between atoms: C_14  and  N_15
REMARK    8  A    between atoms: C_16  and  C_18
REMARK                            x       y       z     vdW  Elec       q    Type
REMARK                         _______ _______ _______ _____ _____    ______ ____
ROOT
ATOM      1  C   UNL     1      45.042   5.010  12.196  0.00  0.00    +0.000 A 
ATOM      2  C   UNL     1      45.788   4.180  13.035  0.00  0.00    +0.000 A 
ATOM      3  C   UNL     1      46.850   4.698  13.775  0.00  0.00    +0.000 A 
ATOM      4  C   UNL     1      47.196   6.050  13.657  0.00  0.00    +0.000 A 
ATOM      5  C   UNL     1      46.449   6.861  12.801  0.00  0.00    +0.000 A 
ATOM      6  F   UNL     1      46.756   8.160  12.673  0.00  0.00    +0.000 F 
ATOM      7  C   UNL     1      45.386   6.353  12.063  0.00  0.00    +0.000 A 
ENDROOT
BRANCH   1   8
ATOM      8  O   UNL     1      44.007   4.402  11.539  0.00  0.00    +0.000 OA
BRANCH   8   9
ATOM      9  C   UNL     1      43.907   4.728  10.150  0.00  0.00    +0.000 C 
BRANCH   9  14
ATOM     10  C   UNL     1      46.024   3.482   7.420  0.00  0.00    +0.000 A 
ATOM     11  C   UNL     1      46.152   2.122   7.652  0.00  0.00    +0.000 A 
ATOM     12  C   UNL     1      45.519   1.581   8.765  0.00  0.00    +0.000 A 
ATOM     13  C   UNL     1      44.788   2.414   9.603  0.00  0.00    +0.000 A 
ATOM     14  C   UNL     1      44.722   3.774   9.309  0.00  0.00    +0.000 A 
ATOM     15  N   UNL     1      45.321   4.312   8.216  0.00  0.00    +0.000 NA
BRANCH  10  17
ATOM     16  C   UNL     1      47.094   2.964   5.413  0.00  0.00    +0.000 C 
ATOM     17  O   UNL     1      46.664   3.986   6.308  0.00  0.00    +0.000 OA
ENDBRANCH  10  17
ENDBRANCH   9  14
ENDBRANCH   8   9
ENDBRANCH   1   8
BRANCH   4  18
ATOM     18  C   UNL     1      48.326   6.629  14.454  0.00  0.00    +0.000 C 
BRANCH  18  19
ATOM     19  N   UNL     1      48.147   6.407  15.867  0.00  0.00    +0.000 N 
ATOM     20  C   UNL     1      49.169   6.001  16.684  0.00  0.00    +0.000 C 
ATOM     21  O   UNL     1      50.304   5.793  16.261  0.00  0.00    +0.000 OA
ATOM     22  H   UNL     1      47.190   6.372  16.203  0.00  0.00    +0.000 HD
BRANCH  20  23
ATOM     23  C   UNL     1      48.859   5.904  18.116  0.00  0.00    +0.000 A 
ATOM     24  C   UNL     1      49.106   4.715  18.788  0.00  0.00    +0.000 A 
ATOM     25  S   UNL     1      48.750   4.783  20.453  0.00  0.00    +0.000 S 
ATOM     26  C   UNL     1      48.209   6.391  20.327  0.00  0.00    +0.000 A 
ATOM     27  N   UNL     1      47.741   7.057  21.416  0.00  0.00    +0.000 NA
ATOM     28  C   UNL     1      47.332   8.258  21.172  0.00  0.00    +0.000 A 
ATOM     29  N   UNL     1      47.355   8.854  19.938  0.00  0.00    +0.000 N 
ATOM     30  C   UNL     1      47.857   8.235  18.819  0.00  0.00    +0.000 A 
ATOM     31  O   UNL     1      47.929   8.821  17.743  0.00  0.00    +0.000 OA
ATOM     32  C   UNL     1      48.312   6.874  19.034  0.00  0.00    +0.000 A 
ATOM     33  H   UNL     1      47.031   9.802  19.817  0.00  0.00    +0.000 HD
ENDBRANCH  20  23
ENDBRANCH  18  19
ENDBRANCH   4  18
TORSDOF 7
ENDMDL
MODEL 3
REMARK VINA RESULT:    -7.784      2.396      2.793
REMARK INTER + INTRA:         -11.955
REMARK INTER:                 -10.955
REMARK INTRA:                  -1.000
REMARK UNBOUND:                -0.986
REMARK  Name = 
REMARK  8 active torsions:
REMARK  status: ('A' for Active; 'I' for Inactive)
REMARK    1  A    between atoms: C_1  and  O_2
REMARK    2  A    between atoms: O_2  and  C_3
REMARK    3  A    between atoms: C_7  and  C_8
REMARK    4  A    between atoms: C_8  and  O_9
REMARK    5  A    between atoms: O_9  and  C_10
REMARK    6  A    between atoms: C_13  and  C_14
REMARK    7  A    between atoms: C_14  and  N_15
REMARK    8  A    between atoms: C_16  and  C_18
REMARK                            x       y       z     vdW  Elec       q    Type
REMARK                         _______ _______ _______ _____ _____    ______ ____
ROOT
ATOM      1  C   UNL     1      44.967   4.313  12.836  0.00  0.00    +0.000 A 
ATOM      2  C   UNL     1      46.301   4.043  13.148  0.00  0.00    +0.000 A 
ATOM      3  C   UNL     1      47.191   5.086  13.403  0.00  0.00    +0.000 A 
ATOM      4  C   UNL     1      46.759   6.415  13.317  0.00  0.00    +0.000 A 
ATOM      5  C   UNL     1      45.426   6.666  12.987  0.00  0.00    +0.000 A 
ATOM      6  F   UNL     1      44.985   7.930  12.902  0.00  0.00    +0.000 F 
ATOM      7  C   UNL     1      44.532   5.632  12.736  0.00  0.00    +0.000 A 
ENDROOT
BRANCH   1   8
ATOM      8  O   UNL     1      44.178   3.214  12.632  0.00  0.00    +0.000 OA
BRANCH   8   9
ATOM      9  C   UNL     1      43.336   3.289  11.478  0.00  0.00    +0.000 C 
BRANCH   9  14
ATOM     10  C   UNL     1      45.465   1.991   8.782  0.00  0.00    +0.000 A 
ATOM     11  C   UNL     1      45.737   3.084   7.977  0.00  0.00    +0.000 A 
ATOM     12  C   UNL     1      45.191   4.313   8.326  0.00  0.00    +0.000 A 
ATOM     13  C   UNL     1      44.393   4.404   9.460  0.00  0.00    +0.000 A 
ATOM     14  C   UNL     1      44.154   3.253  10.208  0.00  0.00    +0.000 A 
ATOM     15  N   UNL     1      44.696   2.051   9.887  0.00  0.00    +0.000 NA
BRANCH  10  17
ATOM     16  C   UNL     1      47.030   0.936   7.410  0.00  0.00    +0.000 C 
ATOM     17  O   UNL     1      46.023   0.787   8.407  0.00  0.00    +0.000 OA
ENDBRANCH  10  17
ENDBRANCH   9  14
ENDBRANCH   8   9
ENDBRANCH   1   8
BRANCH   4  18
ATOM     18  C   UNL     1      47.696   7.550  13.600  0.00  0.00    +0.000 C 
BRANCH  18  19
ATOM     19  N   UNL     1      48.917   7.089  14.210  0.00  0.00    +0.000 N 
ATOM     20  C   UNL     1      49.250   7.386  15.506  0.00  0.00    +0.000 C 
ATOM     21  O   UNL     1      48.531   8.072  16.227  0.00  0.00    +0.000 OA
ATOM     22  H   UNL     1      49.617   6.699  13.587  0.00  0.00    +0.000 HD
BRANCH  20  23
ATOM     23  C   UNL     1      50.482   6.771  16.018  0.00  0.00    +0.000 A 
ATOM     24  C   UNL     1      51.712   7.303  15.656  0.00  0.00    +0.000 A 
ATOM     25  S   UNL     1      53.038   6.518  16.382  0.00  0.00    +0.000 S 
ATOM     26  C   UNL     1      52.018   5.407  17.171  0.00  0.00    +0.000 A 
ATOM     27  N   UNL     1      52.532   4.428  17.962  0.00  0.00    +0.000 NA
ATOM     28  C   UNL     1      51.648   3.635  18.472  0.00  0.00    +0.000 A 
ATOM     29  N   UNL     1      50.297   3.737  18.265  0.00  0.00    +0.000 N 
ATOM     30  C   UNL     1      49.731   4.735  17.508  0.00  0.00    +0.000 A 
ATOM     31  O   UNL     1      48.513   4.841  17.401  0.00  0.00    +0.000 OA
ATOM     32  C   UNL     1      50.682   5.643  16.895  0.00  0.00    +0.000 A 
ATOM     33  H   UNL     1      49.658   3.091  18.704  0.00  0.00    +0.000 HD
ENDBRANCH  20  23
ENDBRANCH  18  19
ENDBRANCH   4  18
TORSDOF 7
ENDMDL
MODEL 4
REMARK VINA RESULT:    -7.237      2.883      8.925
REMARK INTER + INTRA:         -11.184
REMARK INTER:                  -9.786
REMARK INTRA:                  -1.398
REMARK UNBOUND:                -0.986
REMARK  Name = 
REMARK  8 active torsions:
REMARK  status: ('A' for Active; 'I' for Inactive)
REMARK    1  A    between atoms: C_1  and  O_2
REMARK    2  A    between atoms: O_2  and  C_3
REMARK    3  A    between atoms: C_7  and  C_8
REMARK    4  A    between atoms: C_8  and  O_9
REMARK    5  A    between atoms: O_9  and  C_10
REMARK    6  A    between atoms: C_13  and  C_14
REMARK    7  A    between atoms: C_14  and  N_15
REMARK    8  A    between atoms: C_16  and  C_18
REMARK                            x       y       z     vdW  Elec       q    Type
REMARK                         _______ _______ _______ _____ _____    ______ ____
ROOT
ATOM      1  C   UNL     1      49.713   8.296  15.414  0.00  0.00    +0.000 A 
ATOM      2  C   UNL     1      48.406   8.786  15.377  0.00  0.00    +0.000 A 
ATOM      3  C   UNL     1      47.654   8.700  14.206  0.00  0.00    +0.000 A 
ATOM      4  C   UNL     1      48.216   8.150  13.048  0.00  0.00    +0.000 A 
ATOM      5  C   UNL     1      49.529   7.680  13.098  0.00  0.00    +0.000 A 
ATOM      6  F   UNL     1      50.090   7.144  12.004  0.00  0.00    +0.000 F 
ATOM      7  C   UNL     1      50.285   7.758  14.262  0.00  0.00    +0.000 A 
ENDROOT
BRANCH   1   8
ATOM      8  O   UNL     1      50.348   8.407  16.620  0.00  0.00    +0.000 OA
BRANCH   8   9
ATOM      9  C   UNL     1      50.822   7.171  17.163  0.00  0.00    +0.000 C 
BRANCH   9  14
ATOM     10  C   UNL     1      48.583   4.267  16.960  0.00  0.00    +0.000 A 
ATOM     11  C   UNL     1      47.579   4.518  17.880  0.00  0.00    +0.000 A 
ATOM     12  C   UNL     1      47.637   5.696  18.615  0.00  0.00    +0.000 A 
ATOM     13  C   UNL     1      48.693   6.575  18.406  0.00  0.00    +0.000 A 
ATOM     14  C   UNL     1      49.672   6.241  17.474  0.00  0.00    +0.000 A 
ATOM     15  N   UNL     1      49.618   5.102  16.738  0.00  0.00    +0.000 NA
BRANCH  10  17
ATOM     16  C   UNL     1      49.374   2.083  16.742  0.00  0.00    +0.000 C 
ATOM     17  O   UNL     1      48.494   3.089  16.248  0.00  0.00    +0.000 OA
ENDBRANCH  10  17
ENDBRANCH   9  14
ENDBRANCH   8   9
ENDBRANCH   1   8
BRANCH   4  18
ATOM     18  C   UNL     1      47.419   8.037  11.783  0.00  0.00    +0.000 C 
BRANCH  18  19
ATOM     19  N   UNL     1      46.738   6.769  11.697  0.00  0.00    +0.000 N 
ATOM     20  C   UNL     1      45.373   6.670  11.636  0.00  0.00    +0.000 C 
ATOM     21  O   UNL     1      44.642   7.656  11.658  0.00  0.00    +0.000 OA
ATOM     22  H   UNL     1      47.296   5.941  11.880  0.00  0.00    +0.000 HD
BRANCH  20  23
ATOM     23  C   UNL     1      44.827   5.318  11.459  0.00  0.00    +0.000 A 
ATOM     24  C   UNL     1      44.093   4.739  12.485  0.00  0.00    +0.000 A 
ATOM     25  S   UNL     1      43.477   3.198  12.102  0.00  0.00    +0.000 S 
ATOM     26  C   UNL     1      44.208   3.228  10.566  0.00  0.00    +0.000 A 
ATOM     27  N   UNL     1      44.083   2.177   9.712  0.00  0.00    +0.000 NA
ATOM     28  C   UNL     1      44.715   2.318   8.595  0.00  0.00    +0.000 A 
ATOM     29  N   UNL     1      45.457   3.419   8.252  0.00  0.00    +0.000 N 
ATOM     30  C   UNL     1      45.577   4.521   9.065  0.00  0.00    +0.000 A 
ATOM     31  O   UNL     1      46.190   5.519   8.699  0.00  0.00    +0.000 OA
ATOM     32  C   UNL     1      44.901   4.405  10.343  0.00  0.00    +0.000 A 
ATOM     33  H   UNL     1      45.918   3.472   7.356  0.00  0.00    +0.000 HD
ENDBRANCH  20  23
ENDBRANCH  18  19
ENDBRANCH   4  18
TORSDOF 7
ENDMDL
MODEL 5
REMARK VINA RESULT:    -7.102      3.754      8.159
REMARK INTER + INTRA:         -10.995
REMARK INTER:                  -9.525
REMARK INTRA:                  -1.469
REMARK UNBOUND:                -0.986
REMARK  Name = 
REMARK  8 active torsions:
REMARK  status: ('A' for Active; 'I' for Inactive)
REMARK    1  A    between atoms: C_1  and  O_2
REMARK    2  A    between atoms: O_2  and  C_3
REMARK    3  A    between atoms: C_7  and  C_8
REMARK    4  A    between atoms: C_8  and  O_9
REMARK    5  A    between atoms: O_9  and  C_10
REMARK    6  A    between atoms: C_13  and  C_14
REMARK    7  A    between atoms: C_14  and  N_15
REMARK    8  A    between atoms: C_16  and  C_18
REMARK                            x       y       z     vdW  Elec       q    Type
REMARK                         _______ _______ _______ _____ _____    ______ ____
ROOT
ATOM      1  C   UNL     1      49.995   6.881  18.077  0.00  0.00    +0.000 A 
ATOM      2  C   UNL     1      50.480   6.694  16.781  0.00  0.00    +0.000 A 
ATOM      3  C   UNL     1      49.961   7.437  15.721  0.00  0.00    +0.000 A 
ATOM      4  C   UNL     1      48.926   8.354  15.944  0.00  0.00    +0.000 A 
ATOM      5  C   UNL     1      48.443   8.515  17.244  0.00  0.00    +0.000 A 
ATOM      6  F   UNL     1      47.456   9.390  17.486  0.00  0.00    +0.000 F 
ATOM      7  C   UNL     1      48.958   7.783  18.307  0.00  0.00    +0.000 A 
ENDROOT
BRANCH   1   8
ATOM      8  O   UNL     1      50.595   6.120  19.044  0.00  0.00    +0.000 OA
BRANCH   8   9
ATOM      9  C   UNL     1      49.741   5.149  19.655  0.00  0.00    +0.000 C 
BRANCH   9  14
ATOM     10  C   UNL     1      49.681   2.489  17.124  0.00  0.00    +0.000 A 
ATOM     11  C   UNL     1      48.369   2.435  16.685  0.00  0.00    +0.000 A 
ATOM     12  C   UNL     1      47.448   3.309  17.250  0.00  0.00    +0.000 A 
ATOM     13  C   UNL     1      47.870   4.199  18.231  0.00  0.00    +0.000 A 
ATOM     14  C   UNL     1      49.204   4.178  18.629  0.00  0.00    +0.000 A 
ATOM     15  N   UNL     1      50.116   3.342  18.073  0.00  0.00    +0.000 NA
BRANCH  10  17
ATOM     16  C   UNL     1      51.688   1.326  17.377  0.00  0.00    +0.000 C 
ATOM     17  O   UNL     1      50.568   1.608  16.542  0.00  0.00    +0.000 OA
ENDBRANCH  10  17
ENDBRANCH   9  14
ENDBRANCH   8   9
ENDBRANCH   1   8
BRANCH   4  18
ATOM     18  C   UNL     1      48.364   9.170  14.820  0.00  0.00    +0.000 C 
BRANCH  18  19
ATOM     19  N   UNL     1      47.271   8.493  14.169  0.00  0.00    +0.000 N 
ATOM     20  C   UNL     1      47.449   7.700  13.066  0.00  0.00    +0.000 C 
ATOM     21  O   UNL     1      48.553   7.521  12.558  0.00  0.00    +0.000 OA
ATOM     22  H   UNL     1      46.335   8.780  14.437  0.00  0.00    +0.000 HD
BRANCH  20  23
ATOM     23  C   UNL     1      46.256   7.003  12.566  0.00  0.00    +0.000 A 
ATOM     24  C   UNL     1      45.265   7.727  11.918  0.00  0.00    +0.000 A 
ATOM     25  S   UNL     1      43.980   6.767  11.345  0.00  0.00    +0.000 S 
ATOM     26  C   UNL     1      44.679   5.353  11.984  0.00  0.00    +0.000 A 
ATOM     27  N   UNL     1      44.062   4.149  11.853  0.00  0.00    +0.000 NA
ATOM     28  C   UNL     1      44.686   3.166  12.414  0.00  0.00    +0.000 A 
ATOM     29  N   UNL     1      45.873   3.279  13.089  0.00  0.00    +0.000 N 
ATOM     30  C   UNL     1      46.553   4.468  13.210  0.00  0.00    +0.000 A 
ATOM     31  O   UNL     1      47.649   4.523  13.759  0.00  0.00    +0.000 OA
ATOM     32  C   UNL     1      45.885   5.609  12.614  0.00  0.00    +0.000 A 
ATOM     33  H   UNL     1      46.316   2.468  13.495  0.00  0.00    +0.000 HD
ENDBRANCH  20  23
ENDBRANCH  18  19
ENDBRANCH   4  18
TORSDOF 7
ENDMDL
MODEL 6
REMARK VINA RESULT:    -7.043      3.891      8.356
REMARK INTER + INTRA:         -10.911
REMARK INTER:                  -9.169
REMARK INTRA:                  -1.742
REMARK UNBOUND:                -0.986
REMARK  Name = 
REMARK  8 active torsions:
REMARK  status: ('A' for Active; 'I' for Inactive)
REMARK    1  A    between atoms: C_1  and  O_2
REMARK    2  A    between atoms: O_2  and  C_3
REMARK    3  A    between atoms: C_7  and  C_8
REMARK    4  A    between atoms: C_8  and  O_9
REMARK    5  A    between atoms: O_9  and  C_10
REMARK    6  A    between atoms: C_13  and  C_14
REMARK    7  A    between atoms: C_14  and  N_15
REMARK    8  A    between atoms: C_16  and  C_18
REMARK                            x       y       z     vdW  Elec       q    Type
REMARK                         _______ _______ _______ _____ _____    ______ ____
ROOT
ATOM      1  C   UNL     1      51.070   6.935  17.335  0.00  0.00    +0.000 A 
ATOM      2  C   UNL     1      50.090   7.703  17.969  0.00  0.00    +0.000 A 
ATOM      3  C   UNL     1      49.166   8.427  17.216  0.00  0.00    +0.000 A 
ATOM      4  C   UNL     1      49.233   8.414  15.818  0.00  0.00    +0.000 A 
ATOM      5  C   UNL     1      50.229   7.654  15.202  0.00  0.00    +0.000 A 
ATOM      6  F   UNL     1      50.313   7.620  13.864  0.00  0.00    +0.000 F 
ATOM      7  C   UNL     1      51.152   6.926  15.944  0.00  0.00    +0.000 A 
ENDROOT
BRANCH   1   8
ATOM      8  O   UNL     1      51.906   6.245  18.170  0.00  0.00    +0.000 OA
BRANCH   8   9
ATOM      9  C   UNL     1      51.268   5.230  18.949  0.00  0.00    +0.000 C 
BRANCH   9  14
ATOM     10  C   UNL     1      50.590   2.163  17.047  0.00  0.00    +0.000 A 
ATOM     11  C   UNL     1      51.700   1.359  17.248  0.00  0.00    +0.000 A 
ATOM     12  C   UNL     1      52.732   1.845  18.041  0.00  0.00    +0.000 A 
ATOM     13  C   UNL     1      52.619   3.112  18.601  0.00  0.00    +0.000 A 
ATOM     14  C   UNL     1      51.478   3.865  18.336  0.00  0.00    +0.000 A 
ATOM     15  N   UNL     1      50.456   3.395  17.577  0.00  0.00    +0.000 NA
BRANCH  10  17
ATOM     16  C   UNL     1      48.371   2.387  16.363  0.00  0.00    +0.000 C 
ATOM     17  O   UNL     1      49.585   1.650  16.254  0.00  0.00    +0.000 OA
ENDBRANCH  10  17
ENDBRANCH   9  14
ENDBRANCH   8   9
ENDBRANCH   1   8
BRANCH   4  18
ATOM     18  C   UNL     1      48.241   9.174  14.991  0.00  0.00    +0.000 C 
BRANCH  18  19
ATOM     19  N   UNL     1      47.263   8.298  14.397  0.00  0.00    +0.000 N 
ATOM     20  C   UNL     1      47.057   8.235  13.044  0.00  0.00    +0.000 C 
ATOM     21  O   UNL     1      47.689   8.929  12.251  0.00  0.00    +0.000 OA
ATOM     22  H   UNL     1      46.594   7.869  15.028  0.00  0.00    +0.000 HD
BRANCH  20  23
ATOM     23  C   UNL     1      46.093   7.230  12.578  0.00  0.00    +0.000 A 
ATOM     24  C   UNL     1      44.988   7.635  11.842  0.00  0.00    +0.000 A 
ATOM     25  S   UNL     1      44.000   6.347  11.325  0.00  0.00    +0.000 S 
ATOM     26  C   UNL     1      44.989   5.203  12.107  0.00  0.00    +0.000 A 
ATOM     27  N   UNL     1      44.687   3.878  12.069  0.00  0.00    +0.000 NA
ATOM     28  C   UNL     1      45.502   3.126  12.731  0.00  0.00    +0.000 A 
ATOM     29  N   UNL     1      46.595   3.580  13.423  0.00  0.00    +0.000 N 
ATOM     30  C   UNL     1      46.962   4.905  13.454  0.00  0.00    +0.000 A 
ATOM     31  O   UNL     1      47.985   5.270  14.023  0.00  0.00    +0.000 OA
ATOM     32  C   UNL     1      46.066   5.796  12.741  0.00  0.00    +0.000 A 
ATOM     33  H   UNL     1      47.200   2.937  13.911  0.00  0.00    +0.000 HD
ENDBRANCH  20  23
ENDBRANCH  18  19
ENDBRANCH   4  18
TORSDOF 7
ENDMDL
MODEL 7
REMARK VINA RESULT:    -6.942      4.640      6.207
REMARK INTER + INTRA:         -10.769
REMARK INTER:                  -9.410
REMARK INTRA:                  -1.358
REMARK UNBOUND:                -0.986
REMARK  Name = 
REMARK  8 active torsions:
REMARK  status: ('A' for Active; 'I' for Inactive)
REMARK    1  A    between atoms: C_1  and  O_2
REMARK    2  A    between atoms: O_2  and  C_3
REMARK    3  A    between atoms: C_7  and  C_8
REMARK    4  A    between atoms: C_8  and  O_9
REMARK    5  A    between atoms: O_9  and  C_10
REMARK    6  A    between atoms: C_13  and  C_14
REMARK    7  A    between atoms: C_14  and  N_15
REMARK    8  A    between atoms: C_16  and  C_18
REMARK                            x       y       z     vdW  Elec       q    Type
REMARK                         _______ _______ _______ _____ _____    ______ ____
ROOT
ATOM      1  C   UNL     1      45.148   6.023  12.176  0.00  0.00    +0.000 A 
ATOM      2  C   UNL     1      44.737   7.305  11.807  0.00  0.00    +0.000 A 
ATOM      3  C   UNL     1      45.479   8.421  12.191  0.00  0.00    +0.000 A 
ATOM      4  C   UNL     1      46.627   8.265  12.978  0.00  0.00    +0.000 A 
ATOM      5  C   UNL     1      47.014   6.977  13.351  0.00  0.00    +0.000 A 
ATOM      6  F   UNL     1      48.112   6.799  14.101  0.00  0.00    +0.000 F 
ATOM      7  C   UNL     1      46.282   5.859  12.969  0.00  0.00    +0.000 A 
ENDROOT
BRANCH   1   8
ATOM      8  O   UNL     1      44.361   5.000  11.722  0.00  0.00    +0.000 OA
BRANCH   8   9
ATOM      9  C   UNL     1      43.992   5.097  10.343  0.00  0.00    +0.000 C 
BRANCH   9  14
ATOM     10  C   UNL     1      45.969   3.613   7.627  0.00  0.00    +0.000 A 
ATOM     11  C   UNL     1      45.973   2.252   7.883  0.00  0.00    +0.000 A 
ATOM     12  C   UNL     1      45.301   1.790   9.008  0.00  0.00    +0.000 A 
ATOM     13  C   UNL     1      44.654   2.702   9.834  0.00  0.00    +0.000 A 
ATOM     14  C   UNL     1      44.712   4.057   9.516  0.00  0.00    +0.000 A 
ATOM     15  N   UNL     1      45.350   4.518   8.411  0.00  0.00    +0.000 NA
BRANCH  10  17
ATOM     16  C   UNL     1      46.925   2.972   5.598  0.00  0.00    +0.000 C 
ATOM     17  O   UNL     1      46.646   4.036   6.503  0.00  0.00    +0.000 OA
ENDBRANCH  10  17
ENDBRANCH   9  14
ENDBRANCH   8   9
ENDBRANCH   1   8
BRANCH   4  18
ATOM     18  C   UNL     1      47.446   9.451  13.391  0.00  0.00    +0.000 C 
BRANCH  18  19
ATOM     19  N   UNL     1      48.707   9.493  12.694  0.00  0.00    +0.000 N 
ATOM     20  C   UNL     1      48.901  10.246  11.567  0.00  0.00    +0.000 C 
ATOM     21  O   UNL     1      48.007  10.929  11.073  0.00  0.00    +0.000 OA
ATOM     22  H   UNL     1      49.393   8.792  12.955  0.00  0.00    +0.000 HD
BRANCH  20  23
ATOM     23  C   UNL     1      50.264  10.260  11.019  0.00  0.00    +0.000 A 
ATOM     24  C   UNL     1      50.817  11.462  10.600  0.00  0.00    +0.000 A 
ATOM     25  S   UNL     1      52.424  11.321  10.049  0.00  0.00    +0.000 S 
ATOM     26  C   UNL     1      52.421   9.639  10.308  0.00  0.00    +0.000 A 
ATOM     27  N   UNL     1      53.516   8.887  10.017  0.00  0.00    +0.000 NA
ATOM     28  C   UNL     1      53.366   7.621  10.230  0.00  0.00    +0.000 A 
ATOM     29  N   UNL     1      52.222   7.042  10.713  0.00  0.00    +0.000 N 
ATOM     30  C   UNL     1      51.107   7.767  11.061  0.00  0.00    +0.000 A 
ATOM     31  O   UNL     1      50.124   7.227  11.557  0.00  0.00    +0.000 OA
ATOM     32  C   UNL     1      51.216   9.194  10.821  0.00  0.00    +0.000 A 
ATOM     33  H   UNL     1      52.173   6.046  10.869  0.00  0.00    +0.000 HD
ENDBRANCH  20  23
ENDBRANCH  18  19
ENDBRANCH   4  18
TORSDOF 7
ENDMDL
MODEL 8
REMARK VINA RESULT:    -6.771      4.123      9.269
REMARK INTER + INTRA:         -10.528
REMARK INTER:                  -9.286
REMARK INTRA:                  -1.242
REMARK UNBOUND:                -0.986
REMARK  Name = 
REMARK  8 active torsions:
REMARK  status: ('A' for Active; 'I' for Inactive)
REMARK    1  A    between atoms: C_1  and  O_2
REMARK    2  A    between atoms: O_2  and  C_3
REMARK    3  A    between atoms: C_7  and  C_8
REMARK    4  A    between atoms: C_8  and  O_9
REMARK    5  A    between atoms: O_9  and  C_10
REMARK    6  A    between atoms: C_13  and  C_14
REMARK    7  A    between atoms: C_14  and  N_15
REMARK    8  A    between atoms: C_16  and  C_18
REMARK                            x       y       z     vdW  Elec       q    Type
REMARK                         _______ _______ _______ _____ _____    ______ ____
ROOT
ATOM      1  C   UNL     1      51.232   3.900  18.267  0.00  0.00    +0.000 A 
ATOM      2  C   UNL     1      50.293   4.880  18.598  0.00  0.00    +0.000 A 
ATOM      3  C   UNL     1      48.970   4.760  18.174  0.00  0.00    +0.000 A 
ATOM      4  C   UNL     1      48.580   3.670  17.386  0.00  0.00    +0.000 A 
ATOM      5  C   UNL     1      49.535   2.709  17.051  0.00  0.00    +0.000 A 
ATOM      6  F   UNL     1      49.188   1.653  16.301  0.00  0.00    +0.000 F 
ATOM      7  C   UNL     1      50.855   2.818  17.473  0.00  0.00    +0.000 A 
ENDROOT
BRANCH   1   8
ATOM      8  O   UNL     1      52.492   4.105  18.758  0.00  0.00    +0.000 OA
BRANCH   8   9
ATOM      9  C   UNL     1      53.502   4.277  17.759  0.00  0.00    +0.000 C 
BRANCH   9  14
ATOM     10  C   UNL     1      53.322   7.469  15.952  0.00  0.00    +0.000 A 
ATOM     11  C   UNL     1      54.079   8.353  16.702  0.00  0.00    +0.000 A 
ATOM     12  C   UNL     1      54.677   7.887  17.867  0.00  0.00    +0.000 A 
ATOM     13  C   UNL     1      54.494   6.561  18.240  0.00  0.00    +0.000 A 
ATOM     14  C   UNL     1      53.704   5.740  17.439  0.00  0.00    +0.000 A 
ATOM     15  N   UNL     1      53.129   6.179  16.291  0.00  0.00    +0.000 NA
BRANCH  10  17
ATOM     16  C   UNL     1      51.319   7.965  14.863  0.00  0.00    +0.000 C 
ATOM     17  O   UNL     1      52.743   7.965  14.803  0.00  0.00    +0.000 OA
ENDBRANCH  10  17
ENDBRANCH   9  14
ENDBRANCH   8   9
ENDBRANCH   1   8
BRANCH   4  18
ATOM     18  C   UNL     1      47.160   3.516  16.932  0.00  0.00    +0.000 C 
BRANCH  18  19
ATOM     19  N   UNL     1      46.819   4.486  15.921  0.00  0.00    +0.000 N 
ATOM     20  C   UNL     1      46.900   4.213  14.581  0.00  0.00    +0.000 C 
ATOM     21  O   UNL     1      47.277   3.124  14.156  0.00  0.00    +0.000 OA
ATOM     22  H   UNL     1      46.702   5.445  16.234  0.00  0.00    +0.000 HD
BRANCH  20  23
ATOM     23  C   UNL     1      46.433   5.268  13.673  0.00  0.00    +0.000 A 
ATOM     24  C   UNL     1      47.252   6.360  13.418  0.00  0.00    +0.000 A 
ATOM     25  S   UNL     1      46.593   7.462  12.298  0.00  0.00    +0.000 S 
ATOM     26  C   UNL     1      45.169   6.542  12.147  0.00  0.00    +0.000 A 
ATOM     27  N   UNL     1      44.159   6.949  11.333  0.00  0.00    +0.000 NA
ATOM     28  C   UNL     1      43.125   6.175  11.340  0.00  0.00    +0.000 A 
ATOM     29  N   UNL     1      43.012   5.029  12.083  0.00  0.00    +0.000 N 
ATOM     30  C   UNL     1      44.023   4.558  12.887  0.00  0.00    +0.000 A 
ATOM     31  O   UNL     1      43.919   3.492  13.484  0.00  0.00    +0.000 OA
ATOM     32  C   UNL     1      45.203   5.402  12.931  0.00  0.00    +0.000 A 
ATOM     33  H   UNL     1      42.179   4.462  12.034  0.00  0.00    +0.000 HD
ENDBRANCH  20  23
ENDBRANCH  18  19
ENDBRANCH   4  18
TORSDOF 7
ENDMDL
MODEL 9
REMARK VINA RESULT:    -6.700      4.906      9.688
REMARK INTER + INTRA:         -10.428
REMARK INTER:                  -9.223
REMARK INTRA:                  -1.204
REMARK UNBOUND:                -0.986
REMARK  Name = 
REMARK  8 active torsions:
REMARK  status: ('A' for Active; 'I' for Inactive)
REMARK    1  A    between atoms: C_1  and  O_2
REMARK    2  A    between atoms: O_2  and  C_3
REMARK    3  A    between atoms: C_7  and  C_8
REMARK    4  A    between atoms: C_8  and  O_9
REMARK    5  A    between atoms: O_9  and  C_10
REMARK    6  A    between atoms: C_13  and  C_14
REMARK    7  A    between atoms: C_14  and  N_15
REMARK    8  A    between atoms: C_16  and  C_18
REMARK                            x       y       z     vdW  Elec       q    Type
REMARK                         _______ _______ _______ _____ _____    ______ ____
ROOT
ATOM      1  C   UNL     1      51.566   3.120  18.154  0.00  0.00    +0.000 A 
ATOM      2  C   UNL     1      50.923   4.287  18.573  0.00  0.00    +0.000 A 
ATOM      3  C   UNL     1      49.592   4.519  18.231  0.00  0.00    +0.000 A 
ATOM      4  C   UNL     1      48.898   3.597  17.437  0.00  0.00    +0.000 A 
ATOM      5  C   UNL     1      49.562   2.444  17.014  0.00  0.00    +0.000 A 
ATOM      6  F   UNL     1      48.920   1.543  16.257  0.00  0.00    +0.000 F 
ATOM      7  C   UNL     1      50.888   2.203  17.354  0.00  0.00    +0.000 A 
ENDROOT
BRANCH   1   8
ATOM      8  O   UNL     1      52.863   2.983  18.570  0.00  0.00    +0.000 OA
BRANCH   8   9
ATOM      9  C   UNL     1      53.798   2.696  17.526  0.00  0.00    +0.000 C 
BRANCH   9  14
ATOM     10  C   UNL     1      54.316  -0.735  18.729  0.00  0.00    +0.000 A 
ATOM     11  C   UNL     1      54.897  -1.408  17.667  0.00  0.00    +0.000 A 
ATOM     12  C   UNL     1      55.127  -0.708  16.489  0.00  0.00    +0.000 A 
ATOM     13  C   UNL     1      54.767   0.633  16.414  0.00  0.00    +0.000 A 
ATOM     14  C   UNL     1      54.171   1.231  17.521  0.00  0.00    +0.000 A 
ATOM     15  N   UNL     1      53.957   0.564  18.683  0.00  0.00    +0.000 NA
BRANCH  10  17
ATOM     16  C   UNL     1      53.786  -2.824  19.622  0.00  0.00    +0.000 C 
ATOM     17  O   UNL     1      54.101  -1.460  19.883  0.00  0.00    +0.000 OA
ENDBRANCH  10  17
ENDBRANCH   9  14
ENDBRANCH   8   9
ENDBRANCH   1   8
BRANCH   4  18
ATOM     18  C   UNL     1      47.463   3.822  17.070  0.00  0.00    +0.000 C 
BRANCH  18  19
ATOM     19  N   UNL     1      47.336   4.747  15.971  0.00  0.00    +0.000 N 
ATOM     20  C   UNL     1      47.251   4.334  14.668  0.00  0.00    +0.000 C 
ATOM     21  O   UNL     1      47.286   3.148  14.352  0.00  0.00    +0.000 OA
ATOM     22  H   UNL     1      47.507   5.725  16.179  0.00  0.00    +0.000 HD
BRANCH  20  23
ATOM     23  C   UNL     1      47.033   5.385  13.665  0.00  0.00    +0.000 A 
ATOM     24  C   UNL     1      45.946   5.293  12.806  0.00  0.00    +0.000 A 
ATOM     25  S   UNL     1      45.798   6.619  11.746  0.00  0.00    +0.000 S 
ATOM     26  C   UNL     1      47.209   7.341  12.365  0.00  0.00    +0.000 A 
ATOM     27  N   UNL     1      47.664   8.522  11.868  0.00  0.00    +0.000 NA
ATOM     28  C   UNL     1      48.762   8.940  12.405  0.00  0.00    +0.000 A 
ATOM     29  N   UNL     1      49.443   8.285  13.398  0.00  0.00    +0.000 N 
ATOM     30  C   UNL     1      48.998   7.112  13.960  0.00  0.00    +0.000 A 
ATOM     31  O   UNL     1      49.593   6.587  14.896  0.00  0.00    +0.000 OA
ATOM     32  C   UNL     1      47.777   6.588  13.377  0.00  0.00    +0.000 A 
ATOM     33  H   UNL     1      50.291   8.672  13.784  0.00  0.00    +0.000 HD
ENDBRANCH  20  23
ENDBRANCH  18  19
ENDBRANCH   4  18
TORSDOF 7
ENDMDL
