MODEL 1
REMARK VINA RESULT:    -7.833      0.000      0.000
REMARK INTER + INTRA:         -12.548
REMARK INTER:                 -11.038
REMARK INTRA:                  -1.510
REMARK UNBOUND:                -1.510
REMARK  Name = 
REMARK  8 active torsions:
REMARK  status: ('A' for Active; 'I' for Inactive)
REMARK    1  A    between atoms: C_1  and  C_2
REMARK    2  A    between atoms: C_2  and  N_3
REMARK    3  A    between atoms: C_4  and  C_6
REMARK    4  A    between atoms: C_10  and  C_11
REMARK    5  A    between atoms: C_11  and  C_12
REMARK    6  A    between atoms: C_15  and  C_16
REMARK    7  A    between atoms: C_16  and  N_17
REMARK    8  A    between atoms: C_18  and  C_20
REMARK                            x       y       z     vdW  Elec       q    Type
REMARK                         _______ _______ _______ _____ _____    ______ ____
ROOT
ATOM      1  C   UNL     1      44.901   7.121  11.417  0.00  0.00    +0.000 A 
ATOM      2  C   UNL     1      46.129   6.455  11.529  0.00  0.00    +0.000 A 
ATOM      3  C   UNL     1      47.144   6.962  12.349  0.00  0.00    +0.000 A 
ATOM      4  C   UNL     1      46.946   8.139  13.079  0.00  0.00    +0.000 A 
ATOM      5  C   UNL     1      45.748   8.844  12.906  0.00  0.00    +0.000 A 
ATOM      6  C   UNL     1      44.732   8.337  12.091  0.00  0.00    +0.000 A 
ENDROOT
BRANCH   1   7
ATOM      7  C   UNL     1      43.751   6.496  10.655  0.00  0.00    +0.000 C 
BRANCH   7  12
ATOM      8  C   UNL     1      44.669   2.887   9.786  0.00  0.00    +0.000 A 
ATOM      9  C   UNL     1      44.074   2.187  10.841  0.00  0.00    +0.000 A 
ATOM     10  C   UNL     1      43.314   2.872  11.791  0.00  0.00    +0.000 A 
ATOM     11  C   UNL     1      43.171   4.259  11.709  0.00  0.00    +0.000 A 
ATOM     12  C   UNL     1      43.796   4.982  10.682  0.00  0.00    +0.000 A 
ATOM     13  C   UNL     1      44.537   4.281   9.718  0.00  0.00    +0.000 A 
BRANCH   8  15
ATOM     14  N   UNL     1      46.193   3.021   7.886  0.00  0.00    +0.000 N 
ATOM     15  C   UNL     1      45.488   2.204   8.746  0.00  0.00    +0.000 C 
ATOM     16  O   UNL     1      45.534   0.979   8.703  0.00  0.00    +0.000 OA
ATOM     17  H   UNL     1      46.279   4.005   8.098  0.00  0.00    +0.000 HD
BRANCH  14  19
ATOM     18  C   UNL     1      46.807   3.125   5.513  0.00  0.00    +0.000 C 
ATOM     19  C   UNL     1      47.058   2.475   6.861  0.00  0.00    +0.000 C 
ENDBRANCH  14  19
ENDBRANCH   8  15
ENDBRANCH   7  12
ENDBRANCH   1   7
BRANCH   4  20
ATOM     20  C   UNL     1      47.993   8.643  14.039  0.00  0.00    +0.000 C 
BRANCH  20  21
ATOM     21  N   UNL     1      48.184   7.732  15.135  0.00  0.00    +0.000 N 
ATOM     22  C   UNL     1      49.356   7.039  15.293  0.00  0.00    +0.000 C 
ATOM     23  O   UNL     1      50.320   7.197  14.548  0.00  0.00    +0.000 OA
ATOM     24  H   UNL     1      47.344   7.399  15.595  0.00  0.00    +0.000 HD
BRANCH  22  25
ATOM     25  C   UNL     1      49.421   6.136  16.450  0.00  0.00    +0.000 A 
ATOM     26  C   UNL     1      50.392   6.324  17.424  0.00  0.00    +0.000 A 
ATOM     27  S   UNL     1      50.261   5.238  18.733  0.00  0.00    +0.000 S 
ATOM     28  C   UNL     1      48.940   4.440  18.013  0.00  0.00    +0.000 A 
ATOM     29  N   UNL     1      48.344   3.379  18.620  0.00  0.00    +0.000 NA
ATOM     30  C   UNL     1      47.378   2.853  17.943  0.00  0.00    +0.000 A 
ATOM     31  N   UNL     1      46.953   3.290  16.716  0.00  0.00    +0.000 N 
ATOM     32  C   UNL     1      47.507   4.371  16.075  0.00  0.00    +0.000 A 
ATOM     33  O   UNL     1      47.082   4.753  14.993  0.00  0.00    +0.000 OA
ATOM     34  C   UNL     1      48.600   5.001  16.794  0.00  0.00    +0.000 A 
ATOM     35  H   UNL     1      46.189   2.836  16.239  0.00  0.00    +0.000 HD
ENDBRANCH  22  25
ENDBRANCH  20  21
ENDBRANCH   4  20
TORSDOF 7
ENDMDL
MODEL 2
REMARK VINA RESULT:    -7.143      2.008      2.739
REMARK INTER + INTRA:         -11.577
REMARK INTER:                 -10.058
REMARK INTRA:                  -1.519
REMARK UNBOUND:                -1.510
REMARK  Name = 
REMARK  8 active torsions:
REMARK  status: ('A' for Active; 'I' for Inactive)
REMARK    1  A    between atoms: C_1  and  C_2
REMARK    2  A    between atoms: C_2  and  N_3
REMARK    3  A    between atoms: C_4  and  C_6
REMARK    4  A    between atoms: C_10  and  C_11
REMARK    5  A    between atoms: C_11  and  C_12
REMARK    6  A    between atoms: C_15  and  C_16
REMARK    7  A    between atoms: C_16  and  N_17
REMARK    8  A    between atoms: C_18  and  C_20
REMARK                            x       y       z     vdW  Elec       q    Type
REMARK                         _______ _______ _______ _____ _____    ______ ____
ROOT
ATOM      1  C   UNL     1      46.044   7.607  12.095  0.00  0.00    +0.000 A 
ATOM      2  C   UNL     1      47.233   6.924  11.800  0.00  0.00    +0.000 A 
ATOM      3  C   UNL     1      48.383   7.131  12.569  0.00  0.00    +0.000 A 
ATOM      4  C   UNL     1      48.365   8.016  13.653  0.00  0.00    +0.000 A 
ATOM      5  C   UNL     1      47.199   8.754  13.899  0.00  0.00    +0.000 A 
ATOM      6  C   UNL     1      46.048   8.545  13.134  0.00  0.00    +0.000 A 
ENDROOT
BRANCH   1   7
ATOM      7  C   UNL     1      44.761   7.271  11.364  0.00  0.00    +0.000 C 
BRANCH   7  12
ATOM      8  C   UNL     1      44.693   3.638  10.172  0.00  0.00    +0.000 A 
ATOM      9  C   UNL     1      44.207   2.982  11.308  0.00  0.00    +0.000 A 
ATOM     10  C   UNL     1      43.832   3.720  12.432  0.00  0.00    +0.000 A 
ATOM     11  C   UNL     1      43.968   5.109  12.437  0.00  0.00    +0.000 A 
ATOM     12  C   UNL     1      44.493   5.780  11.323  0.00  0.00    +0.000 A 
ATOM     13  C   UNL     1      44.844   5.031  10.188  0.00  0.00    +0.000 A 
BRANCH   8  15
ATOM     14  N   UNL     1      45.737   3.638   7.967  0.00  0.00    +0.000 N 
ATOM     15  C   UNL     1      45.106   2.898   8.946  0.00  0.00    +0.000 C 
ATOM     16  O   UNL     1      44.906   1.691   8.858  0.00  0.00    +0.000 OA
ATOM     17  H   UNL     1      46.056   4.572   8.181  0.00  0.00    +0.000 HD
BRANCH  14  19
ATOM     18  C   UNL     1      47.650   2.530   6.904  0.00  0.00    +0.000 C 
ATOM     19  C   UNL     1      46.223   3.023   6.750  0.00  0.00    +0.000 C 
ENDBRANCH  14  19
ENDBRANCH   8  15
ENDBRANCH   7  12
ENDBRANCH   1   7
BRANCH   4  20
ATOM     20  C   UNL     1      49.568   8.175  14.547  0.00  0.00    +0.000 C 
BRANCH  20  21
ATOM     21  N   UNL     1      49.914   6.935  15.188  0.00  0.00    +0.000 N 
ATOM     22  C   UNL     1      49.482   6.640  16.455  0.00  0.00    +0.000 C 
ATOM     23  O   UNL     1      48.736   7.385  17.086  0.00  0.00    +0.000 OA
ATOM     24  H   UNL     1      50.711   6.438  14.806  0.00  0.00    +0.000 HD
BRANCH  22  25
ATOM     25  C   UNL     1      49.910   5.344  16.997  0.00  0.00    +0.000 A 
ATOM     26  C   UNL     1      48.968   4.362  17.274  0.00  0.00    +0.000 A 
ATOM     27  S   UNL     1      49.653   2.896  17.814  0.00  0.00    +0.000 S 
ATOM     28  C   UNL     1      51.227   3.544  17.756  0.00  0.00    +0.000 A 
ATOM     29  N   UNL     1      52.307   2.799  18.114  0.00  0.00    +0.000 NA
ATOM     30  C   UNL     1      53.432   3.430  18.053  0.00  0.00    +0.000 A 
ATOM     31  N   UNL     1      53.577   4.737  17.666  0.00  0.00    +0.000 N 
ATOM     32  C   UNL     1      52.520   5.521  17.272  0.00  0.00    +0.000 A 
ATOM     33  O   UNL     1      52.689   6.675  16.902  0.00  0.00    +0.000 OA
ATOM     34  C   UNL     1      51.229   4.858  17.322  0.00  0.00    +0.000 A 
ATOM     35  H   UNL     1      54.486   5.173  17.637  0.00  0.00    +0.000 HD
ENDBRANCH  22  25
ENDBRANCH  20  21
ENDBRANCH   4  20
TORSDOF 7
ENDMDL
MODEL 3
REMARK VINA RESULT:    -7.126      2.347      2.948
REMARK INTER + INTRA:         -11.553
REMARK INTER:                 -10.277
REMARK INTRA:                  -1.275
REMARK UNBOUND:                -1.510
REMARK  Name = 
REMARK  8 active torsions:
REMARK  status: ('A' for Active; 'I' for Inactive)
REMARK    1  A    between atoms: C_1  and  C_2
REMARK    2  A    between atoms: C_2  and  N_3
REMARK    3  A    between atoms: C_4  and  C_6
REMARK    4  A    between atoms: C_10  and  C_11
REMARK    5  A    between atoms: C_11  and  C_12
REMARK    6  A    between atoms: C_15  and  C_16
REMARK    7  A    between atoms: C_16  and  N_17
REMARK    8  A    between atoms: C_18  and  C_20
REMARK                            x       y       z     vdW  Elec       q    Type
REMARK                         _______ _______ _______ _____ _____    ______ ____
ROOT
ATOM      1  C   UNL     1      46.395   7.550  12.382  0.00  0.00    +0.000 A 
ATOM      2  C   UNL     1      47.423   6.625  12.147  0.00  0.00    +0.000 A 
ATOM      3  C   UNL     1      48.580   6.629  12.933  0.00  0.00    +0.000 A 
ATOM      4  C   UNL     1      48.728   7.550  13.976  0.00  0.00    +0.000 A 
ATOM      5  C   UNL     1      47.735   8.522  14.161  0.00  0.00    +0.000 A 
ATOM      6  C   UNL     1      46.577   8.516  13.378  0.00  0.00    +0.000 A 
ENDROOT
BRANCH   1   7
ATOM      7  C   UNL     1      45.081   7.449  11.636  0.00  0.00    +0.000 C 
BRANCH   7  12
ATOM      8  C   UNL     1      44.445   3.885  10.404  0.00  0.00    +0.000 A 
ATOM      9  C   UNL     1      43.804   3.318  11.511  0.00  0.00    +0.000 A 
ATOM     10  C   UNL     1      43.512   4.106  12.626  0.00  0.00    +0.000 A 
ATOM     11  C   UNL     1      43.884   5.451  12.652  0.00  0.00    +0.000 A 
ATOM     12  C   UNL     1      44.564   6.026  11.568  0.00  0.00    +0.000 A 
ATOM     13  C   UNL     1      44.831   5.231  10.441  0.00  0.00    +0.000 A 
BRANCH   8  15
ATOM     14  N   UNL     1      45.508   3.736   8.213  0.00  0.00    +0.000 N 
ATOM     15  C   UNL     1      44.777   3.089   9.189  0.00  0.00    +0.000 C 
ATOM     16  O   UNL     1      44.431   1.915   9.107  0.00  0.00    +0.000 OA
ATOM     17  H   UNL     1      45.937   4.625   8.425  0.00  0.00    +0.000 HD
BRANCH  14  19
ATOM     18  C   UNL     1      47.428   2.816   6.994  0.00  0.00    +0.000 C 
ATOM     19  C   UNL     1      45.929   3.055   7.007  0.00  0.00    +0.000 C 
ENDBRANCH  14  19
ENDBRANCH   8  15
ENDBRANCH   7  12
ENDBRANCH   1   7
BRANCH   4  20
ATOM     20  C   UNL     1      49.925   7.503  14.891  0.00  0.00    +0.000 C 
BRANCH  20  21
ATOM     21  N   UNL     1      49.529   7.386  16.269  0.00  0.00    +0.000 N 
ATOM     22  C   UNL     1      48.978   6.231  16.760  0.00  0.00    +0.000 C 
ATOM     23  O   UNL     1      48.845   5.222  16.072  0.00  0.00    +0.000 OA
ATOM     24  H   UNL     1      49.392   8.256  16.773  0.00  0.00    +0.000 HD
BRANCH  22  25
ATOM     25  C   UNL     1      48.612   6.244  18.182  0.00  0.00    +0.000 A 
ATOM     26  C   UNL     1      48.788   5.105  18.956  0.00  0.00    +0.000 A 
ATOM     27  S   UNL     1      48.391   5.331  20.599  0.00  0.00    +0.000 S 
ATOM     28  C   UNL     1      47.912   6.941  20.321  0.00  0.00    +0.000 A 
ATOM     29  N   UNL     1      47.442   7.719  21.333  0.00  0.00    +0.000 NA
ATOM     30  C   UNL     1      47.086   8.905  20.969  0.00  0.00    +0.000 A 
ATOM     31  N   UNL     1      47.155   9.386  19.688  0.00  0.00    +0.000 N 
ATOM     32  C   UNL     1      47.645   8.648  18.639  0.00  0.00    +0.000 A 
ATOM     33  O   UNL     1      47.721   9.119  17.512  0.00  0.00    +0.000 OA
ATOM     34  C   UNL     1      48.061   7.303  18.993  0.00  0.00    +0.000 A 
ATOM     35  H   UNL     1      46.862  10.326  19.469  0.00  0.00    +0.000 HD
ENDBRANCH  22  25
ENDBRANCH  20  21
ENDBRANCH   4  20
TORSDOF 7
ENDMDL
MODEL 4
REMARK VINA RESULT:    -7.121      1.743      2.174
REMARK INTER + INTRA:         -11.545
REMARK INTER:                 -10.479
REMARK INTRA:                  -1.066
REMARK UNBOUND:                -1.510
REMARK  Name = 
REMARK  8 active torsions:
REMARK  status: ('A' for Active; 'I' for Inactive)
REMARK    1  A    between atoms: C_1  and  C_2
REMARK    2  A    between atoms: C_2  and  N_3
REMARK    3  A    between atoms: C_4  and  C_6
REMARK    4  A    between atoms: C_10  and  C_11
REMARK    5  A    between atoms: C_11  and  C_12
REMARK    6  A    between atoms: C_15  and  C_16
REMARK    7  A    between atoms: C_16  and  N_17
REMARK    8  A    between atoms: C_18  and  C_20
REMARK                            x       y       z     vdW  Elec       q    Type
REMARK                         _______ _______ _______ _____ _____    ______ ____
ROOT
ATOM      1  C   UNL     1      46.099   7.363  12.274  0.00  0.00    +0.000 A 
ATOM      2  C   UNL     1      47.122   6.452  11.978  0.00  0.00    +0.000 A 
ATOM      3  C   UNL     1      48.356   6.526  12.633  0.00  0.00    +0.000 A 
ATOM      4  C   UNL     1      48.588   7.506  13.604  0.00  0.00    +0.000 A 
ATOM      5  C   UNL     1      47.593   8.464  13.843  0.00  0.00    +0.000 A 
ATOM      6  C   UNL     1      46.358   8.388  13.193  0.00  0.00    +0.000 A 
ENDROOT
BRANCH   1   7
ATOM      7  C   UNL     1      44.716   7.191  11.681  0.00  0.00    +0.000 C 
BRANCH   7  12
ATOM      8  C   UNL     1      44.426   3.644  10.283  0.00  0.00    +0.000 A 
ATOM      9  C   UNL     1      43.809   2.975  11.346  0.00  0.00    +0.000 A 
ATOM     10  C   UNL     1      43.420   3.685  12.483  0.00  0.00    +0.000 A 
ATOM     11  C   UNL     1      43.672   5.055  12.576  0.00  0.00    +0.000 A 
ATOM     12  C   UNL     1      44.328   5.733  11.538  0.00  0.00    +0.000 A 
ATOM     13  C   UNL     1      44.692   5.015  10.388  0.00  0.00    +0.000 A 
BRANCH   8  15
ATOM     14  N   UNL     1      45.503   3.697   8.095  0.00  0.00    +0.000 N 
ATOM     15  C   UNL     1      44.859   2.934   9.046  0.00  0.00    +0.000 C 
ATOM     16  O   UNL     1      44.664   1.729   8.927  0.00  0.00    +0.000 OA
ATOM     17  H   UNL     1      45.816   4.627   8.336  0.00  0.00    +0.000 HD
BRANCH  14  19
ATOM     18  C   UNL     1      47.461   2.691   7.011  0.00  0.00    +0.000 C 
ATOM     19  C   UNL     1      46.010   3.112   6.871  0.00  0.00    +0.000 C 
ENDBRANCH  14  19
ENDBRANCH   8  15
ENDBRANCH   7  12
ENDBRANCH   1   7
BRANCH   4  20
ATOM     20  C   UNL     1      49.877   7.537  14.385  0.00  0.00    +0.000 C 
BRANCH  20  21
ATOM     21  N   UNL     1      49.632   7.578  15.801  0.00  0.00    +0.000 N 
ATOM     22  C   UNL     1      50.345   6.796  16.673  0.00  0.00    +0.000 C 
ATOM     23  O   UNL     1      51.262   6.067  16.303  0.00  0.00    +0.000 OA
ATOM     24  H   UNL     1      48.739   7.961  16.093  0.00  0.00    +0.000 HD
BRANCH  22  25
ATOM     25  C   UNL     1      49.994   6.928  18.093  0.00  0.00    +0.000 A 
ATOM     26  C   UNL     1      50.174   8.141  18.743  0.00  0.00    +0.000 A 
ATOM     27  S   UNL     1      49.632   8.132  20.361  0.00  0.00    +0.000 S 
ATOM     28  C   UNL     1      49.196   6.489  20.265  0.00  0.00    +0.000 A 
ATOM     29  N   UNL     1      48.668   5.839  21.337  0.00  0.00    +0.000 NA
ATOM     30  C   UNL     1      48.417   4.590  21.130  0.00  0.00    +0.000 A 
ATOM     31  N   UNL     1      48.645   3.930  19.951  0.00  0.00    +0.000 N 
ATOM     32  C   UNL     1      49.153   4.549  18.835  0.00  0.00    +0.000 A 
ATOM     33  O   UNL     1      49.314   3.936  17.788  0.00  0.00    +0.000 OA
ATOM     34  C   UNL     1      49.453   5.958  19.014  0.00  0.00    +0.000 A 
ATOM     35  H   UNL     1      48.424   2.950  19.853  0.00  0.00    +0.000 HD
ENDBRANCH  22  25
ENDBRANCH  20  21
ENDBRANCH   4  20
TORSDOF 7
ENDMDL
MODEL 5
REMARK VINA RESULT:    -7.047      3.456      8.653
REMARK INTER + INTRA:         -11.441
REMARK INTER:                  -9.845
REMARK INTRA:                  -1.597
REMARK UNBOUND:                -1.510
REMARK  Name = 
REMARK  8 active torsions:
REMARK  status: ('A' for Active; 'I' for Inactive)
REMARK    1  A    between atoms: C_1  and  C_2
REMARK    2  A    between atoms: C_2  and  N_3
REMARK    3  A    between atoms: C_4  and  C_6
REMARK    4  A    between atoms: C_10  and  C_11
REMARK    5  A    between atoms: C_11  and  C_12
REMARK    6  A    between atoms: C_15  and  C_16
REMARK    7  A    between atoms: C_16  and  N_17
REMARK    8  A    between atoms: C_18  and  C_20
REMARK                            x       y       z     vdW  Elec       q    Type
REMARK                         _______ _______ _______ _____ _____    ______ ____
ROOT
ATOM      1  C   UNL     1      51.050   4.199  18.222  0.00  0.00    +0.000 A 
ATOM      2  C   UNL     1      50.775   3.067  17.440  0.00  0.00    +0.000 A 
ATOM      3  C   UNL     1      49.465   2.774  17.046  0.00  0.00    +0.000 A 
ATOM      4  C   UNL     1      48.407   3.612  17.415  0.00  0.00    +0.000 A 
ATOM      5  C   UNL     1      48.672   4.698  18.260  0.00  0.00    +0.000 A 
ATOM      6  C   UNL     1      49.981   4.994  18.651  0.00  0.00    +0.000 A 
ENDROOT
BRANCH   1   7
ATOM      7  C   UNL     1      52.479   4.601  18.519  0.00  0.00    +0.000 C 
BRANCH   7  12
ATOM      8  C   UNL     1      53.053   7.036  15.626  0.00  0.00    +0.000 A 
ATOM      9  C   UNL     1      54.399   6.799  15.326  0.00  0.00    +0.000 A 
ATOM     10  C   UNL     1      55.099   5.802  16.008  0.00  0.00    +0.000 A 
ATOM     11  C   UNL     1      54.470   5.061  17.009  0.00  0.00    +0.000 A 
ATOM     12  C   UNL     1      53.133   5.313  17.352  0.00  0.00    +0.000 A 
ATOM     13  C   UNL     1      52.430   6.301  16.644  0.00  0.00    +0.000 A 
BRANCH   8  15
ATOM     14  N   UNL     1      51.922   7.827  13.615  0.00  0.00    +0.000 N 
ATOM     15  C   UNL     1      52.259   8.086  14.928  0.00  0.00    +0.000 C 
ATOM     16  O   UNL     1      51.916   9.099  15.526  0.00  0.00    +0.000 OA
ATOM     17  H   UNL     1      52.053   6.896  13.245  0.00  0.00    +0.000 HD
BRANCH  14  19
ATOM     18  C   UNL     1      50.423   8.057  11.686  0.00  0.00    +0.000 C 
ATOM     19  C   UNL     1      51.116   8.750  12.844  0.00  0.00    +0.000 C 
ENDBRANCH  14  19
ENDBRANCH   8  15
ENDBRANCH   7  12
ENDBRANCH   1   7
BRANCH   4  20
ATOM     20  C   UNL     1      47.007   3.361  16.917  0.00  0.00    +0.000 C 
BRANCH  20  21
ATOM     21  N   UNL     1      46.616   4.335  15.934  0.00  0.00    +0.000 N 
ATOM     22  C   UNL     1      46.847   4.135  14.597  0.00  0.00    +0.000 C 
ATOM     23  O   UNL     1      47.343   3.098  14.163  0.00  0.00    +0.000 OA
ATOM     24  H   UNL     1      46.449   5.276  16.274  0.00  0.00    +0.000 HD
BRANCH  22  25
ATOM     25  C   UNL     1      46.405   5.209  13.698  0.00  0.00    +0.000 A 
ATOM     26  C   UNL     1      47.239   6.290  13.445  0.00  0.00    +0.000 A 
ATOM     27  S   UNL     1      46.597   7.394  12.313  0.00  0.00    +0.000 S 
ATOM     28  C   UNL     1      45.157   6.496  12.171  0.00  0.00    +0.000 A 
ATOM     29  N   UNL     1      44.152   6.907  11.352  0.00  0.00    +0.000 NA
ATOM     30  C   UNL     1      43.108   6.148  11.369  0.00  0.00    +0.000 A 
ATOM     31  N   UNL     1      42.976   5.015  12.129  0.00  0.00    +0.000 N 
ATOM     32  C   UNL     1      43.971   4.548  12.952  0.00  0.00    +0.000 A 
ATOM     33  O   UNL     1      43.831   3.515  13.593  0.00  0.00    +0.000 OA
ATOM     34  C   UNL     1      45.170   5.366  12.970  0.00  0.00    +0.000 A 
ATOM     35  H   UNL     1      42.132   4.462  12.096  0.00  0.00    +0.000 HD
ENDBRANCH  22  25
ENDBRANCH  20  21
ENDBRANCH   4  20
TORSDOF 7
ENDMDL
MODEL 6
REMARK VINA RESULT:    -6.634      3.974      8.510
REMARK INTER + INTRA:         -10.859
REMARK INTER:                  -9.320
REMARK INTRA:                  -1.539
REMARK UNBOUND:                -1.510
REMARK  Name = 
REMARK  8 active torsions:
REMARK  status: ('A' for Active; 'I' for Inactive)
REMARK    1  A    between atoms: C_1  and  C_2
REMARK    2  A    between atoms: C_2  and  N_3
REMARK    3  A    between atoms: C_4  and  C_6
REMARK    4  A    between atoms: C_10  and  C_11
REMARK    5  A    between atoms: C_11  and  C_12
REMARK    6  A    between atoms: C_15  and  C_16
REMARK    7  A    between atoms: C_16  and  N_17
REMARK    8  A    between atoms: C_18  and  C_20
REMARK                            x       y       z     vdW  Elec       q    Type
REMARK                         _______ _______ _______ _____ _____    ______ ____
ROOT
ATOM      1  C   UNL     1      50.596   6.519  17.756  0.00  0.00    +0.000 A 
ATOM      2  C   UNL     1      49.467   7.229  18.189  0.00  0.00    +0.000 A 
ATOM      3  C   UNL     1      48.748   8.037  17.301  0.00  0.00    +0.000 A 
ATOM      4  C   UNL     1      49.137   8.142  15.961  0.00  0.00    +0.000 A 
ATOM      5  C   UNL     1      50.309   7.494  15.548  0.00  0.00    +0.000 A 
ATOM      6  C   UNL     1      51.026   6.683  16.434  0.00  0.00    +0.000 A 
ENDROOT
BRANCH   1   7
ATOM      7  C   UNL     1      51.282   5.529  18.673  0.00  0.00    +0.000 C 
BRANCH   7  12
ATOM      8  C   UNL     1      52.332   1.954  17.811  0.00  0.00    +0.000 A 
ATOM      9  C   UNL     1      51.134   1.424  17.317  0.00  0.00    +0.000 A 
ATOM     10  C   UNL     1      50.010   2.241  17.193  0.00  0.00    +0.000 A 
ATOM     11  C   UNL     1      50.066   3.579  17.589  0.00  0.00    +0.000 A 
ATOM     12  C   UNL     1      51.246   4.116  18.126  0.00  0.00    +0.000 A 
ATOM     13  C   UNL     1      52.379   3.292  18.223  0.00  0.00    +0.000 A 
BRANCH   8  15
ATOM     14  N   UNL     1      53.369  -0.224  18.172  0.00  0.00    +0.000 N 
ATOM     15  C   UNL     1      53.561   1.126  17.961  0.00  0.00    +0.000 C 
ATOM     16  O   UNL     1      54.669   1.643  17.865  0.00  0.00    +0.000 OA
ATOM     17  H   UNL     1      52.450  -0.620  18.035  0.00  0.00    +0.000 HD
BRANCH  14  19
ATOM     18  C   UNL     1      54.906  -1.684  16.937  0.00  0.00    +0.000 C 
ATOM     19  C   UNL     1      54.485  -1.139  18.290  0.00  0.00    +0.000 C 
ENDBRANCH  14  19
ENDBRANCH   8  15
ENDBRANCH   7  12
ENDBRANCH   1   7
BRANCH   4  20
ATOM     20  C   UNL     1      48.317   8.930  14.972  0.00  0.00    +0.000 C 
BRANCH  20  21
ATOM     21  N   UNL     1      47.293   8.118  14.373  0.00  0.00    +0.000 N 
ATOM     22  C   UNL     1      47.205   7.965  13.013  0.00  0.00    +0.000 C 
ATOM     23  O   UNL     1      48.021   8.462  12.242  0.00  0.00    +0.000 OA
ATOM     24  H   UNL     1      46.482   7.917  14.949  0.00  0.00    +0.000 HD
BRANCH  22  25
ATOM     25  C   UNL     1      46.110   7.114  12.529  0.00  0.00    +0.000 A 
ATOM     26  C   UNL     1      45.053   7.675  11.826  0.00  0.00    +0.000 A 
ATOM     27  S   UNL     1      43.921   6.527  11.269  0.00  0.00    +0.000 S 
ATOM     28  C   UNL     1      44.774   5.247  12.001  0.00  0.00    +0.000 A 
ATOM     29  N   UNL     1      44.326   3.966  11.917  0.00  0.00    +0.000 NA
ATOM     30  C   UNL     1      45.054   3.106  12.547  0.00  0.00    +0.000 A 
ATOM     31  N   UNL     1      46.188   3.409  13.254  0.00  0.00    +0.000 N 
ATOM     32  C   UNL     1      46.693   4.683  13.347  0.00  0.00    +0.000 A 
ATOM     33  O   UNL     1      47.726   4.913  13.962  0.00  0.00    +0.000 OA
ATOM     34  C   UNL     1      45.910   5.691  12.655  0.00  0.00    +0.000 A 
ATOM     35  H   UNL     1      46.715   2.688  13.724  0.00  0.00    +0.000 HD
ENDBRANCH  22  25
ENDBRANCH  20  21
ENDBRANCH   4  20
TORSDOF 7
ENDMDL
MODEL 7
REMARK VINA RESULT:    -6.556      5.058      6.683
REMARK INTER + INTRA:         -10.749
REMARK INTER:                  -9.651
REMARK INTRA:                  -1.098
REMARK UNBOUND:                -1.510
REMARK  Name = 
REMARK  8 active torsions:
REMARK  status: ('A' for Active; 'I' for Inactive)
REMARK    1  A    between atoms: C_1  and  C_2
REMARK    2  A    between atoms: C_2  and  N_3
REMARK    3  A    between atoms: C_4  and  C_6
REMARK    4  A    between atoms: C_10  and  C_11
REMARK    5  A    between atoms: C_11  and  C_12
REMARK    6  A    between atoms: C_15  and  C_16
REMARK    7  A    between atoms: C_16  and  N_17
REMARK    8  A    between atoms: C_18  and  C_20
REMARK                            x       y       z     vdW  Elec       q    Type
REMARK                         _______ _______ _______ _____ _____    ______ ____
ROOT
ATOM      1  C   UNL     1      46.533   7.042  12.565  0.00  0.00    +0.000 A 
ATOM      2  C   UNL     1      47.577   6.167  12.893  0.00  0.00    +0.000 A 
ATOM      3  C   UNL     1      48.911   6.580  12.800  0.00  0.00    +0.000 A 
ATOM      4  C   UNL     1      49.226   7.879  12.387  0.00  0.00    +0.000 A 
ATOM      5  C   UNL     1      48.185   8.727  11.985  0.00  0.00    +0.000 A 
ATOM      6  C   UNL     1      46.852   8.317  12.082  0.00  0.00    +0.000 A 
ENDROOT
BRANCH   1   7
ATOM      7  C   UNL     1      45.091   6.650  12.811  0.00  0.00    +0.000 C 
BRANCH   7  12
ATOM      8  C   UNL     1      44.930   4.190   9.888  0.00  0.00    +0.000 A 
ATOM      9  C   UNL     1      43.978   3.273  10.348  0.00  0.00    +0.000 A 
ATOM     10  C   UNL     1      43.336   3.490  11.568  0.00  0.00    +0.000 A 
ATOM     11  C   UNL     1      43.661   4.603  12.346  0.00  0.00    +0.000 A 
ATOM     12  C   UNL     1      44.643   5.510  11.920  0.00  0.00    +0.000 A 
ATOM     13  C   UNL     1      45.265   5.297  10.679  0.00  0.00    +0.000 A 
BRANCH   8  15
ATOM     14  N   UNL     1      45.635   2.733   8.063  0.00  0.00    +0.000 N 
ATOM     15  C   UNL     1      45.643   4.007   8.592  0.00  0.00    +0.000 C 
ATOM     16  O   UNL     1      46.171   4.965   8.038  0.00  0.00    +0.000 OA
ATOM     17  H   UNL     1      45.015   2.039   8.454  0.00  0.00    +0.000 HD
BRANCH  14  19
ATOM     18  C   UNL     1      47.659   1.888   6.963  0.00  0.00    +0.000 C 
ATOM     19  C   UNL     1      46.256   2.439   6.788  0.00  0.00    +0.000 C 
ENDBRANCH  14  19
ENDBRANCH   8  15
ENDBRANCH   7  12
ENDBRANCH   1   7
BRANCH   4  20
ATOM     20  C   UNL     1      50.652   8.367  12.374  0.00  0.00    +0.000 C 
BRANCH  20  21
ATOM     21  N   UNL     1      51.418   7.724  11.341  0.00  0.00    +0.000 N 
ATOM     22  C   UNL     1      52.724   8.067  11.101  0.00  0.00    +0.000 C 
ATOM     23  O   UNL     1      53.324   8.892  11.785  0.00  0.00    +0.000 OA
ATOM     24  H   UNL     1      50.889   7.246  10.620  0.00  0.00    +0.000 HD
BRANCH  22  25
ATOM     25  C   UNL     1      53.392   7.340  10.014  0.00  0.00    +0.000 A 
ATOM     26  C   UNL     1      54.003   6.119  10.267  0.00  0.00    +0.000 A 
ATOM     27  S   UNL     1      54.650   5.380   8.872  0.00  0.00    +0.000 S 
ATOM     28  C   UNL     1      54.191   6.696   7.893  0.00  0.00    +0.000 A 
ATOM     29  N   UNL     1      54.465   6.709   6.561  0.00  0.00    +0.000 NA
ATOM     30  C   UNL     1      54.089   7.784   5.952  0.00  0.00    +0.000 A 
ATOM     31  N   UNL     1      53.463   8.845   6.551  0.00  0.00    +0.000 N 
ATOM     32  C   UNL     1      53.143   8.867   7.886  0.00  0.00    +0.000 A 
ATOM     33  O   UNL     1      52.555   9.819   8.383  0.00  0.00    +0.000 OA
ATOM     34  C   UNL     1      53.545   7.680   8.620  0.00  0.00    +0.000 A 
ATOM     35  H   UNL     1      53.191   9.657   6.017  0.00  0.00    +0.000 HD
ENDBRANCH  22  25
ENDBRANCH  20  21
ENDBRANCH   4  20
TORSDOF 7
ENDMDL
MODEL 8
REMARK VINA RESULT:    -6.538      2.019      2.481
REMARK INTER + INTRA:         -10.724
REMARK INTER:                  -9.188
REMARK INTRA:                  -1.536
REMARK UNBOUND:                -1.510
REMARK  Name = 
REMARK  8 active torsions:
REMARK  status: ('A' for Active; 'I' for Inactive)
REMARK    1  A    between atoms: C_1  and  C_2
REMARK    2  A    between atoms: C_2  and  N_3
REMARK    3  A    between atoms: C_4  and  C_6
REMARK    4  A    between atoms: C_10  and  C_11
REMARK    5  A    between atoms: C_11  and  C_12
REMARK    6  A    between atoms: C_15  and  C_16
REMARK    7  A    between atoms: C_16  and  N_17
REMARK    8  A    between atoms: C_18  and  C_20
REMARK                            x       y       z     vdW  Elec       q    Type
REMARK                         _______ _______ _______ _____ _____    ______ ____
ROOT
ATOM      1  C   UNL     1      46.931   7.843  12.316  0.00  0.00    +0.000 A 
ATOM      2  C   UNL     1      48.049   7.295  11.672  0.00  0.00    +0.000 A 
ATOM      3  C   UNL     1      49.309   7.327  12.280  0.00  0.00    +0.000 A 
ATOM      4  C   UNL     1      49.473   7.898  13.547  0.00  0.00    +0.000 A 
ATOM      5  C   UNL     1      48.370   8.513  14.155  0.00  0.00    +0.000 A 
ATOM      6  C   UNL     1      47.111   8.478  13.550  0.00  0.00    +0.000 A 
ENDROOT
BRANCH   1   7
ATOM      7  C   UNL     1      45.544   7.672  11.731  0.00  0.00    +0.000 C 
BRANCH   7  12
ATOM      8  C   UNL     1      44.863   4.109  10.521  0.00  0.00    +0.000 A 
ATOM      9  C   UNL     1      44.484   3.479  11.712  0.00  0.00    +0.000 A 
ATOM     10  C   UNL     1      44.378   4.221  12.889  0.00  0.00    +0.000 A 
ATOM     11  C   UNL     1      44.677   5.585  12.890  0.00  0.00    +0.000 A 
ATOM     12  C   UNL     1      45.099   6.224  11.715  0.00  0.00    +0.000 A 
ATOM     13  C   UNL     1      45.178   5.475  10.530  0.00  0.00    +0.000 A 
BRANCH   8  15
ATOM     14  N   UNL     1      45.768   3.952   8.262  0.00  0.00    +0.000 N 
ATOM     15  C   UNL     1      44.989   3.364   9.237  0.00  0.00    +0.000 C 
ATOM     16  O   UNL     1      44.443   2.275   9.100  0.00  0.00    +0.000 OA
ATOM     17  H   UNL     1      46.354   4.738   8.504  0.00  0.00    +0.000 HD
BRANCH  14  19
ATOM     18  C   UNL     1      47.375   2.659   6.933  0.00  0.00    +0.000 C 
ATOM     19  C   UNL     1      46.002   3.304   6.988  0.00  0.00    +0.000 C 
ENDBRANCH  14  19
ENDBRANCH   8  15
ENDBRANCH   7  12
ENDBRANCH   1   7
BRANCH   4  20
ATOM     20  C   UNL     1      50.804   7.853  14.254  0.00  0.00    +0.000 C 
BRANCH  20  21
ATOM     21  N   UNL     1      50.752   7.010  15.418  0.00  0.00    +0.000 N 
ATOM     22  C   UNL     1      51.662   7.139  16.435  0.00  0.00    +0.000 C 
ATOM     23  O   UNL     1      52.529   8.010  16.436  0.00  0.00    +0.000 OA
ATOM     24  H   UNL     1      50.229   6.146  15.326  0.00  0.00    +0.000 HD
BRANCH  22  25
ATOM     25  C   UNL     1      51.503   6.214  17.565  0.00  0.00    +0.000 A 
ATOM     26  C   UNL     1      52.563   5.409  17.958  0.00  0.00    +0.000 A 
ATOM     27  S   UNL     1      52.224   4.464  19.338  0.00  0.00    +0.000 S 
ATOM     28  C   UNL     1      50.629   5.054  19.419  0.00  0.00    +0.000 A 
ATOM     29  N   UNL     1      49.772   4.628  20.385  0.00  0.00    +0.000 NA
ATOM     30  C   UNL     1      48.586   5.134  20.304  0.00  0.00    +0.000 A 
ATOM     31  N   UNL     1      48.179   6.025  19.346  0.00  0.00    +0.000 N 
ATOM     32  C   UNL     1      49.014   6.502  18.366  0.00  0.00    +0.000 A 
ATOM     33  O   UNL     1      48.625   7.322  17.545  0.00  0.00    +0.000 OA
ATOM     34  C   UNL     1      50.362   5.964  18.411  0.00  0.00    +0.000 A 
ATOM     35  H   UNL     1      47.236   6.385  19.339  0.00  0.00    +0.000 HD
ENDBRANCH  22  25
ENDBRANCH  20  21
ENDBRANCH   4  20
TORSDOF 7
ENDMDL
MODEL 9
REMARK VINA RESULT:    -6.449      3.399      8.157
REMARK INTER + INTRA:         -10.598
REMARK INTER:                  -8.802
REMARK INTRA:                  -1.797
REMARK UNBOUND:                -1.510
REMARK  Name = 
REMARK  8 active torsions:
REMARK  status: ('A' for Active; 'I' for Inactive)
REMARK    1  A    between atoms: C_1  and  C_2
REMARK    2  A    between atoms: C_2  and  N_3
REMARK    3  A    between atoms: C_4  and  C_6
REMARK    4  A    between atoms: C_10  and  C_11
REMARK    5  A    between atoms: C_11  and  C_12
REMARK    6  A    between atoms: C_15  and  C_16
REMARK    7  A    between atoms: C_16  and  N_17
REMARK    8  A    between atoms: C_18  and  C_20
REMARK                            x       y       z     vdW  Elec       q    Type
REMARK                         _______ _______ _______ _____ _____    ______ ____
ROOT
ATOM      1  C   UNL     1      51.779   7.433  16.681  0.00  0.00    +0.000 A 
ATOM      2  C   UNL     1      51.650   7.528  15.288  0.00  0.00    +0.000 A 
ATOM      3  C   UNL     1      50.512   8.105  14.714  0.00  0.00    +0.000 A 
ATOM      4  C   UNL     1      49.485   8.607  15.522  0.00  0.00    +0.000 A 
ATOM      5  C   UNL     1      49.580   8.441  16.910  0.00  0.00    +0.000 A 
ATOM      6  C   UNL     1      50.718   7.869  17.484  0.00  0.00    +0.000 A 
ENDROOT
BRANCH   1   7
ATOM      7  C   UNL     1      53.072   6.951  17.305  0.00  0.00    +0.000 C 
BRANCH   7  12
ATOM      8  C   UNL     1      51.824   3.358  17.700  0.00  0.00    +0.000 A 
ATOM      9  C   UNL     1      52.969   2.717  18.186  0.00  0.00    +0.000 A 
ATOM     10  C   UNL     1      54.120   3.459  18.455  0.00  0.00    +0.000 A 
ATOM     11  C   UNL     1      54.143   4.834  18.214  0.00  0.00    +0.000 A 
ATOM     12  C   UNL     1      53.017   5.486  17.687  0.00  0.00    +0.000 A 
ATOM     13  C   UNL     1      51.856   4.735  17.443  0.00  0.00    +0.000 A 
BRANCH   8  15
ATOM     14  N   UNL     1      49.388   3.309  17.564  0.00  0.00    +0.000 N 
ATOM     15  C   UNL     1      50.569   2.613  17.398  0.00  0.00    +0.000 C 
ATOM     16  O   UNL     1      50.620   1.455  16.997  0.00  0.00    +0.000 OA
ATOM     17  H   UNL     1      49.418   4.309  17.694  0.00  0.00    +0.000 HD
BRANCH  14  19
ATOM     18  C   UNL     1      47.018   3.754  17.113  0.00  0.00    +0.000 C 
ATOM     19  C   UNL     1      48.107   2.707  17.261  0.00  0.00    +0.000 C 
ENDBRANCH  14  19
ENDBRANCH   8  15
ENDBRANCH   7  12
ENDBRANCH   1   7
BRANCH   4  20
ATOM     20  C   UNL     1      48.300   9.317  14.920  0.00  0.00    +0.000 C 
BRANCH  20  21
ATOM     21  N   UNL     1      47.355   8.385  14.366  0.00  0.00    +0.000 N 
ATOM     22  C   UNL     1      47.228   8.216  13.011  0.00  0.00    +0.000 C 
ATOM     23  O   UNL     1      47.946   8.802  12.204  0.00  0.00    +0.000 OA
ATOM     24  H   UNL     1      46.600   8.093  14.976  0.00  0.00    +0.000 HD
BRANCH  22  25
ATOM     25  C   UNL     1      46.223   7.238  12.574  0.00  0.00    +0.000 A 
ATOM     26  C   UNL     1      45.115   7.657  11.850  0.00  0.00    +0.000 A 
ATOM     27  S   UNL     1      44.102   6.376  11.356  0.00  0.00    +0.000 S 
ATOM     28  C   UNL     1      45.077   5.225  12.146  0.00  0.00    +0.000 A 
ATOM     29  N   UNL     1      44.758   3.903  12.127  0.00  0.00    +0.000 NA
ATOM     30  C   UNL     1      45.568   3.151  12.795  0.00  0.00    +0.000 A 
ATOM     31  N   UNL     1      46.667   3.599  13.480  0.00  0.00    +0.000 N 
ATOM     32  C   UNL     1      47.043   4.919  13.508  0.00  0.00    +0.000 A 
ATOM     33  O   UNL     1      48.048   5.280  14.105  0.00  0.00    +0.000 OA
ATOM     34  C   UNL     1      46.164   5.810  12.771  0.00  0.00    +0.000 A 
ATOM     35  H   UNL     1      47.262   2.958  13.983  0.00  0.00    +0.000 HD
ENDBRANCH  22  25
ENDBRANCH  20  21
ENDBRANCH   4  20
TORSDOF 7
ENDMDL
