MODEL 1
REMARK VINA RESULT:    -7.675      0.000      0.000
REMARK INTER + INTRA:          -8.828
REMARK INTER:                  -8.572
REMARK INTRA:                  -0.256
REMARK UNBOUND:                -0.256
REMARK  Name = 
REMARK  2 active torsions:
REMARK  status: ('A' for Active; 'I' for Inactive)
REMARK    1  A    between atoms: N_6  and  C_7
REMARK    2  A    between atoms: C_7  and  C_8
REMARK                            x       y       z     vdW  Elec       q    Type
REMARK                         _______ _______ _______ _____ _____    ______ ____
ROOT
ATOM      1  C   UNL     1      45.043   4.642  11.900  0.00  0.00    +0.000 A 
ATOM      2  C   UNL     1      45.482   3.520  12.598  0.00  0.00    +0.000 A 
ATOM      3  C   UNL     1      46.588   3.654  13.421  0.00  0.00    +0.000 A 
ATOM      4  N   UNL     1      47.282   4.808  13.591  0.00  0.00    +0.000 NA
ATOM      5  C   UNL     1      46.863   5.897  12.920  0.00  0.00    +0.000 A 
ATOM      6  N   UNL     1      47.518   7.119  13.058  0.00  0.00    +0.000 N 
ATOM      7  C   UNL     1      48.467   7.260  14.173  0.00  0.00    +0.000 C 
ATOM      8  C   UNL     1      48.768   8.768  14.335  0.00  0.00    +0.000 C 
ATOM      9  O   UNL     1      49.277   9.353  13.119  0.00  0.00    +0.000 OA
ATOM     10  C   UNL     1      48.357   9.150  12.032  0.00  0.00    +0.000 C 
ATOM     11  C   UNL     1      48.087   7.656  11.809  0.00  0.00    +0.000 C 
ATOM     12  C   UNL     1      45.737   5.840  12.094  0.00  0.00    +0.000 A 
ENDROOT
BRANCH   1  13
ATOM     13  C   UNL     1      43.852   4.586  10.974  0.00  0.00    +0.000 C 
BRANCH  13  19
ATOM     14 CL   UNL     1      47.529   1.330   6.534  0.00  0.00    +0.000 Cl
ATOM     15  C   UNL     1      46.591   2.393   7.488  0.00  0.00    +0.000 A 
ATOM     16  C   UNL     1      45.712   1.947   8.442  0.00  0.00    +0.000 A 
ATOM     17  N   UNL     1      44.940   2.766   9.195  0.00  0.00    +0.000 NA
ATOM     18  C   UNL     1      45.052   4.087   8.968  0.00  0.00    +0.000 A 
ATOM     19  N   UNL     1      44.246   4.987   9.643  0.00  0.00    +0.000 N 
ATOM     20  N   UNL     1      45.905   4.618   8.078  0.00  0.00    +0.000 NA
ATOM     21  C   UNL     1      46.653   3.760   7.353  0.00  0.00    +0.000 A 
ATOM     22  H   UNL     1      44.681   5.899   9.566  0.00  0.00    +0.000 HD
ENDBRANCH  13  19
ENDBRANCH   1  13
TORSDOF 2
ENDMDL
MODEL 2
REMARK VINA RESULT:    -7.417      3.324      6.351
REMARK INTER + INTRA:          -8.540
REMARK INTER:                  -8.165
REMARK INTRA:                  -0.375
REMARK UNBOUND:                -0.256
REMARK  Name = 
REMARK  2 active torsions:
REMARK  status: ('A' for Active; 'I' for Inactive)
REMARK    1  A    between atoms: N_6  and  C_7
REMARK    2  A    between atoms: C_7  and  C_8
REMARK                            x       y       z     vdW  Elec       q    Type
REMARK                         _______ _______ _______ _____ _____    ______ ____
ROOT
ATOM      1  C   UNL     1      44.411   4.808  12.166  0.00  0.00    +0.000 A 
ATOM      2  C   UNL     1      43.413   3.941  12.602  0.00  0.00    +0.000 A 
ATOM      3  C   UNL     1      43.181   2.788  11.868  0.00  0.00    +0.000 A 
ATOM      4  N   UNL     1      43.858   2.447  10.743  0.00  0.00    +0.000 NA
ATOM      5  C   UNL     1      44.825   3.280  10.316  0.00  0.00    +0.000 A 
ATOM      6  N   UNL     1      45.571   2.985   9.177  0.00  0.00    +0.000 N 
ATOM      7  C   UNL     1      45.488   1.616   8.644  0.00  0.00    +0.000 C 
ATOM      8  C   UNL     1      46.653   1.439   7.642  0.00  0.00    +0.000 C 
ATOM      9  O   UNL     1      46.620   2.427   6.592  0.00  0.00    +0.000 OA
ATOM     10  C   UNL     1      46.643   3.756   7.141  0.00  0.00    +0.000 C 
ATOM     11  C   UNL     1      45.460   3.979   8.095  0.00  0.00    +0.000 C 
ATOM     12  C   UNL     1      45.131   4.445  11.023  0.00  0.00    +0.000 A 
ENDROOT
BRANCH   1  13
ATOM     13  C   UNL     1      44.726   6.090  12.897  0.00  0.00    +0.000 C 
BRANCH  13  19
ATOM     14 CL   UNL     1      50.504   8.985  11.464  0.00  0.00    +0.000 Cl
ATOM     15  C   UNL     1      49.167   8.089  12.036  0.00  0.00    +0.000 A 
ATOM     16  C   UNL     1      47.873   8.523  11.892  0.00  0.00    +0.000 A 
ATOM     17  N   UNL     1      46.798   7.844  12.357  0.00  0.00    +0.000 NA
ATOM     18  C   UNL     1      47.037   6.688  13.000  0.00  0.00    +0.000 A 
ATOM     19  N   UNL     1      45.999   5.971  13.569  0.00  0.00    +0.000 N 
ATOM     20  N   UNL     1      48.264   6.170  13.163  0.00  0.00    +0.000 NA
ATOM     21  C   UNL     1      49.304   6.883  12.682  0.00  0.00    +0.000 A 
ATOM     22  H   UNL     1      46.332   5.027  13.722  0.00  0.00    +0.000 HD
ENDBRANCH  13  19
ENDBRANCH   1  13
TORSDOF 2
ENDMDL
MODEL 3
REMARK VINA RESULT:    -7.059      3.874      6.783
REMARK INTER + INTRA:          -8.140
REMARK INTER:                  -7.837
REMARK INTRA:                  -0.303
REMARK UNBOUND:                -0.256
REMARK  Name = 
REMARK  2 active torsions:
REMARK  status: ('A' for Active; 'I' for Inactive)
REMARK    1  A    between atoms: N_6  and  C_7
REMARK    2  A    between atoms: C_7  and  C_8
REMARK                            x       y       z     vdW  Elec       q    Type
REMARK                         _______ _______ _______ _____ _____    ______ ____
ROOT
ATOM      1  C   UNL     1      44.434   4.933  12.086  0.00  0.00    +0.000 A 
ATOM      2  C   UNL     1      43.426   4.093  12.551  0.00  0.00    +0.000 A 
ATOM      3  C   UNL     1      43.186   2.916  11.861  0.00  0.00    +0.000 A 
ATOM      4  N   UNL     1      43.863   2.526  10.752  0.00  0.00    +0.000 NA
ATOM      5  C   UNL     1      44.840   3.333  10.296  0.00  0.00    +0.000 A 
ATOM      6  N   UNL     1      45.587   2.988   9.172  0.00  0.00    +0.000 N 
ATOM      7  C   UNL     1      45.492   1.601   8.691  0.00  0.00    +0.000 C 
ATOM      8  C   UNL     1      46.658   1.376   7.701  0.00  0.00    +0.000 C 
ATOM      9  O   UNL     1      46.638   2.323   6.614  0.00  0.00    +0.000 OA
ATOM     10  C   UNL     1      46.672   3.672   7.113  0.00  0.00    +0.000 C 
ATOM     11  C   UNL     1      45.488   3.942   8.053  0.00  0.00    +0.000 C 
ATOM     12  C   UNL     1      45.154   4.521  10.960  0.00  0.00    +0.000 A 
ENDROOT
BRANCH   1  13
ATOM     13  C   UNL     1      44.759   6.239  12.769  0.00  0.00    +0.000 C 
BRANCH  13  19
ATOM     14 CL   UNL     1      47.788  12.052  11.840  0.00  0.00    +0.000 Cl
ATOM     15  C   UNL     1      46.791  10.666  11.914  0.00  0.00    +0.000 A 
ATOM     16  C   UNL     1      47.289   9.413  12.172  0.00  0.00    +0.000 A 
ATOM     17  N   UNL     1      46.526   8.296  12.213  0.00  0.00    +0.000 NA
ATOM     18  C   UNL     1      45.212   8.446  11.973  0.00  0.00    +0.000 A 
ATOM     19  N   UNL     1      44.375   7.345  11.924  0.00  0.00    +0.000 N 
ATOM     20  N   UNL     1      44.630   9.633  11.741  0.00  0.00    +0.000 NA
ATOM     21  C   UNL     1      45.433  10.718  11.711  0.00  0.00    +0.000 A 
ATOM     22  H   UNL     1      43.426   7.681  12.039  0.00  0.00    +0.000 HD
ENDBRANCH  13  19
ENDBRANCH   1  13
TORSDOF 2
ENDMDL
MODEL 4
REMARK VINA RESULT:    -6.641      4.291      7.389
REMARK INTER + INTRA:          -7.674
REMARK INTER:                  -7.320
REMARK INTRA:                  -0.354
REMARK UNBOUND:                -0.256
REMARK  Name = 
REMARK  2 active torsions:
REMARK  status: ('A' for Active; 'I' for Inactive)
REMARK    1  A    between atoms: N_6  and  C_7
REMARK    2  A    between atoms: C_7  and  C_8
REMARK                            x       y       z     vdW  Elec       q    Type
REMARK                         _______ _______ _______ _____ _____    ______ ____
ROOT
ATOM      1  C   UNL     1      47.983   6.433  14.297  0.00  0.00    +0.000 A 
ATOM      2  C   UNL     1      48.697   7.183  13.366  0.00  0.00    +0.000 A 
ATOM      3  C   UNL     1      48.238   7.212  12.059  0.00  0.00    +0.000 A 
ATOM      4  N   UNL     1      47.137   6.551  11.619  0.00  0.00    +0.000 NA
ATOM      5  C   UNL     1      46.441   5.825  12.513  0.00  0.00    +0.000 A 
ATOM      6  N   UNL     1      45.293   5.134  12.135  0.00  0.00    +0.000 N 
ATOM      7  C   UNL     1      44.697   5.465  10.831  0.00  0.00    +0.000 C 
ATOM      8  C   UNL     1      43.275   4.860  10.806  0.00  0.00    +0.000 C 
ATOM      9  O   UNL     1      43.285   3.438  11.046  0.00  0.00    +0.000 OA
ATOM     10  C   UNL     1      43.925   3.137  12.299  0.00  0.00    +0.000 C 
ATOM     11  C   UNL     1      45.363   3.674  12.327  0.00  0.00    +0.000 C 
ATOM     12  C   UNL     1      46.833   5.774  13.854  0.00  0.00    +0.000 A 
ENDROOT
BRANCH   1  13
ATOM     13  C   UNL     1      48.415   6.336  15.740  0.00  0.00    +0.000 C 
BRANCH  13  19
ATOM     14 CL   UNL     1      51.822   1.063  17.843  0.00  0.00    +0.000 Cl
ATOM     15  C   UNL     1      50.704   2.259  17.353  0.00  0.00    +0.000 A 
ATOM     16  C   UNL     1      51.009   3.598  17.355  0.00  0.00    +0.000 A 
ATOM     17  N   UNL     1      50.135   4.567  16.995  0.00  0.00    +0.000 NA
ATOM     18  C   UNL     1      48.903   4.173  16.629  0.00  0.00    +0.000 A 
ATOM     19  N   UNL     1      47.929   5.104  16.316  0.00  0.00    +0.000 N 
ATOM     20  N   UNL     1      48.523   2.887  16.567  0.00  0.00    +0.000 NA
ATOM     21  C   UNL     1      49.430   1.957  16.935  0.00  0.00    +0.000 A 
ATOM     22  H   UNL     1      47.208   4.624  15.791  0.00  0.00    +0.000 HD
ENDBRANCH  13  19
ENDBRANCH   1  13
TORSDOF 2
ENDMDL
MODEL 5
REMARK VINA RESULT:    -6.615      3.577      6.791
REMARK INTER + INTRA:          -7.644
REMARK INTER:                  -7.316
REMARK INTRA:                  -0.328
REMARK UNBOUND:                -0.256
REMARK  Name = 
REMARK  2 active torsions:
REMARK  status: ('A' for Active; 'I' for Inactive)
REMARK    1  A    between atoms: N_6  and  C_7
REMARK    2  A    between atoms: C_7  and  C_8
REMARK                            x       y       z     vdW  Elec       q    Type
REMARK                         _______ _______ _______ _____ _____    ______ ____
ROOT
ATOM      1  C   UNL     1      44.657   6.466  11.542  0.00  0.00    +0.000 A 
ATOM      2  C   UNL     1      43.394   6.099  11.999  0.00  0.00    +0.000 A 
ATOM      3  C   UNL     1      42.844   4.920  11.523  0.00  0.00    +0.000 A 
ATOM      4  N   UNL     1      43.451   4.096  10.632  0.00  0.00    +0.000 NA
ATOM      5  C   UNL     1      44.673   4.443  10.187  0.00  0.00    +0.000 A 
ATOM      6  N   UNL     1      45.361   3.636   9.283  0.00  0.00    +0.000 N 
ATOM      7  C   UNL     1      44.861   2.268   9.075  0.00  0.00    +0.000 C 
ATOM      8  C   UNL     1      45.971   1.479   8.343  0.00  0.00    +0.000 C 
ATOM      9  O   UNL     1      46.356   2.105   7.102  0.00  0.00    +0.000 OA
ATOM     10  C   UNL     1      46.784   3.460   7.326  0.00  0.00    +0.000 C 
ATOM     11  C   UNL     1      45.676   4.284   7.998  0.00  0.00    +0.000 C 
ATOM     12  C   UNL     1      45.298   5.605  10.647  0.00  0.00    +0.000 A 
ENDROOT
BRANCH   1  13
ATOM     13  C   UNL     1      45.330   7.737  11.999  0.00  0.00    +0.000 C 
BRANCH  13  19
ATOM     14 CL   UNL     1      51.712   8.403  13.631  0.00  0.00    +0.000 Cl
ATOM     15  C   UNL     1      50.033   8.122  13.482  0.00  0.00    +0.000 A 
ATOM     16  C   UNL     1      49.248   8.804  12.586  0.00  0.00    +0.000 A 
ATOM     17  N   UNL     1      47.913   8.618  12.464  0.00  0.00    +0.000 NA
ATOM     18  C   UNL     1      47.345   7.717  13.284  0.00  0.00    +0.000 A 
ATOM     19  N   UNL     1      45.975   7.520  13.274  0.00  0.00    +0.000 N 
ATOM     20  N   UNL     1      48.034   6.981  14.170  0.00  0.00    +0.000 NA
ATOM     21  C   UNL     1      49.363   7.203  14.254  0.00  0.00    +0.000 A 
ATOM     22  H   UNL     1      45.794   6.626  13.715  0.00  0.00    +0.000 HD
ENDBRANCH  13  19
ENDBRANCH   1  13
TORSDOF 2
ENDMDL
MODEL 6
REMARK VINA RESULT:    -6.150      4.967      8.290
REMARK INTER + INTRA:          -7.125
REMARK INTER:                  -6.875
REMARK INTRA:                  -0.251
REMARK UNBOUND:                -0.256
REMARK  Name = 
REMARK  2 active torsions:
REMARK  status: ('A' for Active; 'I' for Inactive)
REMARK    1  A    between atoms: N_6  and  C_7
REMARK    2  A    between atoms: C_7  and  C_8
REMARK                            x       y       z     vdW  Elec       q    Type
REMARK                         _______ _______ _______ _____ _____    ______ ____
ROOT
ATOM      1  C   UNL     1      48.005   6.501  13.932  0.00  0.00    +0.000 A 
ATOM      2  C   UNL     1      48.548   7.284  12.917  0.00  0.00    +0.000 A 
ATOM      3  C   UNL     1      47.907   7.299  11.689  0.00  0.00    +0.000 A 
ATOM      4  N   UNL     1      46.784   6.595  11.401  0.00  0.00    +0.000 NA
ATOM      5  C   UNL     1      46.252   5.836  12.378  0.00  0.00    +0.000 A 
ATOM      6  N   UNL     1      45.091   5.098  12.158  0.00  0.00    +0.000 N 
ATOM      7  C   UNL     1      44.304   5.409  10.955  0.00  0.00    +0.000 C 
ATOM      8  C   UNL     1      42.919   4.744  11.125  0.00  0.00    +0.000 C 
ATOM      9  O   UNL     1      43.021   3.323  11.346  0.00  0.00    +0.000 OA
ATOM     10  C   UNL     1      43.844   3.044  12.493  0.00  0.00    +0.000 C 
ATOM     11  C   UNL     1      45.248   3.642  12.324  0.00  0.00    +0.000 C 
ATOM     12  C   UNL     1      46.831   5.796  13.649  0.00  0.00    +0.000 A 
ENDROOT
BRANCH   1  13
ATOM     13  C   UNL     1      48.640   6.417  15.298  0.00  0.00    +0.000 C 
BRANCH  13  19
ATOM     14 CL   UNL     1      49.339   4.971  21.721  0.00  0.00    +0.000 Cl
ATOM     15  C   UNL     1      48.990   5.103  20.053  0.00  0.00    +0.000 A 
ATOM     16  C   UNL     1      49.060   6.296  19.377  0.00  0.00    +0.000 A 
ATOM     17  N   UNL     1      48.766   6.432  18.063  0.00  0.00    +0.000 NA
ATOM     18  C   UNL     1      48.376   5.326  17.407  0.00  0.00    +0.000 A 
ATOM     19  N   UNL     1      47.987   5.394  16.081  0.00  0.00    +0.000 N 
ATOM     20  N   UNL     1      48.305   4.112  17.975  0.00  0.00    +0.000 NA
ATOM     21  C   UNL     1      48.609   4.026  19.288  0.00  0.00    +0.000 A 
ATOM     22  H   UNL     1      48.030   4.454  15.704  0.00  0.00    +0.000 HD
ENDBRANCH  13  19
ENDBRANCH   1  13
TORSDOF 2
ENDMDL
MODEL 7
REMARK VINA RESULT:    -5.928      4.346      6.153
REMARK INTER + INTRA:          -6.877
REMARK INTER:                  -6.545
REMARK INTRA:                  -0.332
REMARK UNBOUND:                -0.256
REMARK  Name = 
REMARK  2 active torsions:
REMARK  status: ('A' for Active; 'I' for Inactive)
REMARK    1  A    between atoms: N_6  and  C_7
REMARK    2  A    between atoms: C_7  and  C_8
REMARK                            x       y       z     vdW  Elec       q    Type
REMARK                         _______ _______ _______ _____ _____    ______ ____
ROOT
ATOM      1  C   UNL     1      44.893   4.893  12.365  0.00  0.00    +0.000 A 
ATOM      2  C   UNL     1      43.586   4.443  12.199  0.00  0.00    +0.000 A 
ATOM      3  C   UNL     1      42.635   5.346  11.750  0.00  0.00    +0.000 A 
ATOM      4  N   UNL     1      42.889   6.648  11.466  0.00  0.00    +0.000 NA
ATOM      5  C   UNL     1      44.151   7.090  11.623  0.00  0.00    +0.000 A 
ATOM      6  N   UNL     1      44.487   8.411  11.335  0.00  0.00    +0.000 N 
ATOM      7  C   UNL     1      43.515   9.211  10.573  0.00  0.00    +0.000 C 
ATOM      8  C   UNL     1      44.249  10.475  10.072  0.00  0.00    +0.000 C 
ATOM      9  O   UNL     1      44.833  11.229  11.154  0.00  0.00    +0.000 OA
ATOM     10  C   UNL     1      45.734  10.409  11.918  0.00  0.00    +0.000 C 
ATOM     11  C   UNL     1      45.014   9.175  12.480  0.00  0.00    +0.000 C 
ATOM     12  C   UNL     1      45.165   6.227  12.045  0.00  0.00    +0.000 A 
ENDROOT
BRANCH   1  13
ATOM     13  C   UNL     1      45.990   3.983  12.857  0.00  0.00    +0.000 C 
BRANCH  13  19
ATOM     14 CL   UNL     1      49.011   3.985  18.749  0.00  0.00    +0.000 Cl
ATOM     15  C   UNL     1      48.407   4.213  17.167  0.00  0.00    +0.000 A 
ATOM     16  C   UNL     1      47.797   3.207  16.459  0.00  0.00    +0.000 A 
ATOM     17  N   UNL     1      47.331   3.354  15.196  0.00  0.00    +0.000 NA
ATOM     18  C   UNL     1      47.497   4.558  14.621  0.00  0.00    +0.000 A 
ATOM     19  N   UNL     1      47.116   4.769  13.308  0.00  0.00    +0.000 N 
ATOM     20  N   UNL     1      48.054   5.608  15.244  0.00  0.00    +0.000 NA
ATOM     21  C   UNL     1      48.502   5.412  16.502  0.00  0.00    +0.000 A 
ATOM     22  H   UNL     1      47.038   5.770  13.172  0.00  0.00    +0.000 HD
ENDBRANCH  13  19
ENDBRANCH   1  13
TORSDOF 2
ENDMDL
MODEL 8
REMARK VINA RESULT:    -5.864      4.557      6.290
REMARK INTER + INTRA:          -6.805
REMARK INTER:                  -6.460
REMARK INTRA:                  -0.345
REMARK UNBOUND:                -0.256
REMARK  Name = 
REMARK  2 active torsions:
REMARK  status: ('A' for Active; 'I' for Inactive)
REMARK    1  A    between atoms: N_6  and  C_7
REMARK    2  A    between atoms: C_7  and  C_8
REMARK                            x       y       z     vdW  Elec       q    Type
REMARK                         _______ _______ _______ _____ _____    ______ ____
ROOT
ATOM      1  C   UNL     1      46.415   9.134  12.138  0.00  0.00    +0.000 A 
ATOM      2  C   UNL     1      47.366  10.123  11.900  0.00  0.00    +0.000 A 
ATOM      3  C   UNL     1      46.922  11.377  11.513  0.00  0.00    +0.000 A 
ATOM      4  N   UNL     1      45.617  11.708  11.340  0.00  0.00    +0.000 NA
ATOM      5  C   UNL     1      44.692  10.758  11.569  0.00  0.00    +0.000 A 
ATOM      6  N   UNL     1      43.334  11.032  11.427  0.00  0.00    +0.000 N 
ATOM      7  C   UNL     1      42.931  12.444  11.327  0.00  0.00    +0.000 C 
ATOM      8  C   UNL     1      41.402  12.504  11.549  0.00  0.00    +0.000 C 
ATOM      9  O   UNL     1      40.684  11.674  10.614  0.00  0.00    +0.000 OA
ATOM     10  C   UNL     1      41.138  10.311  10.690  0.00  0.00    +0.000 C 
ATOM     11  C   UNL     1      42.645  10.214  10.413  0.00  0.00    +0.000 C 
ATOM     12  C   UNL     1      45.068   9.479  11.989  0.00  0.00    +0.000 A 
ENDROOT
BRANCH   1  13
ATOM     13  C   UNL     1      46.808   7.737  12.555  0.00  0.00    +0.000 C 
BRANCH  13  19
ATOM     14 CL   UNL     1      43.205   2.260  11.629  0.00  0.00    +0.000 Cl
ATOM     15  C   UNL     1      43.960   3.719  12.100  0.00  0.00    +0.000 A 
ATOM     16  C   UNL     1      45.252   4.026  11.754  0.00  0.00    +0.000 A 
ATOM     17  N   UNL     1      45.881   5.163  12.134  0.00  0.00    +0.000 NA
ATOM     18  C   UNL     1      45.184   6.019  12.902  0.00  0.00    +0.000 A 
ATOM     19  N   UNL     1      45.778   7.168  13.393  0.00  0.00    +0.000 N 
ATOM     20  N   UNL     1      43.908   5.818  13.266  0.00  0.00    +0.000 NA
ATOM     21  C   UNL     1      43.324   4.670  12.862  0.00  0.00    +0.000 A 
ATOM     22  H   UNL     1      45.035   7.798  13.670  0.00  0.00    +0.000 HD
ENDBRANCH  13  19
ENDBRANCH   1  13
TORSDOF 2
ENDMDL
MODEL 9
REMARK VINA RESULT:    -5.754      4.171      7.521
REMARK INTER + INTRA:          -6.682
REMARK INTER:                  -6.350
REMARK INTRA:                  -0.332
REMARK UNBOUND:                -0.256
REMARK  Name = 
REMARK  2 active torsions:
REMARK  status: ('A' for Active; 'I' for Inactive)
REMARK    1  A    between atoms: N_6  and  C_7
REMARK    2  A    between atoms: C_7  and  C_8
REMARK                            x       y       z     vdW  Elec       q    Type
REMARK                         _______ _______ _______ _____ _____    ______ ____
ROOT
ATOM      1  C   UNL     1      47.873   7.709  12.428  0.00  0.00    +0.000 A 
ATOM      2  C   UNL     1      47.286   8.972  12.413  0.00  0.00    +0.000 A 
ATOM      3  C   UNL     1      45.935   9.061  12.119  0.00  0.00    +0.000 A 
ATOM      4  N   UNL     1      45.140   7.998  11.836  0.00  0.00    +0.000 NA
ATOM      5  C   UNL     1      45.701   6.774  11.850  0.00  0.00    +0.000 A 
ATOM      6  N   UNL     1      44.942   5.636  11.584  0.00  0.00    +0.000 N 
ATOM      7  C   UNL     1      43.477   5.777  11.597  0.00  0.00    +0.000 C 
ATOM      8  C   UNL     1      42.878   4.353  11.648  0.00  0.00    +0.000 C 
ATOM      9  O   UNL     1      43.329   3.534  10.550  0.00  0.00    +0.000 OA
ATOM     10  C   UNL     1      44.765   3.461  10.525  0.00  0.00    +0.000 C 
ATOM     11  C   UNL     1      45.387   4.860  10.413  0.00  0.00    +0.000 C 
ATOM     12  C   UNL     1      47.052   6.609  12.165  0.00  0.00    +0.000 A 
ENDROOT
BRANCH   1  13
ATOM     13  C   UNL     1      49.340   7.518  12.728  0.00  0.00    +0.000 C 
BRANCH  13  19
ATOM     14 CL   UNL     1      48.192   5.938  19.054  0.00  0.00    +0.000 Cl
ATOM     15  C   UNL     1      48.589   6.601  17.530  0.00  0.00    +0.000 A 
ATOM     16  C   UNL     1      48.841   5.820  16.430  0.00  0.00    +0.000 A 
ATOM     17  N   UNL     1      49.180   6.318  15.218  0.00  0.00    +0.000 NA
ATOM     18  C   UNL     1      49.280   7.654  15.113  0.00  0.00    +0.000 A 
ATOM     19  N   UNL     1      49.693   8.239  13.929  0.00  0.00    +0.000 N 
ATOM     20  N   UNL     1      49.024   8.499  16.125  0.00  0.00    +0.000 NA
ATOM     21  C   UNL     1      48.689   7.954  17.314  0.00  0.00    +0.000 A 
ATOM     22  H   UNL     1      49.413   9.213  13.959  0.00  0.00    +0.000 HD
ENDBRANCH  13  19
ENDBRANCH   1  13
TORSDOF 2
ENDMDL
