MODEL 1
REMARK VINA RESULT:    -8.519      0.000      0.000
REMARK INTER + INTRA:         -13.095
REMARK INTER:                 -12.005
REMARK INTRA:                  -1.090
REMARK UNBOUND:                -1.090
REMARK  Name = 
REMARK  7 active torsions:
REMARK  status: ('A' for Active; 'I' for Inactive)
REMARK    1  A    between atoms: C_2  and  C_20
REMARK    2  A    between atoms: N_3  and  C_4
REMARK    3  A    between atoms: C_4  and  C_5
REMARK    4  A    between atoms: C_8  and  C_9
REMARK    5  A    between atoms: C_9  and  O_10
REMARK    6  A    between atoms: O_10  and  C_11
REMARK    7  A    between atoms: C_11  and  C_12
REMARK                            x       y       z     vdW  Elec       q    Type
REMARK                         _______ _______ _______ _____ _____    ______ ____
ROOT
ATOM      1  C   UNL     1      48.168   6.549  13.395  0.00  0.00    +0.000 C 
ENDROOT
BRANCH   1   2
ATOM      2  C   UNL     1      46.957   5.919  12.757  0.00  0.00    +0.000 A 
ATOM      3  C   UNL     1      46.532   6.346  11.492  0.00  0.00    +0.000 A 
ATOM      4  C   UNL     1      45.440   5.741  10.868  0.00  0.00    +0.000 A 
ATOM      5  C   UNL     1      44.748   4.700  11.501  0.00  0.00    +0.000 A 
ATOM      6  C   UNL     1      45.151   4.293  12.779  0.00  0.00    +0.000 A 
ATOM      7  C   UNL     1      46.239   4.905  13.406  0.00  0.00    +0.000 A 
BRANCH   5   8
ATOM      8  C   UNL     1      43.615   3.999  10.792  0.00  0.00    +0.000 C 
BRANCH   8   9
ATOM      9  O   UNL     1      43.991   3.546   9.490  0.00  0.00    +0.000 OA
BRANCH   9  10
ATOM     10  C   UNL     1      44.801   2.374   9.532  0.00  0.00    +0.000 C 
BRANCH  10  11
ATOM     11  C   UNL     1      45.745   2.373   8.359  0.00  0.00    +0.000 A 
ATOM     12  C   UNL     1      46.448   1.211   8.014  0.00  0.00    +0.000 A 
ATOM     13  C   UNL     1      47.284   1.194   6.897  0.00  0.00    +0.000 A 
ATOM     14  C   UNL     1      47.429   2.340   6.118  0.00  0.00    +0.000 A 
ATOM     15  C   UNL     1      46.749   3.507   6.464  0.00  0.00    +0.000 A 
ATOM     16  C   UNL     1      45.913   3.526   7.580  0.00  0.00    +0.000 A 
ENDBRANCH  10  11
ENDBRANCH   9  10
ENDBRANCH   8   9
ENDBRANCH   5   8
ENDBRANCH   1   2
BRANCH   1  19
ATOM     17  O   UNL     1      50.312   6.820  15.237  0.00  0.00    +0.000 OA
ATOM     18  C   UNL     1      49.160   6.762  15.653  0.00  0.00    +0.000 C 
ATOM     19  N   UNL     1      48.077   6.564  14.830  0.00  0.00    +0.000 N 
ATOM     20  H   UNL     1      47.144   6.687  15.205  0.00  0.00    +0.000 HD
BRANCH  18  21
ATOM     21  C   UNL     1      48.847   6.824  17.085  0.00  0.00    +0.000 A 
ATOM     22  C   UNL     1      48.463   8.024  17.670  0.00  0.00    +0.000 A 
ATOM     23  S   UNL     1      48.190   7.906  19.351  0.00  0.00    +0.000 S 
ATOM     24  C   UNL     1      48.532   6.239  19.348  0.00  0.00    +0.000 A 
ATOM     25  N   UNL     1      48.468   5.504  20.492  0.00  0.00    +0.000 NA
ATOM     26  C   UNL     1      48.709   4.243  20.331  0.00  0.00    +0.000 A 
ATOM     27  N   UNL     1      49.012   3.653  19.132  0.00  0.00    +0.000 N 
ATOM     28  C   UNL     1      49.175   4.370  17.974  0.00  0.00    +0.000 A 
ATOM     29  O   UNL     1      49.608   3.832  16.959  0.00  0.00    +0.000 OA
ATOM     30  C   UNL     1      48.867   5.782  18.085  0.00  0.00    +0.000 A 
ATOM     31  H   UNL     1      49.225   2.669  19.080  0.00  0.00    +0.000 HD
ENDBRANCH  18  21
ENDBRANCH   1  19
TORSDOF 7
ENDMDL
MODEL 2
REMARK VINA RESULT:    -8.163      1.387      2.467
REMARK INTER + INTRA:         -12.594
REMARK INTER:                 -11.435
REMARK INTRA:                  -1.158
REMARK UNBOUND:                -1.090
REMARK  Name = 
REMARK  7 active torsions:
REMARK  status: ('A' for Active; 'I' for Inactive)
REMARK    1  A    between atoms: C_2  and  C_20
REMARK    2  A    between atoms: N_3  and  C_4
REMARK    3  A    between atoms: C_4  and  C_5
REMARK    4  A    between atoms: C_8  and  C_9
REMARK    5  A    between atoms: C_9  and  O_10
REMARK    6  A    between atoms: O_10  and  C_11
REMARK    7  A    between atoms: C_11  and  C_12
REMARK                            x       y       z     vdW  Elec       q    Type
REMARK                         _______ _______ _______ _____ _____    ______ ____
ROOT
ATOM      1  C   UNL     1      48.105   6.672  13.707  0.00  0.00    +0.000 C 
ENDROOT
BRANCH   1   2
ATOM      2  C   UNL     1      47.004   5.966  12.957  0.00  0.00    +0.000 A 
ATOM      3  C   UNL     1      46.475   4.770  13.457  0.00  0.00    +0.000 A 
ATOM      4  C   UNL     1      45.424   4.129  12.799  0.00  0.00    +0.000 A 
ATOM      5  C   UNL     1      44.887   4.670  11.623  0.00  0.00    +0.000 A 
ATOM      6  C   UNL     1      45.436   5.849  11.104  0.00  0.00    +0.000 A 
ATOM      7  C   UNL     1      46.493   6.485  11.759  0.00  0.00    +0.000 A 
BRANCH   5   8
ATOM      8  C   UNL     1      43.703   4.015  10.956  0.00  0.00    +0.000 C 
BRANCH   8   9
ATOM      9  O   UNL     1      43.966   3.685   9.591  0.00  0.00    +0.000 OA
BRANCH   9  10
ATOM     10  C   UNL     1      44.553   2.394   9.444  0.00  0.00    +0.000 C 
BRANCH  10  11
ATOM     11  C   UNL     1      45.598   2.437   8.362  0.00  0.00    +0.000 A 
ATOM     12  C   UNL     1      45.835   3.621   7.651  0.00  0.00    +0.000 A 
ATOM     13  C   UNL     1      46.839   3.677   6.683  0.00  0.00    +0.000 A 
ATOM     14  C   UNL     1      47.612   2.549   6.416  0.00  0.00    +0.000 A 
ATOM     15  C   UNL     1      47.371   1.361   7.104  0.00  0.00    +0.000 A 
ATOM     16  C   UNL     1      46.368   1.302   8.071  0.00  0.00    +0.000 A 
ENDBRANCH  10  11
ENDBRANCH   9  10
ENDBRANCH   8   9
ENDBRANCH   5   8
ENDBRANCH   1   2
BRANCH   1  19
ATOM     17  O   UNL     1      50.282   6.488  15.520  0.00  0.00    +0.000 OA
ATOM     18  C   UNL     1      49.134   6.421  15.944  0.00  0.00    +0.000 C 
ATOM     19  N   UNL     1      48.031   6.435  15.124  0.00  0.00    +0.000 N 
ATOM     20  H   UNL     1      47.112   6.542  15.535  0.00  0.00    +0.000 HD
BRANCH  18  21
ATOM     21  C   UNL     1      48.842   6.244  17.371  0.00  0.00    +0.000 A 
ATOM     22  C   UNL     1      49.072   5.022  17.990  0.00  0.00    +0.000 A 
ATOM     23  S   UNL     1      48.626   4.999  19.638  0.00  0.00    +0.000 S 
ATOM     24  C   UNL     1      48.152   6.633  19.593  0.00  0.00    +0.000 A 
ATOM     25  N   UNL     1      47.673   7.260  20.702  0.00  0.00    +0.000 NA
ATOM     26  C   UNL     1      47.395   8.511  20.531  0.00  0.00    +0.000 A 
ATOM     27  N   UNL     1      47.548   9.190  19.352  0.00  0.00    +0.000 N 
ATOM     28  C   UNL     1      47.941   8.577  18.189  0.00  0.00    +0.000 A 
ATOM     29  O   UNL     1      47.907   9.179  17.120  0.00  0.00    +0.000 OA
ATOM     30  C   UNL     1      48.315   7.184  18.334  0.00  0.00    +0.000 A 
ATOM     31  H   UNL     1      47.279  10.159  19.274  0.00  0.00    +0.000 HD
ENDBRANCH  18  21
ENDBRANCH   1  19
TORSDOF 7
ENDMDL
MODEL 3
REMARK VINA RESULT:    -7.679      1.661      3.114
REMARK INTER + INTRA:         -11.911
REMARK INTER:                 -10.640
REMARK INTRA:                  -1.271
REMARK UNBOUND:                -1.090
REMARK  Name = 
REMARK  7 active torsions:
REMARK  status: ('A' for Active; 'I' for Inactive)
REMARK    1  A    between atoms: C_2  and  C_20
REMARK    2  A    between atoms: N_3  and  C_4
REMARK    3  A    between atoms: C_4  and  C_5
REMARK    4  A    between atoms: C_8  and  C_9
REMARK    5  A    between atoms: C_9  and  O_10
REMARK    6  A    between atoms: O_10  and  C_11
REMARK    7  A    between atoms: C_11  and  C_12
REMARK                            x       y       z     vdW  Elec       q    Type
REMARK                         _______ _______ _______ _____ _____    ______ ____
ROOT
ATOM      1  C   UNL     1      47.368   3.938  14.983  0.00  0.00    +0.000 C 
ENDROOT
BRANCH   1   2
ATOM      2  C   UNL     1      46.486   4.219  13.794  0.00  0.00    +0.000 A 
ATOM      3  C   UNL     1      45.976   3.157  13.036  0.00  0.00    +0.000 A 
ATOM      4  C   UNL     1      45.121   3.399  11.960  0.00  0.00    +0.000 A 
ATOM      5  C   UNL     1      44.765   4.710  11.618  0.00  0.00    +0.000 A 
ATOM      6  C   UNL     1      45.298   5.775  12.353  0.00  0.00    +0.000 A 
ATOM      7  C   UNL     1      46.161   5.532  13.426  0.00  0.00    +0.000 A 
BRANCH   5   8
ATOM      8  C   UNL     1      43.782   4.964  10.501  0.00  0.00    +0.000 C 
BRANCH   8   9
ATOM      9  O   UNL     1      44.054   4.164   9.349  0.00  0.00    +0.000 OA
BRANCH   9  10
ATOM     10  C   UNL     1      45.231   4.582   8.660  0.00  0.00    +0.000 C 
BRANCH  10  11
ATOM     11  C   UNL     1      45.883   3.391   8.010  0.00  0.00    +0.000 A 
ATOM     12  C   UNL     1      46.674   3.551   6.865  0.00  0.00    +0.000 A 
ATOM     13  C   UNL     1      47.321   2.456   6.291  0.00  0.00    +0.000 A 
ATOM     14  C   UNL     1      47.179   1.190   6.855  0.00  0.00    +0.000 A 
ATOM     15  C   UNL     1      46.380   1.016   7.984  0.00  0.00    +0.000 A 
ATOM     16  C   UNL     1      45.732   2.110   8.558  0.00  0.00    +0.000 A 
ENDBRANCH  10  11
ENDBRANCH   9  10
ENDBRANCH   8   9
ENDBRANCH   5   8
ENDBRANCH   1   2
BRANCH   1  19
ATOM     17  O   UNL     1      49.518   4.597  16.717  0.00  0.00    +0.000 OA
ATOM     18  C   UNL     1      48.549   5.344  16.643  0.00  0.00    +0.000 C 
ATOM     19  N   UNL     1      47.443   5.061  15.879  0.00  0.00    +0.000 N 
ATOM     20  H   UNL     1      46.749   5.784  15.729  0.00  0.00    +0.000 HD
BRANCH  18  21
ATOM     21  C   UNL     1      48.459   6.579  17.430  0.00  0.00    +0.000 A 
ATOM     22  C   UNL     1      48.369   6.526  18.815  0.00  0.00    +0.000 A 
ATOM     23  S   UNL     1      48.224   8.061  19.548  0.00  0.00    +0.000 S 
ATOM     24  C   UNL     1      48.322   8.852  18.045  0.00  0.00    +0.000 A 
ATOM     25  N   UNL     1      48.274  10.210  17.958  0.00  0.00    +0.000 NA
ATOM     26  C   UNL     1      48.404  10.673  16.757  0.00  0.00    +0.000 A 
ATOM     27  N   UNL     1      48.575   9.903  15.638  0.00  0.00    +0.000 N 
ATOM     28  C   UNL     1      48.540   8.532  15.669  0.00  0.00    +0.000 A 
ATOM     29  O   UNL     1      48.529   7.881  14.629  0.00  0.00    +0.000 OA
ATOM     30  C   UNL     1      48.446   7.957  16.997  0.00  0.00    +0.000 A 
ATOM     31  H   UNL     1      48.636  10.325  14.724  0.00  0.00    +0.000 HD
ENDBRANCH  18  21
ENDBRANCH   1  19
TORSDOF 7
ENDMDL
MODEL 4
REMARK VINA RESULT:    -7.622      1.872      2.304
REMARK INTER + INTRA:         -11.831
REMARK INTER:                 -10.792
REMARK INTRA:                  -1.039
REMARK UNBOUND:                -1.090
REMARK  Name = 
REMARK  7 active torsions:
REMARK  status: ('A' for Active; 'I' for Inactive)
REMARK    1  A    between atoms: C_2  and  C_20
REMARK    2  A    between atoms: N_3  and  C_4
REMARK    3  A    between atoms: C_4  and  C_5
REMARK    4  A    between atoms: C_8  and  C_9
REMARK    5  A    between atoms: C_9  and  O_10
REMARK    6  A    between atoms: O_10  and  C_11
REMARK    7  A    between atoms: C_11  and  C_12
REMARK                            x       y       z     vdW  Elec       q    Type
REMARK                         _______ _______ _______ _____ _____    ______ ____
ROOT
ATOM      1  C   UNL     1      45.769   8.707  12.881  0.00  0.00    +0.000 C 
ENDROOT
BRANCH   1   2
ATOM      2  C   UNL     1      45.254   7.349  12.481  0.00  0.00    +0.000 A 
ATOM      3  C   UNL     1      44.388   7.225  11.386  0.00  0.00    +0.000 A 
ATOM      4  C   UNL     1      43.940   5.969  10.975  0.00  0.00    +0.000 A 
ATOM      5  C   UNL     1      44.343   4.813  11.656  0.00  0.00    +0.000 A 
ATOM      6  C   UNL     1      45.182   4.936  12.770  0.00  0.00    +0.000 A 
ATOM      7  C   UNL     1      45.625   6.195  13.185  0.00  0.00    +0.000 A 
BRANCH   5   8
ATOM      8  C   UNL     1      43.916   3.452  11.163  0.00  0.00    +0.000 C 
BRANCH   8   9
ATOM      9  O   UNL     1      44.982   2.750  10.520  0.00  0.00    +0.000 OA
BRANCH   9  10
ATOM     10  C   UNL     1      44.573   2.132   9.302  0.00  0.00    +0.000 C 
BRANCH  10  11
ATOM     11  C   UNL     1      45.662   2.279   8.273  0.00  0.00    +0.000 A 
ATOM     12  C   UNL     1      46.503   1.199   7.971  0.00  0.00    +0.000 A 
ATOM     13  C   UNL     1      47.480   1.317   6.981  0.00  0.00    +0.000 A 
ATOM     14  C   UNL     1      47.627   2.516   6.289  0.00  0.00    +0.000 A 
ATOM     15  C   UNL     1      46.808   3.602   6.595  0.00  0.00    +0.000 A 
ATOM     16  C   UNL     1      45.832   3.487   7.584  0.00  0.00    +0.000 A 
ENDBRANCH  10  11
ENDBRANCH   9  10
ENDBRANCH   8   9
ENDBRANCH   5   8
ENDBRANCH   1   2
BRANCH   1  19
ATOM     17  O   UNL     1      48.524   9.383  13.017  0.00  0.00    +0.000 OA
ATOM     18  C   UNL     1      47.931   9.048  14.037  0.00  0.00    +0.000 C 
ATOM     19  N   UNL     1      46.618   8.644  14.041  0.00  0.00    +0.000 N 
ATOM     20  H   UNL     1      46.137   8.536  14.926  0.00  0.00    +0.000 HD
BRANCH  18  21
ATOM     21  C   UNL     1      48.604   8.980  15.340  0.00  0.00    +0.000 A 
ATOM     22  C   UNL     1      48.918  10.143  16.031  0.00  0.00    +0.000 A 
ATOM     23  S   UNL     1      49.741   9.862  17.500  0.00  0.00    +0.000 S 
ATOM     24  C   UNL     1      49.666   8.175  17.285  0.00  0.00    +0.000 A 
ATOM     25  N   UNL     1      50.187   7.322  18.210  0.00  0.00    +0.000 NA
ATOM     26  C   UNL     1      50.019   6.070  17.936  0.00  0.00    +0.000 A 
ATOM     27  N   UNL     1      49.380   5.593  16.822  0.00  0.00    +0.000 N 
ATOM     28  C   UNL     1      48.920   6.413  15.824  0.00  0.00    +0.000 A 
ATOM     29  O   UNL     1      48.505   5.945  14.768  0.00  0.00    +0.000 OA
ATOM     30  C   UNL     1      49.038   7.832  16.101  0.00  0.00    +0.000 A 
ATOM     31  H   UNL     1      49.313   4.602  16.649  0.00  0.00    +0.000 HD
ENDBRANCH  18  21
ENDBRANCH   1  19
TORSDOF 7
ENDMDL
MODEL 5
REMARK VINA RESULT:    -7.350      4.149      6.024
REMARK INTER + INTRA:         -11.447
REMARK INTER:                 -10.170
REMARK INTRA:                  -1.277
REMARK UNBOUND:                -1.090
REMARK  Name = 
REMARK  7 active torsions:
REMARK  status: ('A' for Active; 'I' for Inactive)
REMARK    1  A    between atoms: C_2  and  C_20
REMARK    2  A    between atoms: N_3  and  C_4
REMARK    3  A    between atoms: C_4  and  C_5
REMARK    4  A    between atoms: C_8  and  C_9
REMARK    5  A    between atoms: C_9  and  O_10
REMARK    6  A    between atoms: O_10  and  C_11
REMARK    7  A    between atoms: C_11  and  C_12
REMARK                            x       y       z     vdW  Elec       q    Type
REMARK                         _______ _______ _______ _____ _____    ______ ____
ROOT
ATOM      1  C   UNL     1      48.115   7.067  13.346  0.00  0.00    +0.000 C 
ENDROOT
BRANCH   1   2
ATOM      2  C   UNL     1      47.059   6.199  12.713  0.00  0.00    +0.000 A 
ATOM      3  C   UNL     1      46.640   5.028  13.357  0.00  0.00    +0.000 A 
ATOM      4  C   UNL     1      45.630   4.237  12.806  0.00  0.00    +0.000 A 
ATOM      5  C   UNL     1      45.025   4.600  11.596  0.00  0.00    +0.000 A 
ATOM      6  C   UNL     1      45.464   5.753  10.934  0.00  0.00    +0.000 A 
ATOM      7  C   UNL     1      46.480   6.539  11.482  0.00  0.00    +0.000 A 
BRANCH   5   8
ATOM      8  C   UNL     1      43.883   3.783  11.042  0.00  0.00    +0.000 C 
BRANCH   8   9
ATOM      9  O   UNL     1      44.054   3.486   9.655  0.00  0.00    +0.000 OA
BRANCH   9  10
ATOM     10  C   UNL     1      44.645   2.206   9.440  0.00  0.00    +0.000 C 
BRANCH  10  11
ATOM     11  C   UNL     1      45.651   2.298   8.324  0.00  0.00    +0.000 A 
ATOM     12  C   UNL     1      45.819   3.497   7.616  0.00  0.00    +0.000 A 
ATOM     13  C   UNL     1      46.787   3.599   6.616  0.00  0.00    +0.000 A 
ATOM     14  C   UNL     1      47.592   2.504   6.313  0.00  0.00    +0.000 A 
ATOM     15  C   UNL     1      47.421   1.302   6.997  0.00  0.00    +0.000 A 
ATOM     16  C   UNL     1      46.453   1.197   7.997  0.00  0.00    +0.000 A 
ENDBRANCH  10  11
ENDBRANCH   9  10
ENDBRANCH   8   9
ENDBRANCH   5   8
ENDBRANCH   1   2
BRANCH   1  19
ATOM     17  O   UNL     1      48.105   9.893  13.627  0.00  0.00    +0.000 OA
ATOM     18  C   UNL     1      48.660   9.383  12.660  0.00  0.00    +0.000 C 
ATOM     19  N   UNL     1      48.650   8.030  12.420  0.00  0.00    +0.000 N 
ATOM     20  H   UNL     1      49.257   7.652  11.702  0.00  0.00    +0.000 HD
BRANCH  18  21
ATOM     21  C   UNL     1      49.323  10.190  11.630  0.00  0.00    +0.000 A 
ATOM     22  C   UNL     1      48.628  11.193  10.967  0.00  0.00    +0.000 A 
ATOM     23  S   UNL     1      49.553  11.988   9.772  0.00  0.00    +0.000 S 
ATOM     24  C   UNL     1      50.928  11.050  10.130  0.00  0.00    +0.000 A 
ATOM     25  N   UNL     1      52.100  11.233   9.463  0.00  0.00    +0.000 NA
ATOM     26  C   UNL     1      53.069  10.480   9.871  0.00  0.00    +0.000 A 
ATOM     27  N   UNL     1      52.972   9.561  10.881  0.00  0.00    +0.000 N 
ATOM     28  C   UNL     1      51.790   9.281  11.517  0.00  0.00    +0.000 A 
ATOM     29  O   UNL     1      51.705   8.339  12.298  0.00  0.00    +0.000 OA
ATOM     30  C   UNL     1      50.679  10.131  11.134  0.00  0.00    +0.000 A 
ATOM     31  H   UNL     1      53.758   8.979  11.128  0.00  0.00    +0.000 HD
ENDBRANCH  18  21
ENDBRANCH   1  19
TORSDOF 7
ENDMDL
MODEL 6
REMARK VINA RESULT:    -7.237      3.541      8.843
REMARK INTER + INTRA:         -11.289
REMARK INTER:                  -9.585
REMARK INTRA:                  -1.704
REMARK UNBOUND:                -1.090
REMARK  Name = 
REMARK  7 active torsions:
REMARK  status: ('A' for Active; 'I' for Inactive)
REMARK    1  A    between atoms: C_2  and  C_20
REMARK    2  A    between atoms: N_3  and  C_4
REMARK    3  A    between atoms: C_4  and  C_5
REMARK    4  A    between atoms: C_8  and  C_9
REMARK    5  A    between atoms: C_9  and  O_10
REMARK    6  A    between atoms: O_10  and  C_11
REMARK    7  A    between atoms: C_11  and  C_12
REMARK                            x       y       z     vdW  Elec       q    Type
REMARK                         _______ _______ _______ _____ _____    ______ ____
ROOT
ATOM      1  C   UNL     1      47.760   7.658  11.947  0.00  0.00    +0.000 C 
ENDROOT
BRANCH   1   2
ATOM      2  C   UNL     1      48.233   7.834  13.367  0.00  0.00    +0.000 A 
ATOM      3  C   UNL     1      47.736   8.889  14.142  0.00  0.00    +0.000 A 
ATOM      4  C   UNL     1      48.129   9.038  15.473  0.00  0.00    +0.000 A 
ATOM      5  C   UNL     1      49.032   8.136  16.052  0.00  0.00    +0.000 A 
ATOM      6  C   UNL     1      49.554   7.099  15.270  0.00  0.00    +0.000 A 
ATOM      7  C   UNL     1      49.166   6.956  13.935  0.00  0.00    +0.000 A 
BRANCH   5   8
ATOM      8  C   UNL     1      49.397   8.257  17.511  0.00  0.00    +0.000 C 
BRANCH   8   9
ATOM      9  O   UNL     1      48.535   7.483  18.349  0.00  0.00    +0.000 OA
BRANCH   9  10
ATOM     10  C   UNL     1      49.204   6.372  18.942  0.00  0.00    +0.000 C 
BRANCH  10  11
ATOM     11  C   UNL     1      48.844   5.114  18.199  0.00  0.00    +0.000 A 
ATOM     12  C   UNL     1      49.800   4.108  18.001  0.00  0.00    +0.000 A 
ATOM     13  C   UNL     1      49.455   2.919  17.357  0.00  0.00    +0.000 A 
ATOM     14  C   UNL     1      48.152   2.727  16.903  0.00  0.00    +0.000 A 
ATOM     15  C   UNL     1      47.198   3.728  17.079  0.00  0.00    +0.000 A 
ATOM     16  C   UNL     1      47.541   4.917  17.721  0.00  0.00    +0.000 A 
ENDBRANCH  10  11
ENDBRANCH   9  10
ENDBRANCH   8   9
ENDBRANCH   5   8
ENDBRANCH   1   2
BRANCH   1  19
ATOM     17  O   UNL     1      44.934   7.464  12.151  0.00  0.00    +0.000 OA
ATOM     18  C   UNL     1      45.588   6.475  11.840  0.00  0.00    +0.000 C 
ATOM     19  N   UNL     1      46.961   6.472  11.785  0.00  0.00    +0.000 N 
ATOM     20  H   UNL     1      47.437   5.681  11.368  0.00  0.00    +0.000 HD
BRANCH  18  21
ATOM     21  C   UNL     1      44.955   5.179  11.570  0.00  0.00    +0.000 A 
ATOM     22  C   UNL     1      44.238   4.525  12.565  0.00  0.00    +0.000 A 
ATOM     23  S   UNL     1      43.619   3.011  12.075  0.00  0.00    +0.000 S 
ATOM     24  C   UNL     1      44.248   3.197  10.504  0.00  0.00    +0.000 A 
ATOM     25  N   UNL     1      44.062   2.242   9.552  0.00  0.00    +0.000 NA
ATOM     26  C   UNL     1      44.557   2.538   8.395  0.00  0.00    +0.000 A 
ATOM     27  N   UNL     1      45.224   3.698   8.105  0.00  0.00    +0.000 N 
ATOM     28  C   UNL     1      45.512   4.645   9.055  0.00  0.00    +0.000 A 
ATOM     29  O   UNL     1      46.252   5.589   8.796  0.00  0.00    +0.000 OA
ATOM     30  C   UNL     1      44.936   4.389  10.361  0.00  0.00    +0.000 A 
ATOM     31  H   UNL     1      45.618   3.854   7.190  0.00  0.00    +0.000 HD
ENDBRANCH  18  21
ENDBRANCH   1  19
TORSDOF 7
ENDMDL
MODEL 7
REMARK VINA RESULT:    -7.215      2.041      2.626
REMARK INTER + INTRA:         -11.257
REMARK INTER:                 -10.282
REMARK INTRA:                  -0.975
REMARK UNBOUND:                -1.090
REMARK  Name = 
REMARK  7 active torsions:
REMARK  status: ('A' for Active; 'I' for Inactive)
REMARK    1  A    between atoms: C_2  and  C_20
REMARK    2  A    between atoms: N_3  and  C_4
REMARK    3  A    between atoms: C_4  and  C_5
REMARK    4  A    between atoms: C_8  and  C_9
REMARK    5  A    between atoms: C_9  and  O_10
REMARK    6  A    between atoms: O_10  and  C_11
REMARK    7  A    between atoms: C_11  and  C_12
REMARK                            x       y       z     vdW  Elec       q    Type
REMARK                         _______ _______ _______ _____ _____    ______ ____
ROOT
ATOM      1  C   UNL     1      47.034   4.140  15.510  0.00  0.00    +0.000 C 
ENDROOT
BRANCH   1   2
ATOM      2  C   UNL     1      46.536   4.649  14.182  0.00  0.00    +0.000 A 
ATOM      3  C   UNL     1      47.146   5.762  13.588  0.00  0.00    +0.000 A 
ATOM      4  C   UNL     1      46.727   6.218  12.337  0.00  0.00    +0.000 A 
ATOM      5  C   UNL     1      45.685   5.572  11.659  0.00  0.00    +0.000 A 
ATOM      6  C   UNL     1      45.053   4.479  12.264  0.00  0.00    +0.000 A 
ATOM      7  C   UNL     1      45.468   4.029  13.520  0.00  0.00    +0.000 A 
BRANCH   5   8
ATOM      8  C   UNL     1      45.286   6.021  10.274  0.00  0.00    +0.000 C 
BRANCH   8   9
ATOM      9  O   UNL     1      45.895   5.230   9.252  0.00  0.00    +0.000 OA
BRANCH   9  10
ATOM     10  C   UNL     1      45.008   4.246   8.723  0.00  0.00    +0.000 C 
BRANCH  10  11
ATOM     11  C   UNL     1      45.801   3.200   7.986  0.00  0.00    +0.000 A 
ATOM     12  C   UNL     1      46.543   3.543   6.847  0.00  0.00    +0.000 A 
ATOM     13  C   UNL     1      47.319   2.585   6.192  0.00  0.00    +0.000 A 
ATOM     14  C   UNL     1      47.358   1.277   6.669  0.00  0.00    +0.000 A 
ATOM     15  C   UNL     1      46.610   0.921   7.790  0.00  0.00    +0.000 A 
ATOM     16  C   UNL     1      45.832   1.876   8.445  0.00  0.00    +0.000 A 
ENDBRANCH  10  11
ENDBRANCH   9  10
ENDBRANCH   8   9
ENDBRANCH   5   8
ENDBRANCH   1   2
BRANCH   1  19
ATOM     17  O   UNL     1      47.197   5.194  18.142  0.00  0.00    +0.000 OA
ATOM     18  C   UNL     1      48.117   5.385  17.354  0.00  0.00    +0.000 C 
ATOM     19  N   UNL     1      48.083   4.965  16.047  0.00  0.00    +0.000 N 
ATOM     20  H   UNL     1      48.931   5.005  15.493  0.00  0.00    +0.000 HD
BRANCH  18  21
ATOM     21  C   UNL     1      49.312   6.150  17.729  0.00  0.00    +0.000 A 
ATOM     22  C   UNL     1      49.205   7.484  18.102  0.00  0.00    +0.000 A 
ATOM     23  S   UNL     1      50.707   8.215  18.454  0.00  0.00    +0.000 S 
ATOM     24  C   UNL     1      51.548   6.764  18.162  0.00  0.00    +0.000 A 
ATOM     25  N   UNL     1      52.900   6.693  18.299  0.00  0.00    +0.000 NA
ATOM     26  C   UNL     1      53.397   5.518  18.088  0.00  0.00    +0.000 A 
ATOM     27  N   UNL     1      52.666   4.410  17.750  0.00  0.00    +0.000 N 
ATOM     28  C   UNL     1      51.315   4.458  17.514  0.00  0.00    +0.000 A 
ATOM     29  O   UNL     1      50.724   3.486  17.053  0.00  0.00    +0.000 OA
ATOM     30  C   UNL     1      50.697   5.741  17.785  0.00  0.00    +0.000 A 
ATOM     31  H   UNL     1      53.118   3.529  17.564  0.00  0.00    +0.000 HD
ENDBRANCH  18  21
ENDBRANCH   1  19
TORSDOF 7
ENDMDL
MODEL 8
REMARK VINA RESULT:    -7.198      2.338      3.143
REMARK INTER + INTRA:         -11.233
REMARK INTER:                 -10.178
REMARK INTRA:                  -1.055
REMARK UNBOUND:                -1.090
REMARK  Name = 
REMARK  7 active torsions:
REMARK  status: ('A' for Active; 'I' for Inactive)
REMARK    1  A    between atoms: C_2  and  C_20
REMARK    2  A    between atoms: N_3  and  C_4
REMARK    3  A    between atoms: C_4  and  C_5
REMARK    4  A    between atoms: C_8  and  C_9
REMARK    5  A    between atoms: C_9  and  O_10
REMARK    6  A    between atoms: O_10  and  C_11
REMARK    7  A    between atoms: C_11  and  C_12
REMARK                            x       y       z     vdW  Elec       q    Type
REMARK                         _______ _______ _______ _____ _____    ______ ____
ROOT
ATOM      1  C   UNL     1      46.774   8.087  13.320  0.00  0.00    +0.000 C 
ENDROOT
BRANCH   1   2
ATOM      2  C   UNL     1      45.896   7.020  12.718  0.00  0.00    +0.000 A 
ATOM      3  C   UNL     1      45.935   5.715  13.226  0.00  0.00    +0.000 A 
ATOM      4  C   UNL     1      45.095   4.727  12.711  0.00  0.00    +0.000 A 
ATOM      5  C   UNL     1      44.204   5.024  11.672  0.00  0.00    +0.000 A 
ATOM      6  C   UNL     1      44.185   6.319  11.140  0.00  0.00    +0.000 A 
ATOM      7  C   UNL     1      45.032   7.306  11.652  0.00  0.00    +0.000 A 
BRANCH   5   8
ATOM      8  C   UNL     1      43.245   3.973  11.168  0.00  0.00    +0.000 C 
BRANCH   8   9
ATOM      9  O   UNL     1      43.598   3.500   9.866  0.00  0.00    +0.000 OA
BRANCH   9  10
ATOM     10  C   UNL     1      44.527   2.419   9.911  0.00  0.00    +0.000 C 
BRANCH  10  11
ATOM     11  C   UNL     1      45.476   2.523   8.748  0.00  0.00    +0.000 A 
ATOM     12  C   UNL     1      46.154   1.389   8.280  0.00  0.00    +0.000 A 
ATOM     13  C   UNL     1      46.994   1.474   7.169  0.00  0.00    +0.000 A 
ATOM     14  C   UNL     1      47.168   2.694   6.519  0.00  0.00    +0.000 A 
ATOM     15  C   UNL     1      46.513   3.831   6.987  0.00  0.00    +0.000 A 
ATOM     16  C   UNL     1      45.673   3.749   8.098  0.00  0.00    +0.000 A 
ENDBRANCH  10  11
ENDBRANCH   9  10
ENDBRANCH   8   9
ENDBRANCH   5   8
ENDBRANCH   1   2
BRANCH   1  19
ATOM     17  O   UNL     1      48.135   9.378  15.451  0.00  0.00    +0.000 OA
ATOM     18  C   UNL     1      48.382   8.204  15.198  0.00  0.00    +0.000 C 
ATOM     19  N   UNL     1      47.815   7.531  14.143  0.00  0.00    +0.000 N 
ATOM     20  H   UNL     1      47.929   6.526  14.080  0.00  0.00    +0.000 HD
BRANCH  18  21
ATOM     21  C   UNL     1      49.370   7.435  15.964  0.00  0.00    +0.000 A 
ATOM     22  C   UNL     1      48.979   6.694  17.072  0.00  0.00    +0.000 A 
ATOM     23  S   UNL     1      50.275   5.910  17.859  0.00  0.00    +0.000 S 
ATOM     24  C   UNL     1      51.397   6.497  16.721  0.00  0.00    +0.000 A 
ATOM     25  N   UNL     1      52.719   6.182  16.806  0.00  0.00    +0.000 NA
ATOM     26  C   UNL     1      53.444   6.662  15.849  0.00  0.00    +0.000 A 
ATOM     27  N   UNL     1      52.970   7.429  14.819  0.00  0.00    +0.000 N 
ATOM     28  C   UNL     1      51.665   7.844  14.744  0.00  0.00    +0.000 A 
ATOM     29  O   UNL     1      51.314   8.665  13.901  0.00  0.00    +0.000 OA
ATOM     30  C   UNL     1      50.794   7.294  15.764  0.00  0.00    +0.000 A 
ATOM     31  H   UNL     1      53.595   7.803  14.122  0.00  0.00    +0.000 HD
ENDBRANCH  18  21
ENDBRANCH   1  19
TORSDOF 7
ENDMDL
MODEL 9
REMARK VINA RESULT:    -7.049      4.056     10.074
REMARK INTER + INTRA:         -11.024
REMARK INTER:                  -9.539
REMARK INTRA:                  -1.485
REMARK UNBOUND:                -1.090
REMARK  Name = 
REMARK  7 active torsions:
REMARK  status: ('A' for Active; 'I' for Inactive)
REMARK    1  A    between atoms: C_2  and  C_20
REMARK    2  A    between atoms: N_3  and  C_4
REMARK    3  A    between atoms: C_4  and  C_5
REMARK    4  A    between atoms: C_8  and  C_9
REMARK    5  A    between atoms: C_9  and  O_10
REMARK    6  A    between atoms: O_10  and  C_11
REMARK    7  A    between atoms: C_11  and  C_12
REMARK                            x       y       z     vdW  Elec       q    Type
REMARK                         _______ _______ _______ _____ _____    ______ ____
ROOT
ATOM      1  C   UNL     1      47.252   3.521  16.855  0.00  0.00    +0.000 C 
ENDROOT
BRANCH   1   2
ATOM      2  C   UNL     1      48.737   3.489  17.106  0.00  0.00    +0.000 A 
ATOM      3  C   UNL     1      49.422   4.676  17.397  0.00  0.00    +0.000 A 
ATOM      4  C   UNL     1      50.789   4.657  17.677  0.00  0.00    +0.000 A 
ATOM      5  C   UNL     1      51.499   3.450  17.664  0.00  0.00    +0.000 A 
ATOM      6  C   UNL     1      50.824   2.266  17.342  0.00  0.00    +0.000 A 
ATOM      7  C   UNL     1      49.457   2.288  17.055  0.00  0.00    +0.000 A 
BRANCH   5   8
ATOM      8  C   UNL     1      52.960   3.423  18.040  0.00  0.00    +0.000 C 
BRANCH   8   9
ATOM      9  O   UNL     1      53.157   3.145  19.428  0.00  0.00    +0.000 OA
BRANCH   9  10
ATOM     10  C   UNL     1      53.763   4.232  20.123  0.00  0.00    +0.000 C 
BRANCH  10  11
ATOM     11  C   UNL     1      52.695   5.158  20.639  0.00  0.00    +0.000 A 
ATOM     12  C   UNL     1      52.707   6.517  20.297  0.00  0.00    +0.000 A 
ATOM     13  C   UNL     1      51.689   7.366  20.732  0.00  0.00    +0.000 A 
ATOM     14  C   UNL     1      50.652   6.865  21.515  0.00  0.00    +0.000 A 
ATOM     15  C   UNL     1      50.640   5.519  21.876  0.00  0.00    +0.000 A 
ATOM     16  C   UNL     1      51.657   4.668  21.443  0.00  0.00    +0.000 A 
ENDBRANCH  10  11
ENDBRANCH   9  10
ENDBRANCH   8   9
ENDBRANCH   5   8
ENDBRANCH   1   2
BRANCH   1  19
ATOM     17  O   UNL     1      47.264   3.085  14.049  0.00  0.00    +0.000 OA
ATOM     18  C   UNL     1      46.869   4.158  14.494  0.00  0.00    +0.000 C 
ATOM     19  N   UNL     1      46.895   4.468  15.832  0.00  0.00    +0.000 N 
ATOM     20  H   UNL     1      46.410   5.296  16.156  0.00  0.00    +0.000 HD
BRANCH  18  21
ATOM     21  C   UNL     1      46.402   5.237  13.617  0.00  0.00    +0.000 A 
ATOM     22  C   UNL     1      47.189   6.361  13.403  0.00  0.00    +0.000 A 
ATOM     23  S   UNL     1      46.455   7.525  12.393  0.00  0.00    +0.000 S 
ATOM     24  C   UNL     1      45.078   6.549  12.171  0.00  0.00    +0.000 A 
ATOM     25  N   UNL     1      44.044   6.956  11.386  0.00  0.00    +0.000 NA
ATOM     26  C   UNL     1      43.087   6.094  11.274  0.00  0.00    +0.000 A 
ATOM     27  N   UNL     1      43.069   4.865  11.878  0.00  0.00    +0.000 N 
ATOM     28  C   UNL     1      44.046   4.452  12.747  0.00  0.00    +0.000 A 
ATOM     29  O   UNL     1      43.914   3.418  13.395  0.00  0.00    +0.000 OA
ATOM     30  C   UNL     1      45.170   5.359  12.871  0.00  0.00    +0.000 A 
ATOM     31  H   UNL     1      42.274   4.251  11.779  0.00  0.00    +0.000 HD
ENDBRANCH  18  21
ENDBRANCH   1  19
TORSDOF 7
ENDMDL
