MODEL 1
REMARK VINA RESULT:    -8.577      0.000      0.000
REMARK INTER + INTRA:         -12.443
REMARK INTER:                 -11.586
REMARK INTRA:                  -0.858
REMARK UNBOUND:                -0.858
REMARK  Name = 
REMARK  7 active torsions:
REMARK  status: ('A' for Active; 'I' for Inactive)
REMARK    1  A    between atoms: C_1  and  N_2
REMARK    2  A    between atoms: N_2  and  C_3
REMARK    3  A    between atoms: C_3  and  C_4
REMARK    4  A    between atoms: C_7  and  C_8
REMARK    5  A    between atoms: C_8  and  N_9
REMARK    6  A    between atoms: C_10  and  C_12
REMARK    7  A    between atoms: C_24  and  C_26
REMARK                            x       y       z     vdW  Elec       q    Type
REMARK                         _______ _______ _______ _____ _____    ______ ____
ROOT
ATOM      1  C   UNL     1      46.519   4.685  13.293  0.00  0.00    +0.000 A 
ATOM      2  C   UNL     1      47.081   5.861  12.795  0.00  0.00    +0.000 A 
ATOM      3  C   UNL     1      47.975   6.584  13.581  0.00  0.00    +0.000 A 
ATOM      4  C   UNL     1      48.269   6.121  14.860  0.00  0.00    +0.000 A 
ATOM      5  N   UNL     1      47.769   4.959  15.349  0.00  0.00    +0.000 NA
ATOM      6  C   UNL     1      46.916   4.271  14.560  0.00  0.00    +0.000 A 
ENDROOT
BRANCH   1   7
ATOM      7  C   UNL     1      45.519   3.885  12.510  0.00  0.00    +0.000 C 
BRANCH   7   9
ATOM      8  C   UNL     1      43.342   5.119  12.955  0.00  0.00    +0.000 C 
ATOM      9  N   UNL     1      44.329   4.591  12.019  0.00  0.00    +0.000 N 
ATOM     10  C   UNL     1      43.913   4.507  10.670  0.00  0.00    +0.000 C 
ATOM     11  O   UNL     1      42.870   5.038  10.279  0.00  0.00    +0.000 OA
BRANCH  10  12
ATOM     12  C   UNL     1      44.742   3.782   9.645  0.00  0.00    +0.000 A 
ATOM     13  C   UNL     1      45.486   4.531   8.740  0.00  0.00    +0.000 A 
ATOM     14  C   UNL     1      46.267   3.858   7.803  0.00  0.00    +0.000 A 
ATOM     15  C   UNL     1      46.268   2.468   7.787  0.00  0.00    +0.000 A 
ATOM     16  C   UNL     1      45.477   1.801   8.705  0.00  0.00    +0.000 A 
ATOM     17  N   UNL     1      44.714   2.424   9.628  0.00  0.00    +0.000 NA
ENDBRANCH  10  12
ENDBRANCH   7   9
ENDBRANCH   1   7
BRANCH   4  18
ATOM     18  C   UNL     1      49.152   6.928  15.778  0.00  0.00    +0.000 C 
BRANCH  18  19
ATOM     19  N   UNL     1      50.232   6.153  16.339  0.00  0.00    +0.000 N 
ATOM     20  C   UNL     1      50.153   5.566  17.572  0.00  0.00    +0.000 C 
ATOM     21  O   UNL     1      49.166   5.696  18.291  0.00  0.00    +0.000 OA
ATOM     22  H   UNL     1      51.122   6.217  15.855  0.00  0.00    +0.000 HD
BRANCH  20  23
ATOM     23  C   UNL     1      51.277   4.712  17.965  0.00  0.00    +0.000 A 
ATOM     24  C   UNL     1      52.375   5.277  18.607  0.00  0.00    +0.000 A 
ATOM     25  S   UNL     1      53.572   4.149  19.039  0.00  0.00    +0.000 S 
ATOM     26  C   UNL     1      52.695   2.870  18.349  0.00  0.00    +0.000 A 
ATOM     27  N   UNL     1      53.185   1.597  18.354  0.00  0.00    +0.000 NA
ATOM     28  C   UNL     1      52.433   0.733  17.772  0.00  0.00    +0.000 A 
ATOM     29  N   UNL     1      51.224   1.011  17.188  0.00  0.00    +0.000 N 
ATOM     30  C   UNL     1      50.659   2.268  17.200  0.00  0.00    +0.000 A 
ATOM     31  O   UNL     1      49.532   2.466  16.746  0.00  0.00    +0.000 OA
ATOM     32  C   UNL     1      51.491   3.289  17.818  0.00  0.00    +0.000 A 
ATOM     33  H   UNL     1      50.670   0.283  16.765  0.00  0.00    +0.000 HD
ENDBRANCH  20  23
ENDBRANCH  18  19
ENDBRANCH   4  18
TORSDOF 6
ENDMDL
MODEL 2
REMARK VINA RESULT:    -7.604      2.493      2.910
REMARK INTER + INTRA:         -11.128
REMARK INTER:                 -10.809
REMARK INTRA:                  -0.319
REMARK UNBOUND:                -0.858
REMARK  Name = 
REMARK  7 active torsions:
REMARK  status: ('A' for Active; 'I' for Inactive)
REMARK    1  A    between atoms: C_1  and  N_2
REMARK    2  A    between atoms: N_2  and  C_3
REMARK    3  A    between atoms: C_3  and  C_4
REMARK    4  A    between atoms: C_7  and  C_8
REMARK    5  A    between atoms: C_8  and  N_9
REMARK    6  A    between atoms: C_10  and  C_12
REMARK    7  A    between atoms: C_24  and  C_26
REMARK                            x       y       z     vdW  Elec       q    Type
REMARK                         _______ _______ _______ _____ _____    ______ ____
ROOT
ATOM      1  C   UNL     1      45.181   6.743  11.393  0.00  0.00    +0.000 A 
ATOM      2  C   UNL     1      44.917   8.040  11.835  0.00  0.00    +0.000 A 
ATOM      3  C   UNL     1      45.822   8.677  12.681  0.00  0.00    +0.000 A 
ATOM      4  C   UNL     1      46.964   7.989  13.081  0.00  0.00    +0.000 A 
ATOM      5  N   UNL     1      47.263   6.744  12.630  0.00  0.00    +0.000 NA
ATOM      6  C   UNL     1      46.374   6.157  11.801  0.00  0.00    +0.000 A 
ENDROOT
BRANCH   1   7
ATOM      7  C   UNL     1      44.224   5.989  10.515  0.00  0.00    +0.000 C 
BRANCH   7   9
ATOM      8  C   UNL     1      42.771   5.050  12.376  0.00  0.00    +0.000 C 
ATOM      9  N   UNL     1      43.495   4.869  11.122  0.00  0.00    +0.000 N 
ATOM     10  C   UNL     1      43.721   3.529  10.732  0.00  0.00    +0.000 C 
ATOM     11  O   UNL     1      43.164   2.585  11.298  0.00  0.00    +0.000 OA
BRANCH  10  12
ATOM     12  C   UNL     1      44.639   3.199   9.586  0.00  0.00    +0.000 A 
ATOM     13  C   UNL     1      44.990   4.213   8.701  0.00  0.00    +0.000 A 
ATOM     14  C   UNL     1      45.854   3.910   7.651  0.00  0.00    +0.000 A 
ATOM     15  C   UNL     1      46.324   2.609   7.508  0.00  0.00    +0.000 A 
ATOM     16  C   UNL     1      45.903   1.656   8.416  0.00  0.00    +0.000 A 
ATOM     17  N   UNL     1      45.071   1.919   9.446  0.00  0.00    +0.000 NA
ENDBRANCH  10  12
ENDBRANCH   7   9
ENDBRANCH   1   7
BRANCH   4  18
ATOM     18  C   UNL     1      47.916   8.606  14.075  0.00  0.00    +0.000 C 
BRANCH  18  19
ATOM     19  N   UNL     1      48.180   7.746  15.203  0.00  0.00    +0.000 N 
ATOM     20  C   UNL     1      49.425   7.248  15.473  0.00  0.00    +0.000 C 
ATOM     21  O   UNL     1      50.387   7.477  14.745  0.00  0.00    +0.000 OA
ATOM     22  H   UNL     1      47.363   7.380  15.682  0.00  0.00    +0.000 HD
BRANCH  20  23
ATOM     23  C   UNL     1      49.571   6.486  16.715  0.00  0.00    +0.000 A 
ATOM     24  C   UNL     1      50.411   6.962  17.717  0.00  0.00    +0.000 A 
ATOM     25  S   UNL     1      50.436   5.990  19.112  0.00  0.00    +0.000 S 
ATOM     26  C   UNL     1      49.362   4.872  18.420  0.00  0.00    +0.000 A 
ATOM     27  N   UNL     1      48.978   3.753  19.098  0.00  0.00    +0.000 NA
ATOM     28  C   UNL     1      48.187   2.978  18.445  0.00  0.00    +0.000 A 
ATOM     29  N   UNL     1      47.728   3.215  17.174  0.00  0.00    +0.000 N 
ATOM     30  C   UNL     1      48.043   4.354  16.465  0.00  0.00    +0.000 A 
ATOM     31  O   UNL     1      47.543   4.579  15.363  0.00  0.00    +0.000 OA
ATOM     32  C   UNL     1      48.967   5.246  17.150  0.00  0.00    +0.000 A 
ATOM     33  H   UNL     1      47.091   2.578  16.724  0.00  0.00    +0.000 HD
ENDBRANCH  20  23
ENDBRANCH  18  19
ENDBRANCH   4  18
TORSDOF 6
ENDMDL
MODEL 3
REMARK VINA RESULT:    -7.590      3.539      8.547
REMARK INTER + INTRA:         -11.109
REMARK INTER:                  -9.771
REMARK INTRA:                  -1.339
REMARK UNBOUND:                -0.858
REMARK  Name = 
REMARK  7 active torsions:
REMARK  status: ('A' for Active; 'I' for Inactive)
REMARK    1  A    between atoms: C_1  and  N_2
REMARK    2  A    between atoms: N_2  and  C_3
REMARK    3  A    between atoms: C_3  and  C_4
REMARK    4  A    between atoms: C_7  and  C_8
REMARK    5  A    between atoms: C_8  and  N_9
REMARK    6  A    between atoms: C_10  and  C_12
REMARK    7  A    between atoms: C_24  and  C_26
REMARK                            x       y       z     vdW  Elec       q    Type
REMARK                         _______ _______ _______ _____ _____    ______ ____
ROOT
ATOM      1  C   UNL     1      49.236   7.665  16.492  0.00  0.00    +0.000 A 
ATOM      2  C   UNL     1      48.423   8.712  16.057  0.00  0.00    +0.000 A 
ATOM      3  C   UNL     1      48.093   8.813  14.707  0.00  0.00    +0.000 A 
ATOM      4  C   UNL     1      48.604   7.870  13.820  0.00  0.00    +0.000 A 
ATOM      5  N   UNL     1      49.362   6.820  14.226  0.00  0.00    +0.000 NA
ATOM      6  C   UNL     1      49.655   6.741  15.542  0.00  0.00    +0.000 A 
ENDROOT
BRANCH   1   7
ATOM      7  C   UNL     1      49.661   7.528  17.925  0.00  0.00    +0.000 C 
BRANCH   7   9
ATOM      8  C   UNL     1      48.416   8.493  19.919  0.00  0.00    +0.000 C 
ATOM      9  N   UNL     1      48.599   7.432  18.935  0.00  0.00    +0.000 N 
ATOM     10  C   UNL     1      47.945   6.211  19.219  0.00  0.00    +0.000 C 
ATOM     11  O   UNL     1      47.109   6.118  20.122  0.00  0.00    +0.000 OA
BRANCH  10  12
ATOM     12  C   UNL     1      48.227   4.973  18.411  0.00  0.00    +0.000 A 
ATOM     13  C   UNL     1      47.300   4.581  17.450  0.00  0.00    +0.000 A 
ATOM     14  C   UNL     1      47.570   3.445  16.691  0.00  0.00    +0.000 A 
ATOM     15  C   UNL     1      48.739   2.730  16.924  0.00  0.00    +0.000 A 
ATOM     16  C   UNL     1      49.592   3.173  17.919  0.00  0.00    +0.000 A 
ATOM     17  N   UNL     1      49.361   4.273  18.667  0.00  0.00    +0.000 NA
ENDBRANCH  10  12
ENDBRANCH   7   9
ENDBRANCH   1   7
BRANCH   4  18
ATOM     18  C   UNL     1      48.353   8.003  12.339  0.00  0.00    +0.000 C 
BRANCH  18  19
ATOM     19  N   UNL     1      47.608   6.893  11.797  0.00  0.00    +0.000 N 
ATOM     20  C   UNL     1      46.260   6.949  11.577  0.00  0.00    +0.000 C 
ATOM     21  O   UNL     1      45.596   7.941  11.864  0.00  0.00    +0.000 OA
ATOM     22  H   UNL     1      48.100   6.005  11.759  0.00  0.00    +0.000 HD
BRANCH  20  23
ATOM     23  C   UNL     1      45.654   5.791  10.914  0.00  0.00    +0.000 A 
ATOM     24  C   UNL     1      45.820   5.621   9.543  0.00  0.00    +0.000 A 
ATOM     25  S   UNL     1      45.098   4.208   8.934  0.00  0.00    +0.000 S 
ATOM     26  C   UNL     1      44.499   3.786  10.466  0.00  0.00    +0.000 A 
ATOM     27  N   UNL     1      43.747   2.662  10.642  0.00  0.00    +0.000 NA
ATOM     28  C   UNL     1      43.334   2.480  11.846  0.00  0.00    +0.000 A 
ATOM     29  N   UNL     1      43.605   3.310  12.903  0.00  0.00    +0.000 N 
ATOM     30  C   UNL     1      44.402   4.429  12.790  0.00  0.00    +0.000 A 
ATOM     31  O   UNL     1      44.700   5.103  13.777  0.00  0.00    +0.000 OA
ATOM     32  C   UNL     1      44.865   4.697  11.437  0.00  0.00    +0.000 A 
ATOM     33  H   UNL     1      43.269   3.100  13.829  0.00  0.00    +0.000 HD
ENDBRANCH  20  23
ENDBRANCH  18  19
ENDBRANCH   4  18
TORSDOF 6
ENDMDL
MODEL 4
REMARK VINA RESULT:    -7.549      2.469      2.852
REMARK INTER + INTRA:         -11.054
REMARK INTER:                 -10.060
REMARK INTRA:                  -0.994
REMARK UNBOUND:                -0.858
REMARK  Name = 
REMARK  7 active torsions:
REMARK  status: ('A' for Active; 'I' for Inactive)
REMARK    1  A    between atoms: C_1  and  N_2
REMARK    2  A    between atoms: N_2  and  C_3
REMARK    3  A    between atoms: C_3  and  C_4
REMARK    4  A    between atoms: C_7  and  C_8
REMARK    5  A    between atoms: C_8  and  N_9
REMARK    6  A    between atoms: C_10  and  C_12
REMARK    7  A    between atoms: C_24  and  C_26
REMARK                            x       y       z     vdW  Elec       q    Type
REMARK                         _______ _______ _______ _____ _____    ______ ____
ROOT
ATOM      1  C   UNL     1      46.556   4.920  13.176  0.00  0.00    +0.000 A 
ATOM      2  C   UNL     1      47.020   6.076  12.546  0.00  0.00    +0.000 A 
ATOM      3  C   UNL     1      47.972   6.871  13.181  0.00  0.00    +0.000 A 
ATOM      4  C   UNL     1      48.421   6.499  14.444  0.00  0.00    +0.000 A 
ATOM      5  N   UNL     1      48.016   5.358  15.057  0.00  0.00    +0.000 NA
ATOM      6  C   UNL     1      47.104   4.600  14.413  0.00  0.00    +0.000 A 
ENDROOT
BRANCH   1   7
ATOM      7  C   UNL     1      45.502   4.046  12.561  0.00  0.00    +0.000 C 
BRANCH   7   9
ATOM      8  C   UNL     1      43.298   5.230  13.007  0.00  0.00    +0.000 C 
ATOM      9  N   UNL     1      44.285   4.704  12.070  0.00  0.00    +0.000 N 
ATOM     10  C   UNL     1      43.851   4.571  10.731  0.00  0.00    +0.000 C 
ATOM     11  O   UNL     1      42.787   5.061  10.342  0.00  0.00    +0.000 OA
BRANCH  10  12
ATOM     12  C   UNL     1      44.685   3.841   9.713  0.00  0.00    +0.000 A 
ATOM     13  C   UNL     1      45.445   4.586   8.818  0.00  0.00    +0.000 A 
ATOM     14  C   UNL     1      46.230   3.909   7.888  0.00  0.00    +0.000 A 
ATOM     15  C   UNL     1      46.219   2.519   7.868  0.00  0.00    +0.000 A 
ATOM     16  C   UNL     1      45.413   1.856   8.776  0.00  0.00    +0.000 A 
ATOM     17  N   UNL     1      44.646   2.484   9.692  0.00  0.00    +0.000 NA
ENDBRANCH  10  12
ENDBRANCH   7   9
ENDBRANCH   1   7
BRANCH   4  18
ATOM     18  C   UNL     1      49.374   7.386  15.206  0.00  0.00    +0.000 C 
BRANCH  18  19
ATOM     19  N   UNL     1      49.449   7.052  16.607  0.00  0.00    +0.000 N 
ATOM     20  C   UNL     1      50.447   6.274  17.125  0.00  0.00    +0.000 C 
ATOM     21  O   UNL     1      51.321   5.782  16.416  0.00  0.00    +0.000 OA
ATOM     22  H   UNL     1      48.625   7.269  17.160  0.00  0.00    +0.000 HD
BRANCH  20  23
ATOM     23  C   UNL     1      50.465   6.113  18.581  0.00  0.00    +0.000 A 
ATOM     24  C   UNL     1      51.667   6.238  19.271  0.00  0.00    +0.000 A 
ATOM     25  S   UNL     1      51.513   6.070  20.955  0.00  0.00    +0.000 S 
ATOM     26  C   UNL     1      49.845   5.782  20.831  0.00  0.00    +0.000 A 
ATOM     27  N   UNL     1      49.090   5.529  21.938  0.00  0.00    +0.000 NA
ATOM     28  C   UNL     1      47.848   5.298  21.696  0.00  0.00    +0.000 A 
ATOM     29  N   UNL     1      47.278   5.303  20.450  0.00  0.00    +0.000 N 
ATOM     30  C   UNL     1      47.983   5.603  19.304  0.00  0.00    +0.000 A 
ATOM     31  O   UNL     1      47.422   5.688  18.212  0.00  0.00    +0.000 OA
ATOM     32  C   UNL     1      49.402   5.837  19.523  0.00  0.00    +0.000 A 
ATOM     33  H   UNL     1      46.291   5.135  20.328  0.00  0.00    +0.000 HD
ENDBRANCH  20  23
ENDBRANCH  18  19
ENDBRANCH   4  18
TORSDOF 6
ENDMDL
MODEL 5
REMARK VINA RESULT:    -7.502      3.272      4.873
REMARK INTER + INTRA:         -10.991
REMARK INTER:                 -10.118
REMARK INTRA:                  -0.874
REMARK UNBOUND:                -0.858
REMARK  Name = 
REMARK  7 active torsions:
REMARK  status: ('A' for Active; 'I' for Inactive)
REMARK    1  A    between atoms: C_1  and  N_2
REMARK    2  A    between atoms: N_2  and  C_3
REMARK    3  A    between atoms: C_3  and  C_4
REMARK    4  A    between atoms: C_7  and  C_8
REMARK    5  A    between atoms: C_8  and  N_9
REMARK    6  A    between atoms: C_10  and  C_12
REMARK    7  A    between atoms: C_24  and  C_26
REMARK                            x       y       z     vdW  Elec       q    Type
REMARK                         _______ _______ _______ _____ _____    ______ ____
ROOT
ATOM      1  C   UNL     1      46.470   4.715  13.320  0.00  0.00    +0.000 A 
ATOM      2  C   UNL     1      46.923   5.970  12.910  0.00  0.00    +0.000 A 
ATOM      3  C   UNL     1      47.808   6.680  13.717  0.00  0.00    +0.000 A 
ATOM      4  C   UNL     1      48.204   6.124  14.930  0.00  0.00    +0.000 A 
ATOM      5  N   UNL     1      47.811   4.888  15.329  0.00  0.00    +0.000 NA
ATOM      6  C   UNL     1      46.964   4.217  14.521  0.00  0.00    +0.000 A 
ENDROOT
BRANCH   1   7
ATOM      7  C   UNL     1      45.484   3.921  12.515  0.00  0.00    +0.000 C 
BRANCH   7   9
ATOM      8  C   UNL     1      43.284   5.108  12.969  0.00  0.00    +0.000 C 
ATOM      9  N   UNL     1      44.290   4.624  12.030  0.00  0.00    +0.000 N 
ATOM     10  C   UNL     1      43.891   4.575  10.674  0.00  0.00    +0.000 C 
ATOM     11  O   UNL     1      42.845   5.102  10.286  0.00  0.00    +0.000 OA
BRANCH  10  12
ATOM     12  C   UNL     1      44.744   3.893   9.638  0.00  0.00    +0.000 A 
ATOM     13  C   UNL     1      44.783   2.503   9.618  0.00  0.00    +0.000 A 
ATOM     14  C   UNL     1      45.558   1.873   8.648  0.00  0.00    +0.000 A 
ATOM     15  C   UNL     1      46.281   2.645   7.745  0.00  0.00    +0.000 A 
ATOM     16  C   UNL     1      46.208   4.022   7.853  0.00  0.00    +0.000 A 
ATOM     17  N   UNL     1      45.461   4.661   8.779  0.00  0.00    +0.000 NA
ENDBRANCH  10  12
ENDBRANCH   7   9
ENDBRANCH   1   7
BRANCH   4  18
ATOM     18  C   UNL     1      49.080   6.904  15.877  0.00  0.00    +0.000 C 
BRANCH  18  19
ATOM     19  N   UNL     1      48.496   7.049  17.187  0.00  0.00    +0.000 N 
ATOM     20  C   UNL     1      49.234   6.957  18.336  0.00  0.00    +0.000 C 
ATOM     21  O   UNL     1      50.436   6.708  18.317  0.00  0.00    +0.000 OA
ATOM     22  H   UNL     1      47.482   7.040  17.225  0.00  0.00    +0.000 HD
BRANCH  20  23
ATOM     23  C   UNL     1      48.533   7.241  19.590  0.00  0.00    +0.000 A 
ATOM     24  C   UNL     1      48.556   6.302  20.617  0.00  0.00    +0.000 A 
ATOM     25  S   UNL     1      47.738   6.800  22.022  0.00  0.00    +0.000 S 
ATOM     26  C   UNL     1      47.281   8.269  21.303  0.00  0.00    +0.000 A 
ATOM     27  N   UNL     1      46.519   9.176  21.978  0.00  0.00    +0.000 NA
ATOM     28  C   UNL     1      46.222  10.230  21.305  0.00  0.00    +0.000 A 
ATOM     29  N   UNL     1      46.621  10.477  20.017  0.00  0.00    +0.000 N 
ATOM     30  C   UNL     1      47.434   9.619  19.308  0.00  0.00    +0.000 A 
ATOM     31  O   UNL     1      47.848   9.913  18.186  0.00  0.00    +0.000 OA
ATOM     32  C   UNL     1      47.768   8.393  20.016  0.00  0.00    +0.000 A 
ATOM     33  H   UNL     1      46.372  11.334  19.550  0.00  0.00    +0.000 HD
ENDBRANCH  20  23
ENDBRANCH  18  19
ENDBRANCH   4  18
TORSDOF 6
ENDMDL
MODEL 6
REMARK VINA RESULT:    -7.465      3.244      3.925
REMARK INTER + INTRA:         -10.941
REMARK INTER:                 -10.022
REMARK INTRA:                  -0.919
REMARK UNBOUND:                -0.858
REMARK  Name = 
REMARK  7 active torsions:
REMARK  status: ('A' for Active; 'I' for Inactive)
REMARK    1  A    between atoms: C_1  and  N_2
REMARK    2  A    between atoms: N_2  and  C_3
REMARK    3  A    between atoms: C_3  and  C_4
REMARK    4  A    between atoms: C_7  and  C_8
REMARK    5  A    between atoms: C_8  and  N_9
REMARK    6  A    between atoms: C_10  and  C_12
REMARK    7  A    between atoms: C_24  and  C_26
REMARK                            x       y       z     vdW  Elec       q    Type
REMARK                         _______ _______ _______ _____ _____    ______ ____
ROOT
ATOM      1  C   UNL     1      46.590   4.929  13.184  0.00  0.00    +0.000 A 
ATOM      2  C   UNL     1      47.131   6.093  12.636  0.00  0.00    +0.000 A 
ATOM      3  C   UNL     1      47.999   6.873  13.396  0.00  0.00    +0.000 A 
ATOM      4  C   UNL     1      48.290   6.478  14.699  0.00  0.00    +0.000 A 
ATOM      5  N   UNL     1      47.810   5.328  15.238  0.00  0.00    +0.000 NA
ATOM      6  C   UNL     1      46.982   4.585  14.473  0.00  0.00    +0.000 A 
ENDROOT
BRANCH   1   7
ATOM      7  C   UNL     1      45.617   4.070  12.431  0.00  0.00    +0.000 C 
BRANCH   7   9
ATOM      8  C   UNL     1      43.389   5.192  12.920  0.00  0.00    +0.000 C 
ATOM      9  N   UNL     1      44.379   4.707  11.964  0.00  0.00    +0.000 N 
ATOM     10  C   UNL     1      43.933   4.587  10.627  0.00  0.00    +0.000 C 
ATOM     11  O   UNL     1      42.854   5.058  10.258  0.00  0.00    +0.000 OA
BRANCH  10  12
ATOM     12  C   UNL     1      44.774   3.895   9.588  0.00  0.00    +0.000 A 
ATOM     13  C   UNL     1      44.779   2.505   9.553  0.00  0.00    +0.000 A 
ATOM     14  C   UNL     1      45.543   1.867   8.580  0.00  0.00    +0.000 A 
ATOM     15  C   UNL     1      46.288   2.630   7.688  0.00  0.00    +0.000 A 
ATOM     16  C   UNL     1      46.249   4.007   7.810  0.00  0.00    +0.000 A 
ATOM     17  N   UNL     1      45.514   4.654   8.739  0.00  0.00    +0.000 NA
ENDBRANCH  10  12
ENDBRANCH   7   9
ENDBRANCH   1   7
BRANCH   4  18
ATOM     18  C   UNL     1      49.144   7.347  15.586  0.00  0.00    +0.000 C 
BRANCH  18  19
ATOM     19  N   UNL     1      48.701   7.350  16.959  0.00  0.00    +0.000 N 
ATOM     20  C   UNL     1      49.195   8.223  17.889  0.00  0.00    +0.000 C 
ATOM     21  O   UNL     1      50.076   9.034  17.616  0.00  0.00    +0.000 OA
ATOM     22  H   UNL     1      48.140   6.554  17.246  0.00  0.00    +0.000 HD
BRANCH  20  23
ATOM     23  C   UNL     1      48.571   8.191  19.215  0.00  0.00    +0.000 A 
ATOM     24  C   UNL     1      48.181   9.383  19.817  0.00  0.00    +0.000 A 
ATOM     25  S   UNL     1      47.431   9.175  21.329  0.00  0.00    +0.000 S 
ATOM     26  C   UNL     1      47.636   7.491  21.261  0.00  0.00    +0.000 A 
ATOM     27  N   UNL     1      47.223   6.691  22.285  0.00  0.00    +0.000 NA
ATOM     28  C   UNL     1      47.466   5.440  22.116  0.00  0.00    +0.000 A 
ATOM     29  N   UNL     1      48.078   4.901  21.014  0.00  0.00    +0.000 N 
ATOM     30  C   UNL     1      48.468   5.658  19.929  0.00  0.00    +0.000 A 
ATOM     31  O   UNL     1      48.932   5.132  18.918  0.00  0.00    +0.000 OA
ATOM     32  C   UNL     1      48.245   7.086  20.089  0.00  0.00    +0.000 A 
ATOM     33  H   UNL     1      48.222   3.907  20.932  0.00  0.00    +0.000 HD
ENDBRANCH  20  23
ENDBRANCH  18  19
ENDBRANCH   4  18
TORSDOF 6
ENDMDL
MODEL 7
REMARK VINA RESULT:    -7.437      3.063      4.031
REMARK INTER + INTRA:         -10.904
REMARK INTER:                 -10.750
REMARK INTRA:                  -0.154
REMARK UNBOUND:                -0.858
REMARK  Name = 
REMARK  7 active torsions:
REMARK  status: ('A' for Active; 'I' for Inactive)
REMARK    1  A    between atoms: C_1  and  N_2
REMARK    2  A    between atoms: N_2  and  C_3
REMARK    3  A    between atoms: C_3  and  C_4
REMARK    4  A    between atoms: C_7  and  C_8
REMARK    5  A    between atoms: C_8  and  N_9
REMARK    6  A    between atoms: C_10  and  C_12
REMARK    7  A    between atoms: C_24  and  C_26
REMARK                            x       y       z     vdW  Elec       q    Type
REMARK                         _______ _______ _______ _____ _____    ______ ____
ROOT
ATOM      1  C   UNL     1      45.368   6.624  11.603  0.00  0.00    +0.000 A 
ATOM      2  C   UNL     1      45.222   7.937  12.053  0.00  0.00    +0.000 A 
ATOM      3  C   UNL     1      46.162   8.474  12.929  0.00  0.00    +0.000 A 
ATOM      4  C   UNL     1      47.218   7.674  13.352  0.00  0.00    +0.000 A 
ATOM      5  N   UNL     1      47.405   6.409  12.896  0.00  0.00    +0.000 NA
ATOM      6  C   UNL     1      46.486   5.919  12.037  0.00  0.00    +0.000 A 
ENDROOT
BRANCH   1   7
ATOM      7  C   UNL     1      44.367   5.976  10.692  0.00  0.00    +0.000 C 
BRANCH   7   9
ATOM      8  C   UNL     1      42.859   5.017  12.499  0.00  0.00    +0.000 C 
ATOM      9  N   UNL     1      43.580   4.864  11.240  0.00  0.00    +0.000 N 
ATOM     10  C   UNL     1      43.744   3.536  10.784  0.00  0.00    +0.000 C 
ATOM     11  O   UNL     1      43.139   2.593  11.300  0.00  0.00    +0.000 OA
BRANCH  10  12
ATOM     12  C   UNL     1      44.652   3.219   9.626  0.00  0.00    +0.000 A 
ATOM     13  C   UNL     1      45.019   4.250   8.767  0.00  0.00    +0.000 A 
ATOM     14  C   UNL     1      45.873   3.959   7.706  0.00  0.00    +0.000 A 
ATOM     15  C   UNL     1      46.317   2.654   7.525  0.00  0.00    +0.000 A 
ATOM     16  C   UNL     1      45.881   1.684   8.409  0.00  0.00    +0.000 A 
ATOM     17  N   UNL     1      45.058   1.936   9.449  0.00  0.00    +0.000 NA
ENDBRANCH  10  12
ENDBRANCH   7   9
ENDBRANCH   1   7
BRANCH   4  18
ATOM     18  C   UNL     1      48.199   8.185  14.377  0.00  0.00    +0.000 C 
BRANCH  18  19
ATOM     19  N   UNL     1      48.068   7.525  15.653  0.00  0.00    +0.000 N 
ATOM     20  C   UNL     1      49.044   6.716  16.167  0.00  0.00    +0.000 C 
ATOM     21  O   UNL     1      50.078   6.475  15.551  0.00  0.00    +0.000 OA
ATOM     22  H   UNL     1      47.141   7.542  16.069  0.00  0.00    +0.000 HD
BRANCH  20  23
ATOM     23  C   UNL     1      48.826   6.206  17.524  0.00  0.00    +0.000 A 
ATOM     24  C   UNL     1      49.110   4.874  17.810  0.00  0.00    +0.000 A 
ATOM     25  S   UNL     1      48.850   4.451  19.435  0.00  0.00    +0.000 S 
ATOM     26  C   UNL     1      48.307   6.014  19.815  0.00  0.00    +0.000 A 
ATOM     27  N   UNL     1      47.893   6.328  21.075  0.00  0.00    +0.000 NA
ATOM     28  C   UNL     1      47.479   7.537  21.215  0.00  0.00    +0.000 A 
ATOM     29  N   UNL     1      47.446   8.476  20.216  0.00  0.00    +0.000 N 
ATOM     30  C   UNL     1      47.902   8.227  18.939  0.00  0.00    +0.000 A 
ATOM     31  O   UNL     1      47.942   9.117  18.091  0.00  0.00    +0.000 OA
ATOM     32  C   UNL     1      48.347   6.859  18.722  0.00  0.00    +0.000 A 
ATOM     33  H   UNL     1      47.130   9.416  20.396  0.00  0.00    +0.000 HD
ENDBRANCH  20  23
ENDBRANCH  18  19
ENDBRANCH   4  18
TORSDOF 6
ENDMDL
MODEL 8
REMARK VINA RESULT:    -7.375      3.385      8.834
REMARK INTER + INTRA:         -10.819
REMARK INTER:                  -9.620
REMARK INTRA:                  -1.199
REMARK UNBOUND:                -0.858
REMARK  Name = 
REMARK  7 active torsions:
REMARK  status: ('A' for Active; 'I' for Inactive)
REMARK    1  A    between atoms: C_1  and  N_2
REMARK    2  A    between atoms: N_2  and  C_3
REMARK    3  A    between atoms: C_3  and  C_4
REMARK    4  A    between atoms: C_7  and  C_8
REMARK    5  A    between atoms: C_8  and  N_9
REMARK    6  A    between atoms: C_10  and  C_12
REMARK    7  A    between atoms: C_24  and  C_26
REMARK                            x       y       z     vdW  Elec       q    Type
REMARK                         _______ _______ _______ _____ _____    ______ ____
ROOT
ATOM      1  C   UNL     1      49.150   7.709  16.447  0.00  0.00    +0.000 A 
ATOM      2  C   UNL     1      48.391   8.777  15.964  0.00  0.00    +0.000 A 
ATOM      3  C   UNL     1      47.882   8.728  14.668  0.00  0.00    +0.000 A 
ATOM      4  C   UNL     1      48.164   7.618  13.878  0.00  0.00    +0.000 A 
ATOM      5  N   UNL     1      48.862   6.550  14.340  0.00  0.00    +0.000 NA
ATOM      6  C   UNL     1      49.332   6.619  15.604  0.00  0.00    +0.000 A 
ENDROOT
BRANCH   1   7
ATOM      7  C   UNL     1      49.760   7.721  17.819  0.00  0.00    +0.000 C 
BRANCH   7   9
ATOM      8  C   UNL     1      48.838   8.827  19.913  0.00  0.00    +0.000 C 
ATOM      9  N   UNL     1      48.841   7.719  18.964  0.00  0.00    +0.000 N 
ATOM     10  C   UNL     1      48.180   6.544  19.390  0.00  0.00    +0.000 C 
ATOM     11  O   UNL     1      47.470   6.529  20.399  0.00  0.00    +0.000 OA
BRANCH  10  12
ATOM     12  C   UNL     1      48.296   5.262  18.611  0.00  0.00    +0.000 A 
ATOM     13  C   UNL     1      47.194   4.824  17.883  0.00  0.00    +0.000 A 
ATOM     14  C   UNL     1      47.309   3.646  17.149  0.00  0.00    +0.000 A 
ATOM     15  C   UNL     1      48.505   2.937  17.177  0.00  0.00    +0.000 A 
ATOM     16  C   UNL     1      49.541   3.429  17.949  0.00  0.00    +0.000 A 
ATOM     17  N   UNL     1      49.462   4.570  18.667  0.00  0.00    +0.000 NA
ENDBRANCH  10  12
ENDBRANCH   7   9
ENDBRANCH   1   7
BRANCH   4  18
ATOM     18  C   UNL     1      47.716   7.574  12.439  0.00  0.00    +0.000 C 
BRANCH  18  19
ATOM     19  N   UNL     1      46.987   6.372  12.117  0.00  0.00    +0.000 N 
ATOM     20  C   UNL     1      45.638   6.255  12.313  0.00  0.00    +0.000 C 
ATOM     21  O   UNL     1      44.974   7.160  12.811  0.00  0.00    +0.000 OA
ATOM     22  H   UNL     1      47.550   5.553  11.910  0.00  0.00    +0.000 HD
BRANCH  20  23
ATOM     23  C   UNL     1      45.010   5.022  11.833  0.00  0.00    +0.000 A 
ATOM     24  C   UNL     1      44.268   4.241  12.715  0.00  0.00    +0.000 A 
ATOM     25  S   UNL     1      43.566   2.871  11.995  0.00  0.00    +0.000 S 
ATOM     26  C   UNL     1      44.257   3.238  10.489  0.00  0.00    +0.000 A 
ATOM     27  N   UNL     1      44.065   2.427   9.410  0.00  0.00    +0.000 NA
ATOM     28  C   UNL     1      44.670   2.807   8.341  0.00  0.00    +0.000 A 
ATOM     29  N   UNL     1      45.447   3.932   8.238  0.00  0.00    +0.000 N 
ATOM     30  C   UNL     1      45.631   4.813   9.281  0.00  0.00    +0.000 A 
ATOM     31  O   UNL     1      46.260   5.860   9.130  0.00  0.00    +0.000 OA
ATOM     32  C   UNL     1      44.994   4.406  10.524  0.00  0.00    +0.000 A 
ATOM     33  H   UNL     1      45.878   4.188   7.364  0.00  0.00    +0.000 HD
ENDBRANCH  20  23
ENDBRANCH  18  19
ENDBRANCH   4  18
TORSDOF 6
ENDMDL
MODEL 9
REMARK VINA RESULT:    -6.828      2.096      3.013
REMARK INTER + INTRA:         -10.080
REMARK INTER:                  -9.271
REMARK INTRA:                  -0.810
REMARK UNBOUND:                -0.858
REMARK  Name = 
REMARK  7 active torsions:
REMARK  status: ('A' for Active; 'I' for Inactive)
REMARK    1  A    between atoms: C_1  and  N_2
REMARK    2  A    between atoms: N_2  and  C_3
REMARK    3  A    between atoms: C_3  and  C_4
REMARK    4  A    between atoms: C_7  and  C_8
REMARK    5  A    between atoms: C_8  and  N_9
REMARK    6  A    between atoms: C_10  and  C_12
REMARK    7  A    between atoms: C_24  and  C_26
REMARK                            x       y       z     vdW  Elec       q    Type
REMARK                         _______ _______ _______ _____ _____    ______ ____
ROOT
ATOM      1  C   UNL     1      46.929   5.465  13.008  0.00  0.00    +0.000 A 
ATOM      2  C   UNL     1      47.664   6.425  13.705  0.00  0.00    +0.000 A 
ATOM      3  C   UNL     1      48.126   6.140  14.988  0.00  0.00    +0.000 A 
ATOM      4  C   UNL     1      47.821   4.905  15.552  0.00  0.00    +0.000 A 
ATOM      5  N   UNL     1      47.144   3.941  14.878  0.00  0.00    +0.000 NA
ATOM      6  C   UNL     1      46.721   4.240  13.631  0.00  0.00    +0.000 A 
ENDROOT
BRANCH   1   7
ATOM      7  C   UNL     1      46.368   5.728  11.641  0.00  0.00    +0.000 C 
BRANCH   7   9
ATOM      8  C   UNL     1      44.100   6.406  12.565  0.00  0.00    +0.000 C 
ATOM      9  N   UNL     1      44.907   5.795  11.514  0.00  0.00    +0.000 N 
ATOM     10  C   UNL     1      44.200   5.005  10.578  0.00  0.00    +0.000 C 
ATOM     11  O   UNL     1      42.967   5.005  10.528  0.00  0.00    +0.000 OA
BRANCH  10  12
ATOM     12  C   UNL     1      44.929   4.143   9.582  0.00  0.00    +0.000 A 
ATOM     13  C   UNL     1      44.917   2.764   9.761  0.00  0.00    +0.000 A 
ATOM     14  C   UNL     1      45.577   1.967   8.829  0.00  0.00    +0.000 A 
ATOM     15  C   UNL     1      46.239   2.568   7.763  0.00  0.00    +0.000 A 
ATOM     16  C   UNL     1      46.224   3.948   7.676  0.00  0.00    +0.000 A 
ATOM     17  N   UNL     1      45.589   4.746   8.560  0.00  0.00    +0.000 NA
ENDBRANCH  10  12
ENDBRANCH   7   9
ENDBRANCH   1   7
BRANCH   4  18
ATOM     18  C   UNL     1      48.216   4.598  16.974  0.00  0.00    +0.000 C 
BRANCH  18  19
ATOM     19  N   UNL     1      49.419   5.282  17.380  0.00  0.00    +0.000 N 
ATOM     20  C   UNL     1      50.641   4.668  17.408  0.00  0.00    +0.000 C 
ATOM     21  O   UNL     1      50.778   3.482  17.121  0.00  0.00    +0.000 OA
ATOM     22  H   UNL     1      49.288   6.188  17.821  0.00  0.00    +0.000 HD
BRANCH  20  23
ATOM     23  C   UNL     1      51.793   5.515  17.728  0.00  0.00    +0.000 A 
ATOM     24  C   UNL     1      52.520   6.103  16.697  0.00  0.00    +0.000 A 
ATOM     25  S   UNL     1      53.795   7.091  17.232  0.00  0.00    +0.000 S 
ATOM     26  C   UNL     1      53.458   6.741  18.859  0.00  0.00    +0.000 A 
ATOM     27  N   UNL     1      54.218   7.263  19.863  0.00  0.00    +0.000 NA
ATOM     28  C   UNL     1      53.871   6.892  21.044  0.00  0.00    +0.000 A 
ATOM     29  N   UNL     1      52.826   6.051  21.326  0.00  0.00    +0.000 N 
ATOM     30  C   UNL     1      51.995   5.537  20.354  0.00  0.00    +0.000 A 
ATOM     31  O   UNL     1      51.011   4.858  20.649  0.00  0.00    +0.000 OA
ATOM     32  C   UNL     1      52.370   5.901  18.997  0.00  0.00    +0.000 A 
ATOM     33  H   UNL     1      52.591   5.814  22.277  0.00  0.00    +0.000 HD
ENDBRANCH  20  23
ENDBRANCH  18  19
ENDBRANCH   4  18
TORSDOF 6
ENDMDL
