MODEL 1
REMARK VINA RESULT:    -7.759      0.000      0.000
REMARK INTER + INTRA:         -10.068
REMARK INTER:                  -9.574
REMARK INTRA:                  -0.495
REMARK UNBOUND:                -0.495
REMARK  Name = 
REMARK  4 active torsions:
REMARK  status: ('A' for Active; 'I' for Inactive)
REMARK    1  A    between atoms: C_2  and  C_3
REMARK    2  A    between atoms: C_6  and  N_7
REMARK    3  A    between atoms: N_7  and  C_8
REMARK    4  A    between atoms: C_8  and  C_9
REMARK                            x       y       z     vdW  Elec       q    Type
REMARK                         _______ _______ _______ _____ _____    ______ ____
ROOT
ATOM      1  C   UNL     1      44.765   4.542  11.961  0.00  0.00    +0.000 A 
ATOM      2  C   UNL     1      45.549   3.619  12.643  0.00  0.00    +0.000 A 
ATOM      3  C   UNL     1      46.589   4.098  13.421  0.00  0.00    +0.000 A 
ATOM      4  N   UNL     1      46.887   5.410  13.568  0.00  0.00    +0.000 NA
ATOM      5  C   UNL     1      46.121   6.323  12.934  0.00  0.00    +0.000 A 
ATOM      6  N   UNL     1      46.423   7.656  13.064  0.00  0.00    +0.000 N 
ATOM      7  C   UNL     1      45.423   8.723  13.006  0.00  0.00    +0.000 C 
ATOM      8  C   UNL     1      45.954   9.865  12.113  0.00  0.00    +0.000 C 
ATOM      9  N   UNL     1      47.275  10.381  12.540  0.00  0.00    +0.000 NA
ATOM     10  C   UNL     1      48.230   9.250  12.637  0.00  0.00    +0.000 C 
ATOM     11  C   UNL     1      47.743   8.080  13.534  0.00  0.00    +0.000 C 
ATOM     12  C   UNL     1      45.067   5.901  12.124  0.00  0.00    +0.000 A 
ATOM     13  H   UNL     1      47.169  10.778  13.473  0.00  0.00    +0.000 HD
ENDROOT
BRANCH   1  14
ATOM     14  C   UNL     1      43.597   4.130  11.097  0.00  0.00    +0.000 C 
BRANCH  14  15
ATOM     15  N   UNL     1      43.835   4.520   9.717  0.00  0.00    +0.000 N 
ATOM     16  H   UNL     1      43.943   5.523   9.571  0.00  0.00    +0.000 HD
BRANCH  15  20
ATOM     17  C   UNL     1      46.673   2.680   7.393  0.00  0.00    +0.000 A 
ATOM     18  C   UNL     1      46.514   4.055   7.430  0.00  0.00    +0.000 A 
ATOM     19  N   UNL     1      45.591   4.670   8.219  0.00  0.00    +0.000 NA
ATOM     20  C   UNL     1      44.807   3.873   8.977  0.00  0.00    +0.000 A 
ATOM     21  C   UNL     1      44.970   2.487   8.916  0.00  0.00    +0.000 A 
ATOM     22  N   UNL     1      45.902   1.860   8.146  0.00  0.00    +0.000 NA
BRANCH  17  24
ATOM     23  N   UNL     1      48.444   1.592   5.835  0.00  0.00    +0.000 NA
ATOM     24  C   UNL     1      47.659   2.067   6.551  0.00  0.00    +0.000 C 
ENDBRANCH  17  24
ENDBRANCH  15  20
ENDBRANCH  14  15
ENDBRANCH   1  14
TORSDOF 4
ENDMDL
MODEL 2
REMARK VINA RESULT:    -7.351      2.246      3.820
REMARK INTER + INTRA:          -9.565
REMARK INTER:                  -9.290
REMARK INTRA:                  -0.275
REMARK UNBOUND:                -0.495
REMARK  Name = 
REMARK  4 active torsions:
REMARK  status: ('A' for Active; 'I' for Inactive)
REMARK    1  A    between atoms: C_2  and  C_3
REMARK    2  A    between atoms: C_6  and  N_7
REMARK    3  A    between atoms: N_7  and  C_8
REMARK    4  A    between atoms: C_8  and  C_9
REMARK                            x       y       z     vdW  Elec       q    Type
REMARK                         _______ _______ _______ _____ _____    ______ ____
ROOT
ATOM      1  C   UNL     1      45.576   4.768  12.494  0.00  0.00    +0.000 A 
ATOM      2  C   UNL     1      46.073   5.940  11.936  0.00  0.00    +0.000 A 
ATOM      3  C   UNL     1      47.052   6.627  12.634  0.00  0.00    +0.000 A 
ATOM      4  N   UNL     1      47.564   6.225  13.820  0.00  0.00    +0.000 NA
ATOM      5  C   UNL     1      47.113   5.076  14.365  0.00  0.00    +0.000 A 
ATOM      6  N   UNL     1      47.614   4.667  15.576  0.00  0.00    +0.000 N 
ATOM      7  C   UNL     1      47.731   3.263  15.971  0.00  0.00    +0.000 C 
ATOM      8  C   UNL     1      47.224   3.103  17.421  0.00  0.00    +0.000 C 
ATOM      9  N   UNL     1      47.905   3.998  18.385  0.00  0.00    +0.000 NA
ATOM     10  C   UNL     1      47.805   5.397  17.903  0.00  0.00    +0.000 C 
ATOM     11  C   UNL     1      48.312   5.609  16.451  0.00  0.00    +0.000 C 
ATOM     12  C   UNL     1      46.116   4.346  13.717  0.00  0.00    +0.000 A 
ATOM     13  H   UNL     1      48.894   3.746  18.402  0.00  0.00    +0.000 HD
ENDROOT
BRANCH   1  14
ATOM     14  C   UNL     1      44.518   3.933  11.812  0.00  0.00    +0.000 C 
BRANCH  14  15
ATOM     15  N   UNL     1      44.317   4.397  10.450  0.00  0.00    +0.000 N 
ATOM     16  H   UNL     1      44.311   5.410  10.342  0.00  0.00    +0.000 HD
BRANCH  15  20
ATOM     17  C   UNL     1      46.642   2.723   7.510  0.00  0.00    +0.000 A 
ATOM     18  C   UNL     1      45.973   1.965   8.457  0.00  0.00    +0.000 A 
ATOM     19  N   UNL     1      45.181   2.516   9.417  0.00  0.00    +0.000 NA
ATOM     20  C   UNL     1      45.074   3.862   9.423  0.00  0.00    +0.000 A 
ATOM     21  C   UNL     1      45.768   4.613   8.471  0.00  0.00    +0.000 A 
ATOM     22  N   UNL     1      46.548   4.075   7.494  0.00  0.00    +0.000 NA
BRANCH  17  24
ATOM     23  N   UNL     1      48.169   1.615   5.725  0.00  0.00    +0.000 NA
ATOM     24  C   UNL     1      47.467   2.109   6.511  0.00  0.00    +0.000 C 
ENDBRANCH  17  24
ENDBRANCH  15  20
ENDBRANCH  14  15
ENDBRANCH   1  14
TORSDOF 4
ENDMDL
MODEL 3
REMARK VINA RESULT:    -7.069      1.967      2.677
REMARK INTER + INTRA:          -9.216
REMARK INTER:                  -8.807
REMARK INTRA:                  -0.410
REMARK UNBOUND:                -0.495
REMARK  Name = 
REMARK  4 active torsions:
REMARK  status: ('A' for Active; 'I' for Inactive)
REMARK    1  A    between atoms: C_2  and  C_3
REMARK    2  A    between atoms: C_6  and  N_7
REMARK    3  A    between atoms: N_7  and  C_8
REMARK    4  A    between atoms: C_8  and  C_9
REMARK                            x       y       z     vdW  Elec       q    Type
REMARK                         _______ _______ _______ _____ _____    ______ ____
ROOT
ATOM      1  C   UNL     1      44.877   6.158  11.818  0.00  0.00    +0.000 A 
ATOM      2  C   UNL     1      45.942   6.229  12.709  0.00  0.00    +0.000 A 
ATOM      3  C   UNL     1      46.438   7.481  13.029  0.00  0.00    +0.000 A 
ATOM      4  N   UNL     1      45.947   8.642  12.537  0.00  0.00    +0.000 NA
ATOM      5  C   UNL     1      44.897   8.595  11.690  0.00  0.00    +0.000 A 
ATOM      6  N   UNL     1      44.401   9.765  11.172  0.00  0.00    +0.000 N 
ATOM      7  C   UNL     1      42.998   9.958  10.804  0.00  0.00    +0.000 C 
ATOM      8  C   UNL     1      42.929  10.660   9.430  0.00  0.00    +0.000 C 
ATOM      9  N   UNL     1      43.683  11.933   9.380  0.00  0.00    +0.000 NA
ATOM     10  C   UNL     1      45.079  11.689   9.819  0.00  0.00    +0.000 C 
ATOM     11  C   UNL     1      45.199  10.992  11.202  0.00  0.00    +0.000 C 
ATOM     12  C   UNL     1      44.362   7.362  11.318  0.00  0.00    +0.000 A 
ATOM     13  H   UNL     1      43.256  12.576  10.048  0.00  0.00    +0.000 HD
ENDROOT
BRANCH   1  14
ATOM     14  C   UNL     1      44.250   4.845  11.411  0.00  0.00    +0.000 C 
BRANCH  14  15
ATOM     15  N   UNL     1      44.081   4.798   9.969  0.00  0.00    +0.000 N 
ATOM     16  H   UNL     1      43.934   5.705   9.528  0.00  0.00    +0.000 HD
BRANCH  15  20
ATOM     17  C   UNL     1      46.694   2.766   7.543  0.00  0.00    +0.000 A 
ATOM     18  C   UNL     1      46.619   4.149   7.568  0.00  0.00    +0.000 A 
ATOM     19  N   UNL     1      45.771   4.827   8.390  0.00  0.00    +0.000 NA
ATOM     20  C   UNL     1      44.978   4.086   9.194  0.00  0.00    +0.000 A 
ATOM     21  C   UNL     1      45.055   2.692   9.145  0.00  0.00    +0.000 A 
ATOM     22  N   UNL     1      45.911   2.002   8.341  0.00  0.00    +0.000 NA
BRANCH  17  24
ATOM     23  N   UNL     1      48.314   1.546   5.920  0.00  0.00    +0.000 NA
ATOM     24  C   UNL     1      47.602   2.086   6.665  0.00  0.00    +0.000 C 
ENDBRANCH  17  24
ENDBRANCH  15  20
ENDBRANCH  14  15
ENDBRANCH   1  14
TORSDOF 4
ENDMDL
MODEL 4
REMARK VINA RESULT:    -6.737      1.439      2.494
REMARK INTER + INTRA:          -8.807
REMARK INTER:                  -8.417
REMARK INTRA:                  -0.390
REMARK UNBOUND:                -0.495
REMARK  Name = 
REMARK  4 active torsions:
REMARK  status: ('A' for Active; 'I' for Inactive)
REMARK    1  A    between atoms: C_2  and  C_3
REMARK    2  A    between atoms: C_6  and  N_7
REMARK    3  A    between atoms: N_7  and  C_8
REMARK    4  A    between atoms: C_8  and  C_9
REMARK                            x       y       z     vdW  Elec       q    Type
REMARK                         _______ _______ _______ _____ _____    ______ ____
ROOT
ATOM      1  C   UNL     1      44.838   5.269  11.770  0.00  0.00    +0.000 A 
ATOM      2  C   UNL     1      43.938   6.203  11.269  0.00  0.00    +0.000 A 
ATOM      3  C   UNL     1      44.248   7.545  11.411  0.00  0.00    +0.000 A 
ATOM      4  N   UNL     1      45.377   8.006  11.997  0.00  0.00    +0.000 NA
ATOM      5  C   UNL     1      46.275   7.114  12.466  0.00  0.00    +0.000 A 
ATOM      6  N   UNL     1      47.417   7.572  13.077  0.00  0.00    +0.000 N 
ATOM      7  C   UNL     1      48.690   6.852  13.057  0.00  0.00    +0.000 C 
ATOM      8  C   UNL     1      49.299   6.863  14.476  0.00  0.00    +0.000 C 
ATOM      9  N   UNL     1      49.453   8.224  15.040  0.00  0.00    +0.000 NA
ATOM     10  C   UNL     1      48.147   8.925  14.981  0.00  0.00    +0.000 C 
ATOM     11  C   UNL     1      47.499   8.948  13.570  0.00  0.00    +0.000 C 
ATOM     12  C   UNL     1      46.013   5.748  12.366  0.00  0.00    +0.000 A 
ATOM     13  H   UNL     1      50.107   8.736  14.448  0.00  0.00    +0.000 HD
ENDROOT
BRANCH   1  14
ATOM     14  C   UNL     1      44.606   3.781  11.656  0.00  0.00    +0.000 C 
BRANCH  14  15
ATOM     15  N   UNL     1      44.049   3.460  10.353  0.00  0.00    +0.000 N 
ATOM     16  H   UNL     1      43.342   4.115  10.020  0.00  0.00    +0.000 HD
BRANCH  15  20
ATOM     17  C   UNL     1      46.649   2.514   7.321  0.00  0.00    +0.000 A 
ATOM     18  C   UNL     1      46.144   1.567   8.196  0.00  0.00    +0.000 A 
ATOM     19  N   UNL     1      45.262   1.873   9.187  0.00  0.00    +0.000 NA
ATOM     20  C   UNL     1      44.893   3.168   9.298  0.00  0.00    +0.000 A 
ATOM     21  C   UNL     1      45.423   4.114   8.417  0.00  0.00    +0.000 A 
ATOM     22  N   UNL     1      46.292   3.818   7.410  0.00  0.00    +0.000 NA
BRANCH  17  24
ATOM     23  N   UNL     1      48.359   1.864   5.477  0.00  0.00    +0.000 NA
ATOM     24  C   UNL     1      47.575   2.155   6.287  0.00  0.00    +0.000 C 
ENDBRANCH  17  24
ENDBRANCH  15  20
ENDBRANCH  14  15
ENDBRANCH   1  14
TORSDOF 4
ENDMDL
MODEL 5
REMARK VINA RESULT:    -6.634      3.742      7.534
REMARK INTER + INTRA:          -8.680
REMARK INTER:                  -8.271
REMARK INTRA:                  -0.409
REMARK UNBOUND:                -0.495
REMARK  Name = 
REMARK  4 active torsions:
REMARK  status: ('A' for Active; 'I' for Inactive)
REMARK    1  A    between atoms: C_2  and  C_3
REMARK    2  A    between atoms: C_6  and  N_7
REMARK    3  A    between atoms: N_7  and  C_8
REMARK    4  A    between atoms: C_8  and  C_9
REMARK                            x       y       z     vdW  Elec       q    Type
REMARK                         _______ _______ _______ _____ _____    ______ ____
ROOT
ATOM      1  C   UNL     1      47.686   6.353  13.968  0.00  0.00    +0.000 A 
ATOM      2  C   UNL     1      48.288   7.197  13.042  0.00  0.00    +0.000 A 
ATOM      3  C   UNL     1      47.794   7.198  11.748  0.00  0.00    +0.000 A 
ATOM      4  N   UNL     1      46.756   6.438  11.330  0.00  0.00    +0.000 NA
ATOM      5  C   UNL     1      46.142   5.632  12.221  0.00  0.00    +0.000 A 
ATOM      6  N   UNL     1      45.098   4.844  11.804  0.00  0.00    +0.000 N 
ATOM      7  C   UNL     1      43.989   4.444  12.670  0.00  0.00    +0.000 C 
ATOM      8  C   UNL     1      43.705   2.940  12.463  0.00  0.00    +0.000 C 
ATOM      9  N   UNL     1      43.449   2.577  11.051  0.00  0.00    +0.000 NA
ATOM     10  C   UNL     1      44.575   3.059  10.214  0.00  0.00    +0.000 C 
ATOM     11  C   UNL     1      44.893   4.570  10.381  0.00  0.00    +0.000 C 
ATOM     12  C   UNL     1      46.603   5.575  13.536  0.00  0.00    +0.000 A 
ATOM     13  H   UNL     1      42.607   3.068  10.749  0.00  0.00    +0.000 HD
ENDROOT
BRANCH   1  14
ATOM     14  C   UNL     1      48.136   6.282  15.409  0.00  0.00    +0.000 C 
BRANCH  14  15
ATOM     15  N   UNL     1      47.645   5.062  16.026  0.00  0.00    +0.000 N 
ATOM     16  H   UNL     1      46.893   4.601  15.516  0.00  0.00    +0.000 HD
BRANCH  15  20
ATOM     17  C   UNL     1      50.420   2.275  17.200  0.00  0.00    +0.000 A 
ATOM     18  C   UNL     1      50.503   3.610  17.559  0.00  0.00    +0.000 A 
ATOM     19  N   UNL     1      49.571   4.532  17.192  0.00  0.00    +0.000 NA
ATOM     20  C   UNL     1      48.540   4.092  16.439  0.00  0.00    +0.000 A 
ATOM     21  C   UNL     1      48.479   2.745  16.072  0.00  0.00    +0.000 A 
ATOM     22  N   UNL     1      49.395   1.809  16.447  0.00  0.00    +0.000 NA
BRANCH  17  24
ATOM     23  N   UNL     1      52.259   0.584  17.910  0.00  0.00    +0.000 NA
ATOM     24  C   UNL     1      51.420   1.331  17.606  0.00  0.00    +0.000 C 
ENDBRANCH  17  24
ENDBRANCH  15  20
ENDBRANCH  14  15
ENDBRANCH   1  14
TORSDOF 4
ENDMDL
MODEL 6
REMARK VINA RESULT:    -6.011      2.328      7.605
REMARK INTER + INTRA:          -7.912
REMARK INTER:                  -7.562
REMARK INTRA:                  -0.350
REMARK UNBOUND:                -0.495
REMARK  Name = 
REMARK  4 active torsions:
REMARK  status: ('A' for Active; 'I' for Inactive)
REMARK    1  A    between atoms: C_2  and  C_3
REMARK    2  A    between atoms: C_6  and  N_7
REMARK    3  A    between atoms: N_7  and  C_8
REMARK    4  A    between atoms: C_8  and  C_9
REMARK                            x       y       z     vdW  Elec       q    Type
REMARK                         _______ _______ _______ _____ _____    ______ ____
ROOT
ATOM      1  C   UNL     1      45.056   4.092  11.439  0.00  0.00    +0.000 A 
ATOM      2  C   UNL     1      44.758   5.407  11.101  0.00  0.00    +0.000 A 
ATOM      3  C   UNL     1      44.899   5.785   9.777  0.00  0.00    +0.000 A 
ATOM      4  N   UNL     1      45.300   4.954   8.787  0.00  0.00    +0.000 NA
ATOM      5  C   UNL     1      45.568   3.667   9.091  0.00  0.00    +0.000 A 
ATOM      6  N   UNL     1      45.991   2.818   8.098  0.00  0.00    +0.000 N 
ATOM      7  C   UNL     1      45.720   1.381   8.091  0.00  0.00    +0.000 C 
ATOM      8  C   UNL     1      47.011   0.626   7.707  0.00  0.00    +0.000 C 
ATOM      9  N   UNL     1      47.596   1.074   6.423  0.00  0.00    +0.000 NA
ATOM     10  C   UNL     1      47.793   2.544   6.465  0.00  0.00    +0.000 C 
ATOM     11  C   UNL     1      46.518   3.347   6.839  0.00  0.00    +0.000 C 
ATOM     12  C   UNL     1      45.459   3.229  10.411  0.00  0.00    +0.000 A 
ATOM     13  H   UNL     1      46.920   0.873   5.685  0.00  0.00    +0.000 HD
ENDROOT
BRANCH   1  14
ATOM     14  C   UNL     1      44.924   3.570  12.850  0.00  0.00    +0.000 C 
BRANCH  14  15
ATOM     15  N   UNL     1      46.220   3.143  13.349  0.00  0.00    +0.000 N 
ATOM     16  H   UNL     1      46.856   2.793  12.634  0.00  0.00    +0.000 HD
BRANCH  15  20
ATOM     17  C   UNL     1      48.234   5.590  15.957  0.00  0.00    +0.000 A 
ATOM     18  C   UNL     1      47.693   4.374  16.339  0.00  0.00    +0.000 A 
ATOM     19  N   UNL     1      47.046   3.549  15.471  0.00  0.00    +0.000 NA
ATOM     20  C   UNL     1      46.939   3.970  14.192  0.00  0.00    +0.000 A 
ATOM     21  C   UNL     1      47.476   5.207  13.827  0.00  0.00    +0.000 A 
ATOM     22  N   UNL     1      48.141   6.034  14.681  0.00  0.00    +0.000 NA
BRANCH  17  24
ATOM     23  N   UNL     1      49.493   7.119  17.638  0.00  0.00    +0.000 NA
ATOM     24  C   UNL     1      48.911   6.434  16.899  0.00  0.00    +0.000 C 
ENDBRANCH  17  24
ENDBRANCH  15  20
ENDBRANCH  14  15
ENDBRANCH   1  14
TORSDOF 4
ENDMDL
MODEL 7
REMARK VINA RESULT:    -5.994      3.886      7.951
REMARK INTER + INTRA:          -7.891
REMARK INTER:                  -7.583
REMARK INTRA:                  -0.308
REMARK UNBOUND:                -0.495
REMARK  Name = 
REMARK  4 active torsions:
REMARK  status: ('A' for Active; 'I' for Inactive)
REMARK    1  A    between atoms: C_2  and  C_3
REMARK    2  A    between atoms: C_6  and  N_7
REMARK    3  A    between atoms: N_7  and  C_8
REMARK    4  A    between atoms: C_8  and  C_9
REMARK                            x       y       z     vdW  Elec       q    Type
REMARK                         _______ _______ _______ _____ _____    ______ ____
ROOT
ATOM      1  C   UNL     1      46.794   5.061  13.879  0.00  0.00    +0.000 A 
ATOM      2  C   UNL     1      47.343   6.323  13.684  0.00  0.00    +0.000 A 
ATOM      3  C   UNL     1      47.155   6.930  12.453  0.00  0.00    +0.000 A 
ATOM      4  N   UNL     1      46.462   6.378  11.431  0.00  0.00    +0.000 NA
ATOM      5  C   UNL     1      45.899   5.164  11.611  0.00  0.00    +0.000 A 
ATOM      6  N   UNL     1      45.206   4.588  10.575  0.00  0.00    +0.000 N 
ATOM      7  C   UNL     1      44.078   3.676  10.763  0.00  0.00    +0.000 C 
ATOM      8  C   UNL     1      44.240   2.469   9.813  0.00  0.00    +0.000 C 
ATOM      9  N   UNL     1      44.395   2.855   8.392  0.00  0.00    +0.000 NA
ATOM     10  C   UNL     1      45.512   3.823   8.270  0.00  0.00    +0.000 C 
ATOM     11  C   UNL     1      45.388   5.060   9.201  0.00  0.00    +0.000 C 
ATOM     12  C   UNL     1      46.065   4.495  12.823  0.00  0.00    +0.000 A 
ATOM     13  H   UNL     1      43.540   3.330   8.102  0.00  0.00    +0.000 HD
ENDROOT
BRANCH   1  14
ATOM     14  C   UNL     1      46.926   4.315  15.185  0.00  0.00    +0.000 C 
BRANCH  14  15
ATOM     15  N   UNL     1      47.592   5.149  16.171  0.00  0.00    +0.000 N 
ATOM     16  H   UNL     1      46.978   5.533  16.888  0.00  0.00    +0.000 HD
BRANCH  15  20
ATOM     17  C   UNL     1      51.087   3.837  17.878  0.00  0.00    +0.000 A 
ATOM     18  C   UNL     1      50.975   5.070  17.256  0.00  0.00    +0.000 A 
ATOM     19  N   UNL     1      49.811   5.518  16.712  0.00  0.00    +0.000 NA
ATOM     20  C   UNL     1      48.742   4.696  16.791  0.00  0.00    +0.000 A 
ATOM     21  C   UNL     1      48.876   3.449  17.407  0.00  0.00    +0.000 A 
ATOM     22  N   UNL     1      50.030   2.996  17.972  0.00  0.00    +0.000 NA
BRANCH  17  24
ATOM     23  N   UNL     1      53.316   3.022  18.932  0.00  0.00    +0.000 NA
ATOM     24  C   UNL     1      52.330   3.398  18.443  0.00  0.00    +0.000 C 
ENDBRANCH  17  24
ENDBRANCH  15  20
ENDBRANCH  14  15
ENDBRANCH   1  14
TORSDOF 4
ENDMDL
MODEL 8
REMARK VINA RESULT:    -5.771      3.740      6.488
REMARK INTER + INTRA:          -7.615
REMARK INTER:                  -7.210
REMARK INTRA:                  -0.405
REMARK UNBOUND:                -0.495
REMARK  Name = 
REMARK  4 active torsions:
REMARK  status: ('A' for Active; 'I' for Inactive)
REMARK    1  A    between atoms: C_2  and  C_3
REMARK    2  A    between atoms: C_6  and  N_7
REMARK    3  A    between atoms: N_7  and  C_8
REMARK    4  A    between atoms: C_8  and  C_9
REMARK                            x       y       z     vdW  Elec       q    Type
REMARK                         _______ _______ _______ _____ _____    ______ ____
ROOT
ATOM      1  C   UNL     1      48.834   7.256  14.638  0.00  0.00    +0.000 A 
ATOM      2  C   UNL     1      49.675   8.323  14.934  0.00  0.00    +0.000 A 
ATOM      3  C   UNL     1      50.387   8.278  16.120  0.00  0.00    +0.000 A 
ATOM      4  N   UNL     1      50.326   7.258  17.007  0.00  0.00    +0.000 NA
ATOM      5  C   UNL     1      49.535   6.201  16.724  0.00  0.00    +0.000 A 
ATOM      6  N   UNL     1      49.453   5.167  17.623  0.00  0.00    +0.000 N 
ATOM      7  C   UNL     1      49.200   3.778  17.240  0.00  0.00    +0.000 C 
ATOM      8  C   UNL     1      48.145   3.175  18.193  0.00  0.00    +0.000 C 
ATOM      9  N   UNL     1      48.512   3.285  19.623  0.00  0.00    +0.000 NA
ATOM     10  C   UNL     1      48.814   4.703  19.940  0.00  0.00    +0.000 C 
ATOM     11  C   UNL     1      49.877   5.350  19.012  0.00  0.00    +0.000 C 
ATOM     12  C   UNL     1      48.780   6.194  15.551  0.00  0.00    +0.000 A 
ATOM     13  H   UNL     1      49.366   2.746  19.769  0.00  0.00    +0.000 HD
ENDROOT
BRANCH   1  14
ATOM     14  C   UNL     1      48.021   7.196  13.366  0.00  0.00    +0.000 C 
BRANCH  14  15
ATOM     15  N   UNL     1      46.609   7.067  13.682  0.00  0.00    +0.000 N 
ATOM     16  H   UNL     1      46.055   7.904  13.503  0.00  0.00    +0.000 HD
BRANCH  15  20
ATOM     17  C   UNL     1      44.369   3.885  12.377  0.00  0.00    +0.000 A 
ATOM     18  C   UNL     1      43.967   5.200  12.212  0.00  0.00    +0.000 A 
ATOM     19  N   UNL     1      44.719   6.259  12.621  0.00  0.00    +0.000 NA
ATOM     20  C   UNL     1      45.897   5.976  13.217  0.00  0.00    +0.000 A 
ATOM     21  C   UNL     1      46.281   4.644  13.390  0.00  0.00    +0.000 A 
ATOM     22  N   UNL     1      45.547   3.577  12.969  0.00  0.00    +0.000 NA
BRANCH  17  24
ATOM     23  N   UNL     1      42.890   1.925  11.530  0.00  0.00    +0.000 NA
ATOM     24  C   UNL     1      43.551   2.795  11.931  0.00  0.00    +0.000 C 
ENDBRANCH  17  24
ENDBRANCH  15  20
ENDBRANCH  14  15
ENDBRANCH   1  14
TORSDOF 4
ENDMDL
MODEL 9
REMARK VINA RESULT:    -5.675      3.015      7.840
REMARK INTER + INTRA:          -7.496
REMARK INTER:                  -7.108
REMARK INTRA:                  -0.388
REMARK UNBOUND:                -0.495
REMARK  Name = 
REMARK  4 active torsions:
REMARK  status: ('A' for Active; 'I' for Inactive)
REMARK    1  A    between atoms: C_2  and  C_3
REMARK    2  A    between atoms: C_6  and  N_7
REMARK    3  A    between atoms: N_7  and  C_8
REMARK    4  A    between atoms: C_8  and  C_9
REMARK                            x       y       z     vdW  Elec       q    Type
REMARK                         _______ _______ _______ _____ _____    ______ ____
ROOT
ATOM      1  C   UNL     1      46.558   8.307  13.042  0.00  0.00    +0.000 A 
ATOM      2  C   UNL     1      45.914   9.361  12.405  0.00  0.00    +0.000 A 
ATOM      3  C   UNL     1      44.825   9.068  11.601  0.00  0.00    +0.000 A 
ATOM      4  N   UNL     1      44.341   7.820  11.404  0.00  0.00    +0.000 NA
ATOM      5  C   UNL     1      44.937   6.786  12.035  0.00  0.00    +0.000 A 
ATOM      6  N   UNL     1      44.463   5.514  11.830  0.00  0.00    +0.000 N 
ATOM      7  C   UNL     1      44.538   4.450  12.832  0.00  0.00    +0.000 C 
ATOM      8  C   UNL     1      45.018   3.149  12.152  0.00  0.00    +0.000 C 
ATOM      9  N   UNL     1      44.186   2.747  10.995  0.00  0.00    +0.000 NA
ATOM     10  C   UNL     1      44.098   3.882  10.043  0.00  0.00    +0.000 C 
ATOM     11  C   UNL     1      43.610   5.211  10.679  0.00  0.00    +0.000 C 
ATOM     12  C   UNL     1      46.047   7.016  12.846  0.00  0.00    +0.000 A 
ATOM     13  H   UNL     1      43.245   2.557  11.338  0.00  0.00    +0.000 HD
ENDROOT
BRANCH   1  14
ATOM     14  C   UNL     1      47.746   8.516  13.951  0.00  0.00    +0.000 C 
BRANCH  14  15
ATOM     15  N   UNL     1      48.494   7.278  14.087  0.00  0.00    +0.000 N 
ATOM     16  H   UNL     1      49.420   7.292  13.663  0.00  0.00    +0.000 HD
BRANCH  15  20
ATOM     17  C   UNL     1      48.655   5.440  17.753  0.00  0.00    +0.000 A 
ATOM     18  C   UNL     1      48.136   4.820  16.629  0.00  0.00    +0.000 A 
ATOM     19  N   UNL     1      48.104   5.418  15.406  0.00  0.00    +0.000 NA
ATOM     20  C   UNL     1      48.600   6.671  15.326  0.00  0.00    +0.000 A 
ATOM     21  C   UNL     1      49.106   7.288  16.473  0.00  0.00    +0.000 A 
ATOM     22  N   UNL     1      49.161   6.695  17.698  0.00  0.00    +0.000 NA
BRANCH  17  24
ATOM     23  N   UNL     1      48.685   4.205  20.039  0.00  0.00    +0.000 NA
ATOM     24  C   UNL     1      48.674   4.778  19.026  0.00  0.00    +0.000 C 
ENDBRANCH  17  24
ENDBRANCH  15  20
ENDBRANCH  14  15
ENDBRANCH   1  14
TORSDOF 4
ENDMDL
