MODEL 1
REMARK VINA RESULT:    -7.311      0.000      0.000
REMARK INTER + INTRA:         -10.034
REMARK INTER:                  -9.021
REMARK INTRA:                  -1.013
REMARK UNBOUND:                -1.013
REMARK  Name = 
REMARK  4 active torsions:
REMARK  status: ('A' for Active; 'I' for Inactive)
REMARK    1  A    between atoms: C_4  and  O_5
REMARK    2  A    between atoms: O_5  and  C_6
REMARK    3  A    between atoms: C_6  and  C_7
REMARK    4  A    between atoms: C_11  and  N_12
REMARK                            x       y       z     vdW  Elec       q    Type
REMARK                         _______ _______ _______ _____ _____    ______ ____
ROOT
ATOM      1  C   UNL     1      44.883   4.887  12.182  0.00  0.00    +0.000 A 
ATOM      2  C   UNL     1      45.332   3.671  12.719  0.00  0.00    +0.000 A 
ATOM      3  C   UNL     1      46.523   3.591  13.430  0.00  0.00    +0.000 A 
ATOM      4  C   UNL     1      47.302   4.728  13.602  0.00  0.00    +0.000 A 
ATOM      5  C   UNL     1      46.907   5.976  13.093  0.00  0.00    +0.000 A 
ATOM      6  C   UNL     1      45.668   6.033  12.431  0.00  0.00    +0.000 A 
ENDROOT
BRANCH   5   7
ATOM      7  N   UNL     1      47.734   7.080  13.249  0.00  0.00    +0.000 N 
ATOM      8  C   UNL     1      47.210   8.425  13.488  0.00  0.00    +0.000 C 
ATOM      9  C   UNL     1      47.368   9.302  12.246  0.00  0.00    +0.000 C 
ATOM     10  C   UNL     1      48.812   9.300  11.753  0.00  0.00    +0.000 C 
ATOM     11  C   UNL     1      49.295   7.871  11.514  0.00  0.00    +0.000 C 
ATOM     12  C   UNL     1      49.119   7.005  12.763  0.00  0.00    +0.000 C 
ENDBRANCH   5   7
BRANCH   1  13
ATOM     13  C   UNL     1      43.670   4.895  11.262  0.00  0.00    +0.000 C 
ATOM     14  C   UNL     1      42.298   5.360  11.741  0.00  0.00    +0.000 C 
ATOM     15  C   UNL     1      43.143   6.287  10.943  0.00  0.00    +0.000 C 
BRANCH  13  16
ATOM     16  O   UNL     1      43.500   3.774  10.367  0.00  0.00    +0.000 OA
BRANCH  16  20
ATOM     17  C   UNL     1      46.390   2.769   7.616  0.00  0.00    +0.000 A 
ATOM     18  C   UNL     1      45.850   1.796   8.445  0.00  0.00    +0.000 A 
ATOM     19  C   UNL     1      44.870   2.158   9.365  0.00  0.00    +0.000 A 
ATOM     20  C   UNL     1      44.473   3.489   9.426  0.00  0.00    +0.000 A 
ATOM     21  N   UNL     1      44.979   4.454   8.631  0.00  0.00    +0.000 NA
ATOM     22  C   UNL     1      45.929   4.063   7.750  0.00  0.00    +0.000 A 
ENDBRANCH  16  20
ENDBRANCH  13  16
ENDBRANCH   1  13
TORSDOF 4
ENDMDL
MODEL 2
REMARK VINA RESULT:    -6.974      2.059      6.434
REMARK INTER + INTRA:          -9.617
REMARK INTER:                  -8.638
REMARK INTRA:                  -0.979
REMARK UNBOUND:                -1.013
REMARK  Name = 
REMARK  4 active torsions:
REMARK  status: ('A' for Active; 'I' for Inactive)
REMARK    1  A    between atoms: C_4  and  O_5
REMARK    2  A    between atoms: O_5  and  C_6
REMARK    3  A    between atoms: C_6  and  C_7
REMARK    4  A    between atoms: C_11  and  N_12
REMARK                            x       y       z     vdW  Elec       q    Type
REMARK                         _______ _______ _______ _____ _____    ______ ____
ROOT
ATOM      1  C   UNL     1      45.497   5.513  12.269  0.00  0.00    +0.000 A 
ATOM      2  C   UNL     1      44.269   5.603  12.944  0.00  0.00    +0.000 A 
ATOM      3  C   UNL     1      43.126   4.990  12.448  0.00  0.00    +0.000 A 
ATOM      4  C   UNL     1      43.183   4.286  11.252  0.00  0.00    +0.000 A 
ATOM      5  C   UNL     1      44.381   4.156  10.531  0.00  0.00    +0.000 A 
ATOM      6  C   UNL     1      45.532   4.738  11.091  0.00  0.00    +0.000 A 
ENDROOT
BRANCH   5   7
ATOM      7  N   UNL     1      44.388   3.481   9.317  0.00  0.00    +0.000 N 
ATOM      8  C   UNL     1      44.451   2.022   9.231  0.00  0.00    +0.000 C 
ATOM      9  C   UNL     1      45.826   1.561   8.750  0.00  0.00    +0.000 C 
ATOM     10  C   UNL     1      46.213   2.256   7.446  0.00  0.00    +0.000 C 
ATOM     11  C   UNL     1      46.136   3.772   7.604  0.00  0.00    +0.000 C 
ATOM     12  C   UNL     1      44.757   4.215   8.098  0.00  0.00    +0.000 C 
ENDBRANCH   5   7
BRANCH   1  13
ATOM     13  C   UNL     1      46.677   6.345  12.751  0.00  0.00    +0.000 C 
ATOM     14  C   UNL     1      47.164   7.573  11.986  0.00  0.00    +0.000 C 
ATOM     15  C   UNL     1      46.306   7.756  13.186  0.00  0.00    +0.000 C 
BRANCH  13  16
ATOM     16  O   UNL     1      47.820   5.641  13.285  0.00  0.00    +0.000 OA
BRANCH  16  20
ATOM     17  C   UNL     1      47.960   4.784  17.308  0.00  0.00    +0.000 A 
ATOM     18  C   UNL     1      47.142   4.044  16.466  0.00  0.00    +0.000 A 
ATOM     19  C   UNL     1      47.114   4.349  15.108  0.00  0.00    +0.000 A 
ATOM     20  C   UNL     1      47.904   5.394  14.645  0.00  0.00    +0.000 A 
ATOM     21  N   UNL     1      48.709   6.129  15.438  0.00  0.00    +0.000 NA
ATOM     22  C   UNL     1      48.709   5.802  16.752  0.00  0.00    +0.000 A 
ENDBRANCH  16  20
ENDBRANCH  13  16
ENDBRANCH   1  13
TORSDOF 4
ENDMDL
MODEL 3
REMARK VINA RESULT:    -6.852      2.177      6.232
REMARK INTER + INTRA:          -9.467
REMARK INTER:                  -8.546
REMARK INTRA:                  -0.922
REMARK UNBOUND:                -1.013
REMARK  Name = 
REMARK  4 active torsions:
REMARK  status: ('A' for Active; 'I' for Inactive)
REMARK    1  A    between atoms: C_4  and  O_5
REMARK    2  A    between atoms: O_5  and  C_6
REMARK    3  A    between atoms: C_6  and  C_7
REMARK    4  A    between atoms: C_11  and  N_12
REMARK                            x       y       z     vdW  Elec       q    Type
REMARK                         _______ _______ _______ _____ _____    ______ ____
ROOT
ATOM      1  C   UNL     1      45.313   5.432  12.068  0.00  0.00    +0.000 A 
ATOM      2  C   UNL     1      44.350   4.926  12.955  0.00  0.00    +0.000 A 
ATOM      3  C   UNL     1      43.519   3.873  12.596  0.00  0.00    +0.000 A 
ATOM      4  C   UNL     1      43.623   3.313  11.329  0.00  0.00    +0.000 A 
ATOM      5  C   UNL     1      44.568   3.771  10.397  0.00  0.00    +0.000 A 
ATOM      6  C   UNL     1      45.433   4.797  10.813  0.00  0.00    +0.000 A 
ENDROOT
BRANCH   5   7
ATOM      7  N   UNL     1      44.611   3.214   9.125  0.00  0.00    +0.000 N 
ATOM      8  C   UNL     1      44.746   1.774   8.903  0.00  0.00    +0.000 C 
ATOM      9  C   UNL     1      46.143   1.428   8.391  0.00  0.00    +0.000 C 
ATOM     10  C   UNL     1      46.499   2.260   7.161  0.00  0.00    +0.000 C 
ATOM     11  C   UNL     1      46.348   3.749   7.460  0.00  0.00    +0.000 C 
ATOM     12  C   UNL     1      44.947   4.076   7.983  0.00  0.00    +0.000 C 
ENDBRANCH   5   7
BRANCH   1  13
ATOM     13  C   UNL     1      46.076   6.697  12.435  0.00  0.00    +0.000 C 
ATOM     14  C   UNL     1      47.418   6.649  13.159  0.00  0.00    +0.000 C 
ATOM     15  C   UNL     1      47.393   6.866  11.689  0.00  0.00    +0.000 C 
BRANCH  13  16
ATOM     16  O   UNL     1      45.315   7.819  12.933  0.00  0.00    +0.000 OA
BRANCH  16  20
ATOM     17  C   UNL     1      44.841  11.162  10.581  0.00  0.00    +0.000 A 
ATOM     18  C   UNL     1      44.012  10.064  10.405  0.00  0.00    +0.000 A 
ATOM     19  C   UNL     1      44.187   8.945  11.215  0.00  0.00    +0.000 A 
ATOM     20  C   UNL     1      45.198   8.967  12.169  0.00  0.00    +0.000 A 
ATOM     21  N   UNL     1      46.017  10.020  12.364  0.00  0.00    +0.000 NA
ATOM     22  C   UNL     1      45.815  11.088  11.557  0.00  0.00    +0.000 A 
ENDBRANCH  16  20
ENDBRANCH  13  16
ENDBRANCH   1  13
TORSDOF 4
ENDMDL
MODEL 4
REMARK VINA RESULT:    -6.286      1.883      6.373
REMARK INTER + INTRA:          -8.769
REMARK INTER:                  -8.027
REMARK INTRA:                  -0.742
REMARK UNBOUND:                -1.013
REMARK  Name = 
REMARK  4 active torsions:
REMARK  status: ('A' for Active; 'I' for Inactive)
REMARK    1  A    between atoms: C_4  and  O_5
REMARK    2  A    between atoms: O_5  and  C_6
REMARK    3  A    between atoms: C_6  and  C_7
REMARK    4  A    between atoms: C_11  and  N_12
REMARK                            x       y       z     vdW  Elec       q    Type
REMARK                         _______ _______ _______ _____ _____    ______ ____
ROOT
ATOM      1  C   UNL     1      45.353   5.414  11.603  0.00  0.00    +0.000 A 
ATOM      2  C   UNL     1      44.554   4.842  12.605  0.00  0.00    +0.000 A 
ATOM      3  C   UNL     1      43.861   3.657  12.388  0.00  0.00    +0.000 A 
ATOM      4  C   UNL     1      43.941   3.028  11.153  0.00  0.00    +0.000 A 
ATOM      5  C   UNL     1      44.727   3.546  10.110  0.00  0.00    +0.000 A 
ATOM      6  C   UNL     1      45.461   4.713  10.382  0.00  0.00    +0.000 A 
ENDROOT
BRANCH   5   7
ATOM      7  N   UNL     1      44.746   2.910   8.876  0.00  0.00    +0.000 N 
ATOM      8  C   UNL     1      45.051   1.486   8.732  0.00  0.00    +0.000 C 
ATOM      9  C   UNL     1      46.439   1.283   8.125  0.00  0.00    +0.000 C 
ATOM     10  C   UNL     1      46.588   2.063   6.822  0.00  0.00    +0.000 C 
ATOM     11  C   UNL     1      46.266   3.539   7.041  0.00  0.00    +0.000 C 
ATOM     12  C   UNL     1      44.879   3.723   7.659  0.00  0.00    +0.000 C 
ENDBRANCH   5   7
BRANCH   1  13
ATOM     13  C   UNL     1      45.948   6.798  11.820  0.00  0.00    +0.000 C 
ATOM     14  C   UNL     1      45.169   8.071  11.499  0.00  0.00    +0.000 C 
ATOM     15  C   UNL     1      45.256   7.607  12.909  0.00  0.00    +0.000 C 
BRANCH  13  16
ATOM     16  O   UNL     1      47.335   6.996  11.466  0.00  0.00    +0.000 OA
BRANCH  16  20
ATOM     17  C   UNL     1      50.071   8.252  14.272  0.00  0.00    +0.000 A 
ATOM     18  C   UNL     1      49.743   9.074  13.202  0.00  0.00    +0.000 A 
ATOM     19  C   UNL     1      48.812   8.630  12.267  0.00  0.00    +0.000 A 
ATOM     20  C   UNL     1      48.248   7.370  12.436  0.00  0.00    +0.000 A 
ATOM     21  N   UNL     1      48.545   6.553  13.467  0.00  0.00    +0.000 NA
ATOM     22  C   UNL     1      49.454   7.020  14.354  0.00  0.00    +0.000 A 
ENDBRANCH  16  20
ENDBRANCH  13  16
ENDBRANCH   1  13
TORSDOF 4
ENDMDL
MODEL 5
REMARK VINA RESULT:    -6.242      1.226      2.191
REMARK INTER + INTRA:          -8.714
REMARK INTER:                  -8.513
REMARK INTRA:                  -0.201
REMARK UNBOUND:                -1.013
REMARK  Name = 
REMARK  4 active torsions:
REMARK  status: ('A' for Active; 'I' for Inactive)
REMARK    1  A    between atoms: C_4  and  O_5
REMARK    2  A    between atoms: O_5  and  C_6
REMARK    3  A    between atoms: C_6  and  C_7
REMARK    4  A    between atoms: C_11  and  N_12
REMARK                            x       y       z     vdW  Elec       q    Type
REMARK                         _______ _______ _______ _____ _____    ______ ____
ROOT
ATOM      1  C   UNL     1      44.888   5.904  11.514  0.00  0.00    +0.000 A 
ATOM      2  C   UNL     1      44.252   7.151  11.420  0.00  0.00    +0.000 A 
ATOM      3  C   UNL     1      44.950   8.335  11.616  0.00  0.00    +0.000 A 
ATOM      4  C   UNL     1      46.303   8.295  11.931  0.00  0.00    +0.000 A 
ATOM      5  C   UNL     1      46.999   7.079  12.036  0.00  0.00    +0.000 A 
ATOM      6  C   UNL     1      46.276   5.903  11.772  0.00  0.00    +0.000 A 
ENDROOT
BRANCH   5   7
ATOM      7  N   UNL     1      48.340   7.079  12.395  0.00  0.00    +0.000 N 
ATOM      8  C   UNL     1      48.784   6.870  13.773  0.00  0.00    +0.000 C 
ATOM      9  C   UNL     1      49.294   8.173  14.387  0.00  0.00    +0.000 C 
ATOM     10  C   UNL     1      50.362   8.815  13.505  0.00  0.00    +0.000 C 
ATOM     11  C   UNL     1      49.835   9.014  12.086  0.00  0.00    +0.000 C 
ATOM     12  C   UNL     1      49.318   7.703  11.491  0.00  0.00    +0.000 C 
ENDBRANCH   5   7
BRANCH   1  13
ATOM     13  C   UNL     1      44.052   4.632  11.469  0.00  0.00    +0.000 C 
ATOM     14  C   UNL     1      44.326   3.453  12.397  0.00  0.00    +0.000 C 
ATOM     15  C   UNL     1      43.221   4.391  12.722  0.00  0.00    +0.000 C 
BRANCH  13  16
ATOM     16  O   UNL     1      43.667   4.128  10.171  0.00  0.00    +0.000 OA
BRANCH  16  20
ATOM     17  C   UNL     1      46.521   2.620   7.618  0.00  0.00    +0.000 A 
ATOM     18  C   UNL     1      45.833   1.771   8.473  0.00  0.00    +0.000 A 
ATOM     19  C   UNL     1      44.868   2.302   9.325  0.00  0.00    +0.000 A 
ATOM     20  C   UNL     1      44.636   3.673   9.293  0.00  0.00    +0.000 A 
ATOM     21  N   UNL     1      45.287   4.521   8.472  0.00  0.00    +0.000 NA
ATOM     22  C   UNL     1      46.217   3.966   7.659  0.00  0.00    +0.000 A 
ENDBRANCH  16  20
ENDBRANCH  13  16
ENDBRANCH   1  13
TORSDOF 4
ENDMDL
MODEL 6
REMARK VINA RESULT:    -6.081      2.770      3.850
REMARK INTER + INTRA:          -8.516
REMARK INTER:                  -7.522
REMARK INTRA:                  -0.994
REMARK UNBOUND:                -1.013
REMARK  Name = 
REMARK  4 active torsions:
REMARK  status: ('A' for Active; 'I' for Inactive)
REMARK    1  A    between atoms: C_4  and  O_5
REMARK    2  A    between atoms: O_5  and  C_6
REMARK    3  A    between atoms: C_6  and  C_7
REMARK    4  A    between atoms: C_11  and  N_12
REMARK                            x       y       z     vdW  Elec       q    Type
REMARK                         _______ _______ _______ _____ _____    ______ ____
ROOT
ATOM      1  C   UNL     1      44.889   6.889  12.156  0.00  0.00    +0.000 A 
ATOM      2  C   UNL     1      46.250   6.894  12.499  0.00  0.00    +0.000 A 
ATOM      3  C   UNL     1      46.991   8.069  12.499  0.00  0.00    +0.000 A 
ATOM      4  C   UNL     1      46.388   9.265  12.135  0.00  0.00    +0.000 A 
ATOM      5  C   UNL     1      45.029   9.329  11.784  0.00  0.00    +0.000 A 
ATOM      6  C   UNL     1      44.294   8.133  11.853  0.00  0.00    +0.000 A 
ENDROOT
BRANCH   5   7
ATOM      7  N   UNL     1      44.474  10.537  11.384  0.00  0.00    +0.000 N 
ATOM      8  C   UNL     1      43.028  10.753  11.321  0.00  0.00    +0.000 C 
ATOM      9  C   UNL     1      42.546  10.801   9.871  0.00  0.00    +0.000 C 
ATOM     10  C   UNL     1      43.340  11.822   9.061  0.00  0.00    +0.000 C 
ATOM     11  C   UNL     1      44.837  11.537   9.161  0.00  0.00    +0.000 C 
ATOM     12  C   UNL     1      45.300  11.481  10.617  0.00  0.00    +0.000 C 
ENDBRANCH   5   7
BRANCH   1  13
ATOM     13  C   UNL     1      44.163   5.561  11.996  0.00  0.00    +0.000 C 
ATOM     14  C   UNL     1      43.006   5.159  12.906  0.00  0.00    +0.000 C 
ATOM     15  C   UNL     1      42.713   5.696  11.551  0.00  0.00    +0.000 C 
BRANCH  13  16
ATOM     16  O   UNL     1      44.960   4.391  11.707  0.00  0.00    +0.000 OA
BRANCH  16  20
ATOM     17  C   UNL     1      45.216   3.076   7.816  0.00  0.00    +0.000 A 
ATOM     18  C   UNL     1      45.685   4.337   8.157  0.00  0.00    +0.000 A 
ATOM     19  C   UNL     1      45.592   4.759   9.480  0.00  0.00    +0.000 A 
ATOM     20  C   UNL     1      45.022   3.901  10.414  0.00  0.00    +0.000 A 
ATOM     21  N   UNL     1      44.561   2.671  10.112  0.00  0.00    +0.000 NA
ATOM     22  C   UNL     1      44.669   2.296   8.815  0.00  0.00    +0.000 A 
ENDBRANCH  16  20
ENDBRANCH  13  16
ENDBRANCH   1  13
TORSDOF 4
ENDMDL
MODEL 7
REMARK VINA RESULT:    -6.055      3.151      7.225
REMARK INTER + INTRA:          -8.484
REMARK INTER:                  -7.476
REMARK INTRA:                  -1.008
REMARK UNBOUND:                -1.013
REMARK  Name = 
REMARK  4 active torsions:
REMARK  status: ('A' for Active; 'I' for Inactive)
REMARK    1  A    between atoms: C_4  and  O_5
REMARK    2  A    between atoms: O_5  and  C_6
REMARK    3  A    between atoms: C_6  and  C_7
REMARK    4  A    between atoms: C_11  and  N_12
REMARK                            x       y       z     vdW  Elec       q    Type
REMARK                         _______ _______ _______ _____ _____    ______ ____
ROOT
ATOM      1  C   UNL     1      47.793   7.393  13.766  0.00  0.00    +0.000 A 
ATOM      2  C   UNL     1      46.995   8.543  13.671  0.00  0.00    +0.000 A 
ATOM      3  C   UNL     1      45.782   8.527  12.992  0.00  0.00    +0.000 A 
ATOM      4  C   UNL     1      45.352   7.359  12.378  0.00  0.00    +0.000 A 
ATOM      5  C   UNL     1      46.102   6.173  12.439  0.00  0.00    +0.000 A 
ATOM      6  C   UNL     1      47.294   6.209  13.184  0.00  0.00    +0.000 A 
ENDROOT
BRANCH   5   7
ATOM      7  N   UNL     1      45.658   5.037  11.775  0.00  0.00    +0.000 N 
ATOM      8  C   UNL     1      45.019   5.097  10.460  0.00  0.00    +0.000 C 
ATOM      9  C   UNL     1      43.519   4.824  10.569  0.00  0.00    +0.000 C 
ATOM     10  C   UNL     1      43.252   3.514  11.306  0.00  0.00    +0.000 C 
ATOM     11  C   UNL     1      43.936   3.519  12.671  0.00  0.00    +0.000 C 
ATOM     12  C   UNL     1      45.434   3.805  12.545  0.00  0.00    +0.000 C 
ENDBRANCH   5   7
BRANCH   1  13
ATOM     13  C   UNL     1      49.191   7.501  14.361  0.00  0.00    +0.000 C 
ATOM     14  C   UNL     1      50.375   8.019  13.550  0.00  0.00    +0.000 C 
ATOM     15  C   UNL     1      49.695   8.930  14.508  0.00  0.00    +0.000 C 
BRANCH  13  16
ATOM     16  O   UNL     1      49.641   6.425  15.214  0.00  0.00    +0.000 OA
BRANCH  16  20
ATOM     17  C   UNL     1      47.401   5.430  18.520  0.00  0.00    +0.000 A 
ATOM     18  C   UNL     1      48.051   6.655  18.462  0.00  0.00    +0.000 A 
ATOM     19  C   UNL     1      48.799   6.972  17.332  0.00  0.00    +0.000 A 
ATOM     20  C   UNL     1      48.875   6.042  16.302  0.00  0.00    +0.000 A 
ATOM     21  N   UNL     1      48.253   4.846  16.330  0.00  0.00    +0.000 NA
ATOM     22  C   UNL     1      47.536   4.574  17.445  0.00  0.00    +0.000 A 
ENDBRANCH  16  20
ENDBRANCH  13  16
ENDBRANCH   1  13
TORSDOF 4
ENDMDL
MODEL 8
REMARK VINA RESULT:    -5.881      2.355      6.402
REMARK INTER + INTRA:          -8.270
REMARK INTER:                  -7.305
REMARK INTRA:                  -0.965
REMARK UNBOUND:                -1.013
REMARK  Name = 
REMARK  4 active torsions:
REMARK  status: ('A' for Active; 'I' for Inactive)
REMARK    1  A    between atoms: C_4  and  O_5
REMARK    2  A    between atoms: O_5  and  C_6
REMARK    3  A    between atoms: C_6  and  C_7
REMARK    4  A    between atoms: C_11  and  N_12
REMARK                            x       y       z     vdW  Elec       q    Type
REMARK                         _______ _______ _______ _____ _____    ______ ____
ROOT
ATOM      1  C   UNL     1      47.355   6.568  12.584  0.00  0.00    +0.000 A 
ATOM      2  C   UNL     1      47.215   5.859  13.787  0.00  0.00    +0.000 A 
ATOM      3  C   UNL     1      46.345   4.781  13.894  0.00  0.00    +0.000 A 
ATOM      4  C   UNL     1      45.581   4.400  12.799  0.00  0.00    +0.000 A 
ATOM      5  C   UNL     1      45.677   5.065  11.566  0.00  0.00    +0.000 A 
ATOM      6  C   UNL     1      46.609   6.113  11.475  0.00  0.00    +0.000 A 
ENDROOT
BRANCH   5   7
ATOM      7  N   UNL     1      44.864   4.681  10.507  0.00  0.00    +0.000 N 
ATOM      8  C   UNL     1      43.876   3.608  10.625  0.00  0.00    +0.000 C 
ATOM      9  C   UNL     1      44.334   2.359   9.873  0.00  0.00    +0.000 C 
ATOM     10  C   UNL     1      44.689   2.689   8.426  0.00  0.00    +0.000 C 
ATOM     11  C   UNL     1      45.728   3.807   8.371  0.00  0.00    +0.000 C 
ATOM     12  C   UNL     1      45.260   5.044   9.139  0.00  0.00    +0.000 C 
ENDBRANCH   5   7
BRANCH   1  13
ATOM     13  C   UNL     1      48.180   7.847  12.561  0.00  0.00    +0.000 C 
ATOM     14  C   UNL     1      49.689   7.838  12.789  0.00  0.00    +0.000 C 
ATOM     15  C   UNL     1      49.163   7.931  11.401  0.00  0.00    +0.000 C 
BRANCH  13  16
ATOM     16  O   UNL     1      47.617   9.019  13.190  0.00  0.00    +0.000 OA
BRANCH  16  20
ATOM     17  C   UNL     1      44.957  11.367  11.105  0.00  0.00    +0.000 A 
ATOM     18  C   UNL     1      44.518  10.216  11.743  0.00  0.00    +0.000 A 
ATOM     19  C   UNL     1      45.435   9.439  12.447  0.00  0.00    +0.000 A 
ATOM     20  C   UNL     1      46.764   9.843  12.476  0.00  0.00    +0.000 A 
ATOM     21  N   UNL     1      47.219  10.957  11.867  0.00  0.00    +0.000 NA
ATOM     22  C   UNL     1      46.298  11.685  11.194  0.00  0.00    +0.000 A 
ENDBRANCH  16  20
ENDBRANCH  13  16
ENDBRANCH   1  13
TORSDOF 4
ENDMDL
MODEL 9
REMARK VINA RESULT:    -5.601      2.726      7.093
REMARK INTER + INTRA:          -7.923
REMARK INTER:                  -6.938
REMARK INTRA:                  -0.985
REMARK UNBOUND:                -1.013
REMARK  Name = 
REMARK  4 active torsions:
REMARK  status: ('A' for Active; 'I' for Inactive)
REMARK    1  A    between atoms: C_4  and  O_5
REMARK    2  A    between atoms: O_5  and  C_6
REMARK    3  A    between atoms: C_6  and  C_7
REMARK    4  A    between atoms: C_11  and  N_12
REMARK                            x       y       z     vdW  Elec       q    Type
REMARK                         _______ _______ _______ _____ _____    ______ ____
ROOT
ATOM      1  C   UNL     1      47.510   7.858  12.663  0.00  0.00    +0.000 A 
ATOM      2  C   UNL     1      46.928   9.120  12.465  0.00  0.00    +0.000 A 
ATOM      3  C   UNL     1      45.560   9.261  12.267  0.00  0.00    +0.000 A 
ATOM      4  C   UNL     1      44.746   8.137  12.245  0.00  0.00    +0.000 A 
ATOM      5  C   UNL     1      45.265   6.847  12.441  0.00  0.00    +0.000 A 
ATOM      6  C   UNL     1      46.643   6.744  12.697  0.00  0.00    +0.000 A 
ENDROOT
BRANCH   5   7
ATOM      7  N   UNL     1      44.425   5.743  12.368  0.00  0.00    +0.000 N 
ATOM      8  C   UNL     1      44.719   4.486  13.056  0.00  0.00    +0.000 C 
ATOM      9  C   UNL     1      45.145   3.406  12.062  0.00  0.00    +0.000 C 
ATOM     10  C   UNL     1      44.117   3.252  10.945  0.00  0.00    +0.000 C 
ATOM     11  C   UNL     1      43.862   4.593  10.262  0.00  0.00    +0.000 C 
ATOM     12  C   UNL     1      43.448   5.665  11.273  0.00  0.00    +0.000 C 
ENDBRANCH   5   7
BRANCH   1  13
ATOM     13  C   UNL     1      49.026   7.731  12.696  0.00  0.00    +0.000 C 
ATOM     14  C   UNL     1      49.862   7.703  11.420  0.00  0.00    +0.000 C 
ATOM     15  C   UNL     1      49.764   8.966  12.198  0.00  0.00    +0.000 C 
BRANCH  13  16
ATOM     16  O   UNL     1      49.602   6.815  13.654  0.00  0.00    +0.000 OA
BRANCH  16  20
ATOM     17  C   UNL     1      48.654   7.288  17.631  0.00  0.00    +0.000 A 
ATOM     18  C   UNL     1      49.091   8.374  16.885  0.00  0.00    +0.000 A 
ATOM     19  C   UNL     1      49.402   8.192  15.540  0.00  0.00    +0.000 A 
ATOM     20  C   UNL     1      49.271   6.920  14.994  0.00  0.00    +0.000 A 
ATOM     21  N   UNL     1      48.847   5.848  15.693  0.00  0.00    +0.000 NA
ATOM     22  C   UNL     1      48.554   6.066  16.997  0.00  0.00    +0.000 A 
ENDBRANCH  16  20
ENDBRANCH  13  16
ENDBRANCH   1  13
TORSDOF 4
ENDMDL
