MODEL 1
REMARK VINA RESULT:    -7.462      0.000      0.000
REMARK INTER + INTRA:         -10.604
REMARK INTER:                  -9.643
REMARK INTRA:                  -0.961
REMARK UNBOUND:                -0.961
REMARK  Name = 
REMARK  5 active torsions:
REMARK  status: ('A' for Active; 'I' for Inactive)
REMARK    1  A    between atoms: C_2  and  C_18
REMARK    2  A    between atoms: N_3  and  C_4
REMARK    3  A    between atoms: C_7  and  C_8
REMARK    4  A    between atoms: C_8  and  N_9
REMARK    5  A    between atoms: N_9  and  C_10
REMARK                            x       y       z     vdW  Elec       q    Type
REMARK                         _______ _______ _______ _____ _____    ______ ____
ROOT
ATOM      1  C   UNL     1      46.411   5.155  13.563  0.00  0.00    +0.000 A 
ATOM      2  C   UNL     1      45.598   4.166  13.022  0.00  0.00    +0.000 A 
ATOM      3  C   UNL     1      45.162   4.266  11.706  0.00  0.00    +0.000 A 
ATOM      4  C   UNL     1      45.503   5.371  10.916  0.00  0.00    +0.000 A 
ATOM      5  C   UNL     1      46.293   6.383  11.474  0.00  0.00    +0.000 A 
ATOM      6  C   UNL     1      46.733   6.280  12.795  0.00  0.00    +0.000 A 
ENDROOT
BRANCH   1   9
ATOM      7  O   UNL     1      47.695   2.886  14.917  0.00  0.00    +0.000 OA
ATOM      8  C   UNL     1      47.584   3.996  15.428  0.00  0.00    +0.000 C 
ATOM      9  N   UNL     1      46.967   5.082  14.849  0.00  0.00    +0.000 N 
ATOM     10  H   UNL     1      47.058   5.977  15.317  0.00  0.00    +0.000 HD
BRANCH   8  11
ATOM     11  C   UNL     1      48.136   4.235  16.768  0.00  0.00    +0.000 A 
ATOM     12  C   UNL     1      47.717   3.445  17.830  0.00  0.00    +0.000 A 
ATOM     13  S   UNL     1      48.468   3.837  19.307  0.00  0.00    +0.000 S 
ATOM     14  C   UNL     1      49.412   5.046  18.570  0.00  0.00    +0.000 A 
ATOM     15  N   UNL     1      50.320   5.758  19.289  0.00  0.00    +0.000 NA
ATOM     16  C   UNL     1      51.003   6.606  18.595  0.00  0.00    +0.000 A 
ATOM     17  N   UNL     1      50.847   6.825  17.250  0.00  0.00    +0.000 N 
ATOM     18  C   UNL     1      49.885   6.187  16.504  0.00  0.00    +0.000 A 
ATOM     19  O   UNL     1      49.675   6.511  15.338  0.00  0.00    +0.000 OA
ATOM     20  C   UNL     1      49.132   5.176  17.220  0.00  0.00    +0.000 A 
ATOM     21  H   UNL     1      51.385   7.533  16.774  0.00  0.00    +0.000 HD
ENDBRANCH   8  11
ENDBRANCH   1   9
BRANCH   4  22
ATOM     22  C   UNL     1      45.083   5.463   9.467  0.00  0.00    +0.000 C 
BRANCH  22  23
ATOM     23  N   UNL     1      45.951   4.679   8.601  0.00  0.00    +0.000 NA
ATOM     24  H   UNL     1      46.561   4.076   9.161  0.00  0.00    +0.000 HD
BRANCH  23  25
ATOM     25  C   UNL     1      45.262   3.846   7.610  0.00  0.00    +0.000 C 
ATOM     26  C   UNL     1      44.593   2.596   8.208  0.00  0.00    +0.000 C 
ATOM     27  C   UNL     1      45.631   1.648   8.812  0.00  0.00    +0.000 C 
ATOM     28  C   UNL     1      46.719   1.302   7.794  0.00  0.00    +0.000 C 
ATOM     29  N   UNL     1      47.334   2.495   7.212  0.00  0.00    +0.000 NA
ATOM     30  C   UNL     1      46.326   3.371   6.586  0.00  0.00    +0.000 C 
ATOM     31  H   UNL     1      48.014   2.218   6.505  0.00  0.00    +0.000 HD
ENDBRANCH  23  25
ENDBRANCH  22  23
ENDBRANCH   4  22
TORSDOF 5
ENDMDL
MODEL 2
REMARK VINA RESULT:    -7.143      1.729      2.340
REMARK INTER + INTRA:         -10.191
REMARK INTER:                  -9.781
REMARK INTRA:                  -0.410
REMARK UNBOUND:                -0.961
REMARK  Name = 
REMARK  5 active torsions:
REMARK  status: ('A' for Active; 'I' for Inactive)
REMARK    1  A    between atoms: C_2  and  C_18
REMARK    2  A    between atoms: N_3  and  C_4
REMARK    3  A    between atoms: C_7  and  C_8
REMARK    4  A    between atoms: C_8  and  N_9
REMARK    5  A    between atoms: N_9  and  C_10
REMARK                            x       y       z     vdW  Elec       q    Type
REMARK                         _______ _______ _______ _____ _____    ______ ____
ROOT
ATOM      1  C   UNL     1      46.912   4.909  14.463  0.00  0.00    +0.000 A 
ATOM      2  C   UNL     1      46.272   5.853  13.668  0.00  0.00    +0.000 A 
ATOM      3  C   UNL     1      45.565   5.449  12.541  0.00  0.00    +0.000 A 
ATOM      4  C   UNL     1      45.509   4.099  12.171  0.00  0.00    +0.000 A 
ATOM      5  C   UNL     1      46.182   3.155  12.955  0.00  0.00    +0.000 A 
ATOM      6  C   UNL     1      46.890   3.561  14.087  0.00  0.00    +0.000 A 
ENDROOT
BRANCH   1   9
ATOM      7  O   UNL     1      46.683   3.646  17.106  0.00  0.00    +0.000 OA
ATOM      8  C   UNL     1      47.443   4.582  16.873  0.00  0.00    +0.000 C 
ATOM      9  N   UNL     1      47.566   5.226  15.663  0.00  0.00    +0.000 N 
ATOM     10  H   UNL     1      48.323   5.894  15.562  0.00  0.00    +0.000 HD
BRANCH   8  11
ATOM     11  C   UNL     1      48.310   5.094  17.943  0.00  0.00    +0.000 A 
ATOM     12  C   UNL     1      47.851   6.113  18.765  0.00  0.00    +0.000 A 
ATOM     13  S   UNL     1      48.967   6.575  19.965  0.00  0.00    +0.000 S 
ATOM     14  C   UNL     1      50.086   5.399  19.454  0.00  0.00    +0.000 A 
ATOM     15  N   UNL     1      51.269   5.234  20.102  0.00  0.00    +0.000 NA
ATOM     16  C   UNL     1      51.999   4.273  19.643  0.00  0.00    +0.000 A 
ATOM     17  N   UNL     1      51.666   3.474  18.580  0.00  0.00    +0.000 N 
ATOM     18  C   UNL     1      50.518   3.661  17.846  0.00  0.00    +0.000 A 
ATOM     19  O   UNL     1      50.320   3.025  16.814  0.00  0.00    +0.000 OA
ATOM     20  C   UNL     1      49.630   4.687  18.358  0.00  0.00    +0.000 A 
ATOM     21  H   UNL     1      52.299   2.766  18.243  0.00  0.00    +0.000 HD
ENDBRANCH   8  11
ENDBRANCH   1   9
BRANCH   4  22
ATOM     22  C   UNL     1      44.694   3.641  10.983  0.00  0.00    +0.000 C 
BRANCH  22  23
ATOM     23  N   UNL     1      45.383   2.613  10.218  0.00  0.00    +0.000 NA
ATOM     24  H   UNL     1      45.466   1.754  10.769  0.00  0.00    +0.000 HD
BRANCH  23  25
ATOM     25  C   UNL     1      44.770   2.275   8.928  0.00  0.00    +0.000 C 
ATOM     26  C   UNL     1      45.605   1.298   8.082  0.00  0.00    +0.000 C 
ATOM     27  C   UNL     1      46.949   1.915   7.689  0.00  0.00    +0.000 C 
ATOM     28  C   UNL     1      46.754   3.267   7.002  0.00  0.00    +0.000 C 
ATOM     29  N   UNL     1      45.940   4.183   7.801  0.00  0.00    +0.000 NA
ATOM     30  C   UNL     1      44.626   3.594   8.125  0.00  0.00    +0.000 C 
ATOM     31  H   UNL     1      45.794   5.050   7.285  0.00  0.00    +0.000 HD
ENDBRANCH  23  25
ENDBRANCH  22  23
ENDBRANCH   4  22
TORSDOF 5
ENDMDL
MODEL 3
REMARK VINA RESULT:    -7.108      1.742      2.722
REMARK INTER + INTRA:         -10.147
REMARK INTER:                  -9.327
REMARK INTRA:                  -0.820
REMARK UNBOUND:                -0.961
REMARK  Name = 
REMARK  5 active torsions:
REMARK  status: ('A' for Active; 'I' for Inactive)
REMARK    1  A    between atoms: C_2  and  C_18
REMARK    2  A    between atoms: N_3  and  C_4
REMARK    3  A    between atoms: C_7  and  C_8
REMARK    4  A    between atoms: C_8  and  N_9
REMARK    5  A    between atoms: N_9  and  C_10
REMARK                            x       y       z     vdW  Elec       q    Type
REMARK                         _______ _______ _______ _____ _____    ______ ____
ROOT
ATOM      1  C   UNL     1      46.738   5.016  14.345  0.00  0.00    +0.000 A 
ATOM      2  C   UNL     1      46.118   5.915  13.485  0.00  0.00    +0.000 A 
ATOM      3  C   UNL     1      45.458   5.453  12.352  0.00  0.00    +0.000 A 
ATOM      4  C   UNL     1      45.433   4.087  12.040  0.00  0.00    +0.000 A 
ATOM      5  C   UNL     1      46.088   3.188  12.889  0.00  0.00    +0.000 A 
ATOM      6  C   UNL     1      46.748   3.653  14.028  0.00  0.00    +0.000 A 
ENDROOT
BRANCH   1   9
ATOM      7  O   UNL     1      49.289   6.400  14.806  0.00  0.00    +0.000 OA
ATOM      8  C   UNL     1      48.532   6.067  15.713  0.00  0.00    +0.000 C 
ATOM      9  N   UNL     1      47.343   5.394  15.553  0.00  0.00    +0.000 N 
ATOM     10  H   UNL     1      46.746   5.296  16.368  0.00  0.00    +0.000 HD
BRANCH   8  11
ATOM     11  C   UNL     1      48.883   6.391  17.103  0.00  0.00    +0.000 A 
ATOM     12  C   UNL     1      49.256   7.688  17.429  0.00  0.00    +0.000 A 
ATOM     13  S   UNL     1      49.609   7.899  19.081  0.00  0.00    +0.000 S 
ATOM     14  C   UNL     1      49.231   6.276  19.426  0.00  0.00    +0.000 A 
ATOM     15  N   UNL     1      49.290   5.802  20.699  0.00  0.00    +0.000 NA
ATOM     16  C   UNL     1      48.928   4.569  20.825  0.00  0.00    +0.000 A 
ATOM     17  N   UNL     1      48.534   3.757  19.792  0.00  0.00    +0.000 N 
ATOM     18  C   UNL     1      48.540   4.173  18.482  0.00  0.00    +0.000 A 
ATOM     19  O   UNL     1      48.322   3.381  17.569  0.00  0.00    +0.000 OA
ATOM     20  C   UNL     1      48.877   5.570  18.289  0.00  0.00    +0.000 A 
ATOM     21  H   UNL     1      48.303   2.789  19.951  0.00  0.00    +0.000 HD
ENDBRANCH   8  11
ENDBRANCH   1   9
BRANCH   4  22
ATOM     22  C   UNL     1      44.670   3.567  10.844  0.00  0.00    +0.000 C 
BRANCH  22  23
ATOM     23  N   UNL     1      45.435   2.577  10.101  0.00  0.00    +0.000 NA
ATOM     24  H   UNL     1      45.560   1.729  10.662  0.00  0.00    +0.000 HD
BRANCH  23  25
ATOM     25  C   UNL     1      44.870   2.192   8.803  0.00  0.00    +0.000 C 
ATOM     26  C   UNL     1      45.775   1.252   7.987  0.00  0.00    +0.000 C 
ATOM     27  C   UNL     1      47.092   1.935   7.616  0.00  0.00    +0.000 C 
ATOM     28  C   UNL     1      46.840   3.267   6.908  0.00  0.00    +0.000 C 
ATOM     29  N   UNL     1      45.961   4.147   7.678  0.00  0.00    +0.000 NA
ATOM     30  C   UNL     1      44.674   3.493   7.981  0.00  0.00    +0.000 C 
ATOM     31  H   UNL     1      45.781   4.999   7.148  0.00  0.00    +0.000 HD
ENDBRANCH  23  25
ENDBRANCH  22  23
ENDBRANCH   4  22
TORSDOF 5
ENDMDL
MODEL 4
REMARK VINA RESULT:    -7.034      1.405      2.170
REMARK INTER + INTRA:         -10.050
REMARK INTER:                  -9.156
REMARK INTRA:                  -0.894
REMARK UNBOUND:                -0.961
REMARK  Name = 
REMARK  5 active torsions:
REMARK  status: ('A' for Active; 'I' for Inactive)
REMARK    1  A    between atoms: C_2  and  C_18
REMARK    2  A    between atoms: N_3  and  C_4
REMARK    3  A    between atoms: C_7  and  C_8
REMARK    4  A    between atoms: C_8  and  N_9
REMARK    5  A    between atoms: N_9  and  C_10
REMARK                            x       y       z     vdW  Elec       q    Type
REMARK                         _______ _______ _______ _____ _____    ______ ____
ROOT
ATOM      1  C   UNL     1      46.264   5.217  13.326  0.00  0.00    +0.000 A 
ATOM      2  C   UNL     1      45.831   3.958  12.925  0.00  0.00    +0.000 A 
ATOM      3  C   UNL     1      45.274   3.783  11.663  0.00  0.00    +0.000 A 
ATOM      4  C   UNL     1      45.110   4.867  10.791  0.00  0.00    +0.000 A 
ATOM      5  C   UNL     1      45.516   6.139  11.211  0.00  0.00    +0.000 A 
ATOM      6  C   UNL     1      46.077   6.314  12.477  0.00  0.00    +0.000 A 
ENDROOT
BRANCH   1   9
ATOM      7  O   UNL     1      48.955   6.287  13.821  0.00  0.00    +0.000 OA
ATOM      8  C   UNL     1      48.176   5.988  14.721  0.00  0.00    +0.000 C 
ATOM      9  N   UNL     1      46.919   5.458  14.543  0.00  0.00    +0.000 N 
ATOM     10  H   UNL     1      46.323   5.379  15.361  0.00  0.00    +0.000 HD
BRANCH   8  11
ATOM     11  C   UNL     1      48.574   6.193  16.120  0.00  0.00    +0.000 A 
ATOM     12  C   UNL     1      49.035   7.438  16.524  0.00  0.00    +0.000 A 
ATOM     13  S   UNL     1      49.434   7.513  18.178  0.00  0.00    +0.000 S 
ATOM     14  C   UNL     1      48.961   5.897  18.421  0.00  0.00    +0.000 A 
ATOM     15  N   UNL     1      49.015   5.333  19.657  0.00  0.00    +0.000 NA
ATOM     16  C   UNL     1      48.579   4.119  19.709  0.00  0.00    +0.000 A 
ATOM     17  N   UNL     1      48.113   3.406  18.633  0.00  0.00    +0.000 N 
ATOM     18  C   UNL     1      48.119   3.910  17.354  0.00  0.00    +0.000 A 
ATOM     19  O   UNL     1      47.833   3.198  16.395  0.00  0.00    +0.000 OA
ATOM     20  C   UNL     1      48.540   5.294  17.248  0.00  0.00    +0.000 A 
ATOM     21  H   UNL     1      47.824   2.445  18.732  0.00  0.00    +0.000 HD
ENDBRANCH   8  11
ENDBRANCH   1   9
BRANCH   4  22
ATOM     22  C   UNL     1      44.561   4.679   9.395  0.00  0.00    +0.000 C 
BRANCH  22  23
ATOM     23  N   UNL     1      45.618   4.440   8.425  0.00  0.00    +0.000 NA
ATOM     24  H   UNL     1      46.447   4.056   8.888  0.00  0.00    +0.000 HD
BRANCH  23  25
ATOM     25  C   UNL     1      45.259   3.555   7.312  0.00  0.00    +0.000 C 
ATOM     26  C   UNL     1      44.987   2.101   7.739  0.00  0.00    +0.000 C 
ATOM     27  C   UNL     1      46.241   1.451   8.324  0.00  0.00    +0.000 C 
ATOM     28  C   UNL     1      47.422   1.567   7.358  0.00  0.00    +0.000 C 
ATOM     29  N   UNL     1      47.661   2.948   6.938  0.00  0.00    +0.000 NA
ATOM     30  C   UNL     1      46.457   3.542   6.327  0.00  0.00    +0.000 C 
ATOM     31  H   UNL     1      48.421   2.971   6.259  0.00  0.00    +0.000 HD
ENDBRANCH  23  25
ENDBRANCH  22  23
ENDBRANCH   4  22
TORSDOF 5
ENDMDL
MODEL 5
REMARK VINA RESULT:    -6.837      3.288      9.385
REMARK INTER + INTRA:          -9.796
REMARK INTER:                  -8.962
REMARK INTRA:                  -0.834
REMARK UNBOUND:                -0.961
REMARK  Name = 
REMARK  5 active torsions:
REMARK  status: ('A' for Active; 'I' for Inactive)
REMARK    1  A    between atoms: C_2  and  C_18
REMARK    2  A    between atoms: N_3  and  C_4
REMARK    3  A    between atoms: C_7  and  C_8
REMARK    4  A    between atoms: C_8  and  N_9
REMARK    5  A    between atoms: N_9  and  C_10
REMARK                            x       y       z     vdW  Elec       q    Type
REMARK                         _______ _______ _______ _____ _____    ______ ____
ROOT
ATOM      1  C   UNL     1      48.111   5.109  16.130  0.00  0.00    +0.000 A 
ATOM      2  C   UNL     1      48.269   3.862  16.723  0.00  0.00    +0.000 A 
ATOM      3  C   UNL     1      49.129   3.710  17.804  0.00  0.00    +0.000 A 
ATOM      4  C   UNL     1      49.872   4.793  18.293  0.00  0.00    +0.000 A 
ATOM      5  C   UNL     1      49.736   6.040  17.672  0.00  0.00    +0.000 A 
ATOM      6  C   UNL     1      48.870   6.193  16.588  0.00  0.00    +0.000 A 
ENDROOT
BRANCH   1   9
ATOM      7  O   UNL     1      48.593   6.091  13.403  0.00  0.00    +0.000 OA
ATOM      8  C   UNL     1      47.478   5.799  13.824  0.00  0.00    +0.000 C 
ATOM      9  N   UNL     1      47.195   5.363  15.098  0.00  0.00    +0.000 N 
ATOM     10  H   UNL     1      46.255   5.028  15.281  0.00  0.00    +0.000 HD
BRANCH   8  11
ATOM     11  C   UNL     1      46.316   5.911  12.931  0.00  0.00    +0.000 A 
ATOM     12  C   UNL     1      45.915   7.163  12.486  0.00  0.00    +0.000 A 
ATOM     13  S   UNL     1      44.569   7.115  11.444  0.00  0.00    +0.000 S 
ATOM     14  C   UNL     1      44.503   5.416  11.517  0.00  0.00    +0.000 A 
ATOM     15  N   UNL     1      43.579   4.722  10.801  0.00  0.00    +0.000 NA
ATOM     16  C   UNL     1      43.675   3.439  10.908  0.00  0.00    +0.000 A 
ATOM     17  N   UNL     1      44.597   2.784  11.683  0.00  0.00    +0.000 N 
ATOM     18  C   UNL     1      45.494   3.448  12.485  0.00  0.00    +0.000 A 
ATOM     19  O   UNL     1      46.207   2.835  13.276  0.00  0.00    +0.000 OA
ATOM     20  C   UNL     1      45.472   4.892  12.355  0.00  0.00    +0.000 A 
ATOM     21  H   UNL     1      44.593   1.778  11.757  0.00  0.00    +0.000 HD
ENDBRANCH   8  11
ENDBRANCH   1   9
BRANCH   4  22
ATOM     22  C   UNL     1      50.765   4.653  19.505  0.00  0.00    +0.000 C 
BRANCH  22  23
ATOM     23  N   UNL     1      51.812   3.665  19.294  0.00  0.00    +0.000 NA
ATOM     24  H   UNL     1      51.568   3.048  18.514  0.00  0.00    +0.000 HD
BRANCH  23  25
ATOM     25  C   UNL     1      53.150   4.213  19.047  0.00  0.00    +0.000 C 
ATOM     26  C   UNL     1      53.809   3.684  17.760  0.00  0.00    +0.000 C 
ATOM     27  C   UNL     1      54.048   2.176  17.840  0.00  0.00    +0.000 C 
ATOM     28  C   UNL     1      54.840   1.811  19.097  0.00  0.00    +0.000 C 
ATOM     29  N   UNL     1      54.221   2.336  20.315  0.00  0.00    +0.000 NA
ATOM     30  C   UNL     1      54.046   3.799  20.243  0.00  0.00    +0.000 C 
ATOM     31  H   UNL     1      54.806   2.113  21.119  0.00  0.00    +0.000 HD
ENDBRANCH  23  25
ENDBRANCH  22  23
ENDBRANCH   4  22
TORSDOF 5
ENDMDL
MODEL 6
REMARK VINA RESULT:    -6.738      3.085      9.664
REMARK INTER + INTRA:          -9.668
REMARK INTER:                  -8.660
REMARK INTRA:                  -1.008
REMARK UNBOUND:                -0.961
REMARK  Name = 
REMARK  5 active torsions:
REMARK  status: ('A' for Active; 'I' for Inactive)
REMARK    1  A    between atoms: C_2  and  C_18
REMARK    2  A    between atoms: N_3  and  C_4
REMARK    3  A    between atoms: C_7  and  C_8
REMARK    4  A    between atoms: C_8  and  N_9
REMARK    5  A    between atoms: N_9  and  C_10
REMARK                            x       y       z     vdW  Elec       q    Type
REMARK                         _______ _______ _______ _____ _____    ______ ____
ROOT
ATOM      1  C   UNL     1      48.148   5.103  16.028  0.00  0.00    +0.000 A 
ATOM      2  C   UNL     1      48.244   3.884  16.689  0.00  0.00    +0.000 A 
ATOM      3  C   UNL     1      49.131   3.736  17.749  0.00  0.00    +0.000 A 
ATOM      4  C   UNL     1      49.961   4.793  18.147  0.00  0.00    +0.000 A 
ATOM      5  C   UNL     1      49.886   6.008  17.456  0.00  0.00    +0.000 A 
ATOM      6  C   UNL     1      48.993   6.157  16.395  0.00  0.00    +0.000 A 
ENDROOT
BRANCH   1   9
ATOM      7  O   UNL     1      48.580   6.102  13.299  0.00  0.00    +0.000 OA
ATOM      8  C   UNL     1      47.473   5.804  13.736  0.00  0.00    +0.000 C 
ATOM      9  N   UNL     1      47.213   5.360  15.012  0.00  0.00    +0.000 N 
ATOM     10  H   UNL     1      46.278   5.020  15.210  0.00  0.00    +0.000 HD
BRANCH   8  11
ATOM     11  C   UNL     1      46.295   5.916  12.864  0.00  0.00    +0.000 A 
ATOM     12  C   UNL     1      45.907   7.164  12.398  0.00  0.00    +0.000 A 
ATOM     13  S   UNL     1      44.540   7.117  11.384  0.00  0.00    +0.000 S 
ATOM     14  C   UNL     1      44.447   5.421  11.498  0.00  0.00    +0.000 A 
ATOM     15  N   UNL     1      43.496   4.728  10.816  0.00  0.00    +0.000 NA
ATOM     16  C   UNL     1      43.572   3.446  10.950  0.00  0.00    +0.000 A 
ATOM     17  N   UNL     1      44.498   2.792  11.723  0.00  0.00    +0.000 N 
ATOM     18  C   UNL     1      45.422   3.458  12.492  0.00  0.00    +0.000 A 
ATOM     19  O   UNL     1      46.139   2.851  13.282  0.00  0.00    +0.000 OA
ATOM     20  C   UNL     1      45.423   4.899  12.329  0.00  0.00    +0.000 A 
ATOM     21  H   UNL     1      44.478   1.789  11.819  0.00  0.00    +0.000 HD
ENDBRANCH   8  11
ENDBRANCH   1   9
BRANCH   4  22
ATOM     22  C   UNL     1      50.887   4.662  19.335  0.00  0.00    +0.000 C 
BRANCH  22  23
ATOM     23  N   UNL     1      50.780   5.802  20.233  0.00  0.00    +0.000 NA
ATOM     24  H   UNL     1      50.289   6.574  19.772  0.00  0.00    +0.000 HD
BRANCH  23  25
ATOM     25  C   UNL     1      50.115   5.531  21.512  0.00  0.00    +0.000 C 
ATOM     26  C   UNL     1      48.683   4.988  21.364  0.00  0.00    +0.000 C 
ATOM     27  C   UNL     1      47.767   6.014  20.694  0.00  0.00    +0.000 C 
ATOM     28  C   UNL     1      47.813   7.354  21.430  0.00  0.00    +0.000 C 
ATOM     29  N   UNL     1      49.178   7.854  21.588  0.00  0.00    +0.000 NA
ATOM     30  C   UNL     1      50.034   6.874  22.284  0.00  0.00    +0.000 C 
ATOM     31  H   UNL     1      49.165   8.720  22.125  0.00  0.00    +0.000 HD
ENDBRANCH  23  25
ENDBRANCH  22  23
ENDBRANCH   4  22
TORSDOF 5
ENDMDL
MODEL 7
REMARK VINA RESULT:    -6.738      3.386      8.842
REMARK INTER + INTRA:          -9.667
REMARK INTER:                  -8.672
REMARK INTRA:                  -0.996
REMARK UNBOUND:                -0.961
REMARK  Name = 
REMARK  5 active torsions:
REMARK  status: ('A' for Active; 'I' for Inactive)
REMARK    1  A    between atoms: C_2  and  C_18
REMARK    2  A    between atoms: N_3  and  C_4
REMARK    3  A    between atoms: C_7  and  C_8
REMARK    4  A    between atoms: C_8  and  N_9
REMARK    5  A    between atoms: N_9  and  C_10
REMARK                            x       y       z     vdW  Elec       q    Type
REMARK                         _______ _______ _______ _____ _____    ______ ____
ROOT
ATOM      1  C   UNL     1      47.350   4.659  16.185  0.00  0.00    +0.000 A 
ATOM      2  C   UNL     1      47.354   3.688  17.180  0.00  0.00    +0.000 A 
ATOM      3  C   UNL     1      48.151   3.851  18.307  0.00  0.00    +0.000 A 
ATOM      4  C   UNL     1      48.983   4.970  18.447  0.00  0.00    +0.000 A 
ATOM      5  C   UNL     1      49.002   5.928  17.427  0.00  0.00    +0.000 A 
ATOM      6  C   UNL     1      48.200   5.766  16.297  0.00  0.00    +0.000 A 
ENDROOT
BRANCH   1   9
ATOM      7  O   UNL     1      47.750   3.326  13.597  0.00  0.00    +0.000 OA
ATOM      8  C   UNL     1      46.732   3.949  13.881  0.00  0.00    +0.000 C 
ATOM      9  N   UNL     1      46.507   4.614  15.064  0.00  0.00    +0.000 N 
ATOM     10  H   UNL     1      45.575   4.978  15.228  0.00  0.00    +0.000 HD
BRANCH   8  11
ATOM     11  C   UNL     1      45.634   4.023  12.907  0.00  0.00    +0.000 A 
ATOM     12  C   UNL     1      45.074   2.850  12.419  0.00  0.00    +0.000 A 
ATOM     13  S   UNL     1      43.801   3.110  11.318  0.00  0.00    +0.000 S 
ATOM     14  C   UNL     1      43.926   4.799  11.489  0.00  0.00    +0.000 A 
ATOM     15  N   UNL     1      43.076   5.631  10.829  0.00  0.00    +0.000 NA
ATOM     16  C   UNL     1      43.249   6.883  11.089  0.00  0.00    +0.000 A 
ATOM     17  N   UNL     1      44.208   7.385  11.932  0.00  0.00    +0.000 N 
ATOM     18  C   UNL     1      45.137   6.586  12.552  0.00  0.00    +0.000 A 
ATOM     19  O   UNL     1      46.070   7.077  13.183  0.00  0.00    +0.000 OA
ATOM     20  C   UNL     1      44.950   5.162  12.346  0.00  0.00    +0.000 A 
ATOM     21  H   UNL     1      44.317   8.379  12.061  0.00  0.00    +0.000 HD
ENDBRANCH   8  11
ENDBRANCH   1   9
BRANCH   4  22
ATOM     22  C   UNL     1      49.808   5.186  19.695  0.00  0.00    +0.000 C 
BRANCH  22  23
ATOM     23  N   UNL     1      50.934   4.267  19.765  0.00  0.00    +0.000 NA
ATOM     24  H   UNL     1      50.618   3.305  19.614  0.00  0.00    +0.000 HD
BRANCH  23  25
ATOM     25  C   UNL     1      52.029   4.545  18.830  0.00  0.00    +0.000 C 
ATOM     26  C   UNL     1      51.859   3.871  17.457  0.00  0.00    +0.000 C 
ATOM     27  C   UNL     1      51.874   2.347  17.583  0.00  0.00    +0.000 C 
ATOM     28  C   UNL     1      53.126   1.868  18.320  0.00  0.00    +0.000 C 
ATOM     29  N   UNL     1      53.294   2.529  19.614  0.00  0.00    +0.000 NA
ATOM     30  C   UNL     1      53.332   3.997  19.469  0.00  0.00    +0.000 C 
ATOM     31  H   UNL     1      54.163   2.218  20.046  0.00  0.00    +0.000 HD
ENDBRANCH  23  25
ENDBRANCH  22  23
ENDBRANCH   4  22
TORSDOF 5
ENDMDL
MODEL 8
REMARK VINA RESULT:    -6.403      2.714      3.775
REMARK INTER + INTRA:          -9.236
REMARK INTER:                  -8.201
REMARK INTRA:                  -1.034
REMARK UNBOUND:                -0.961
REMARK  Name = 
REMARK  5 active torsions:
REMARK  status: ('A' for Active; 'I' for Inactive)
REMARK    1  A    between atoms: C_2  and  C_18
REMARK    2  A    between atoms: N_3  and  C_4
REMARK    3  A    between atoms: C_7  and  C_8
REMARK    4  A    between atoms: C_8  and  N_9
REMARK    5  A    between atoms: N_9  and  C_10
REMARK                            x       y       z     vdW  Elec       q    Type
REMARK                         _______ _______ _______ _____ _____    ______ ____
ROOT
ATOM      1  C   UNL     1      47.857   6.300  13.519  0.00  0.00    +0.000 A 
ATOM      2  C   UNL     1      47.332   5.220  14.220  0.00  0.00    +0.000 A 
ATOM      3  C   UNL     1      46.269   4.497  13.691  0.00  0.00    +0.000 A 
ATOM      4  C   UNL     1      45.690   4.858  12.467  0.00  0.00    +0.000 A 
ATOM      5  C   UNL     1      46.199   5.966  11.780  0.00  0.00    +0.000 A 
ATOM      6  C   UNL     1      47.268   6.690  12.310  0.00  0.00    +0.000 A 
ENDROOT
BRANCH   1   9
ATOM      7  O   UNL     1      48.012   8.843  14.982  0.00  0.00    +0.000 OA
ATOM      8  C   UNL     1      49.002   8.199  14.649  0.00  0.00    +0.000 C 
ATOM      9  N   UNL     1      48.985   7.020  13.940  0.00  0.00    +0.000 N 
ATOM     10  H   UNL     1      49.861   6.518  13.843  0.00  0.00    +0.000 HD
BRANCH   8  11
ATOM     11  C   UNL     1      50.339   8.688  15.013  0.00  0.00    +0.000 A 
ATOM     12  C   UNL     1      50.738   9.954  14.606  0.00  0.00    +0.000 A 
ATOM     13  S   UNL     1      52.303  10.375  15.128  0.00  0.00    +0.000 S 
ATOM     14  C   UNL     1      52.484   8.898  15.953  0.00  0.00    +0.000 A 
ATOM     15  N   UNL     1      53.613   8.630  16.663  0.00  0.00    +0.000 NA
ATOM     16  C   UNL     1      53.597   7.497  17.282  0.00  0.00    +0.000 A 
ATOM     17  N   UNL     1      52.564   6.595  17.240  0.00  0.00    +0.000 N 
ATOM     18  C   UNL     1      51.443   6.790  16.469  0.00  0.00    +0.000 A 
ATOM     19  O   UNL     1      50.606   5.901  16.339  0.00  0.00    +0.000 OA
ATOM     20  C   UNL     1      51.380   8.077  15.803  0.00  0.00    +0.000 A 
ATOM     21  H   UNL     1      52.631   5.707  17.713  0.00  0.00    +0.000 HD
ENDBRANCH   8  11
ENDBRANCH   1   9
BRANCH   4  22
ATOM     22  C   UNL     1      44.574   4.044  11.854  0.00  0.00    +0.000 C 
BRANCH  22  23
ATOM     23  N   UNL     1      45.080   3.037  10.935  0.00  0.00    +0.000 NA
ATOM     24  H   UNL     1      45.175   2.135  11.412  0.00  0.00    +0.000 HD
BRANCH  23  25
ATOM     25  C   UNL     1      44.278   2.834   9.723  0.00  0.00    +0.000 C 
ATOM     26  C   UNL     1      44.796   1.703   8.818  0.00  0.00    +0.000 C 
ATOM     27  C   UNL     1      46.191   2.022   8.276  0.00  0.00    +0.000 C 
ATOM     28  C   UNL     1      46.212   3.385   7.581  0.00  0.00    +0.000 C 
ATOM     29  N   UNL     1      45.696   4.452   8.439  0.00  0.00    +0.000 NA
ATOM     30  C   UNL     1      44.330   4.153   8.909  0.00  0.00    +0.000 C 
ATOM     31  H   UNL     1      45.682   5.329   7.920  0.00  0.00    +0.000 HD
ENDBRANCH  23  25
ENDBRANCH  22  23
ENDBRANCH   4  22
TORSDOF 5
ENDMDL
MODEL 9
REMARK VINA RESULT:    -6.366      2.236      3.547
REMARK INTER + INTRA:          -9.187
REMARK INTER:                  -8.167
REMARK INTRA:                  -1.020
REMARK UNBOUND:                -0.961
REMARK  Name = 
REMARK  5 active torsions:
REMARK  status: ('A' for Active; 'I' for Inactive)
REMARK    1  A    between atoms: C_2  and  C_18
REMARK    2  A    between atoms: N_3  and  C_4
REMARK    3  A    between atoms: C_7  and  C_8
REMARK    4  A    between atoms: C_8  and  N_9
REMARK    5  A    between atoms: N_9  and  C_10
REMARK                            x       y       z     vdW  Elec       q    Type
REMARK                         _______ _______ _______ _____ _____    ______ ____
ROOT
ATOM      1  C   UNL     1      48.021   6.353  14.767  0.00  0.00    +0.000 A 
ATOM      2  C   UNL     1      48.289   7.335  13.822  0.00  0.00    +0.000 A 
ATOM      3  C   UNL     1      47.664   7.296  12.581  0.00  0.00    +0.000 A 
ATOM      4  C   UNL     1      46.782   6.258  12.250  0.00  0.00    +0.000 A 
ATOM      5  C   UNL     1      46.540   5.252  13.193  0.00  0.00    +0.000 A 
ATOM      6  C   UNL     1      47.166   5.293  14.439  0.00  0.00    +0.000 A 
ENDROOT
BRANCH   1   9
ATOM      7  O   UNL     1      50.816   6.458  15.667  0.00  0.00    +0.000 OA
ATOM      8  C   UNL     1      49.862   6.450  16.439  0.00  0.00    +0.000 C 
ATOM      9  N   UNL     1      48.539   6.373  16.071  0.00  0.00    +0.000 N 
ATOM     10  H   UNL     1      47.841   6.509  16.796  0.00  0.00    +0.000 HD
BRANCH   8  11
ATOM     11  C   UNL     1      50.103   6.525  17.887  0.00  0.00    +0.000 A 
ATOM     12  C   UNL     1      50.850   7.576  18.402  0.00  0.00    +0.000 A 
ATOM     13  S   UNL     1      51.017   7.526  20.095  0.00  0.00    +0.000 S 
ATOM     14  C   UNL     1      50.060   6.123  20.204  0.00  0.00    +0.000 A 
ATOM     15  N   UNL     1      49.771   5.567  21.411  0.00  0.00    +0.000 NA
ATOM     16  C   UNL     1      48.994   4.538  21.352  0.00  0.00    +0.000 A 
ATOM     17  N   UNL     1      48.494   3.998  20.194  0.00  0.00    +0.000 N 
ATOM     18  C   UNL     1      48.828   4.479  18.950  0.00  0.00    +0.000 A 
ATOM     19  O   UNL     1      48.482   3.886  17.932  0.00  0.00    +0.000 OA
ATOM     20  C   UNL     1      49.648   5.675  18.961  0.00  0.00    +0.000 A 
ATOM     21  H   UNL     1      47.925   3.167  20.212  0.00  0.00    +0.000 HD
ENDBRANCH   8  11
ENDBRANCH   1   9
BRANCH   4  22
ATOM     22  C   UNL     1      46.051   6.237  10.927  0.00  0.00    +0.000 C 
BRANCH  22  23
ATOM     23  N   UNL     1      45.752   4.880  10.496  0.00  0.00    +0.000 NA
ATOM     24  H   UNL     1      45.878   4.223  11.272  0.00  0.00    +0.000 HD
BRANCH  23  25
ATOM     25  C   UNL     1      44.410   4.682   9.938  0.00  0.00    +0.000 C 
ATOM     26  C   UNL     1      43.274   4.982  10.932  0.00  0.00    +0.000 C 
ATOM     27  C   UNL     1      43.312   4.022  12.122  0.00  0.00    +0.000 C 
ATOM     28  C   UNL     1      43.313   2.566  11.655  0.00  0.00    +0.000 C 
ATOM     29  N   UNL     1      44.380   2.292  10.692  0.00  0.00    +0.000 NA
ATOM     30  C   UNL     1      44.297   3.191   9.525  0.00  0.00    +0.000 C 
ATOM     31  H   UNL     1      44.312   1.328  10.371  0.00  0.00    +0.000 HD
ENDBRANCH  23  25
ENDBRANCH  22  23
ENDBRANCH   4  22
TORSDOF 5
ENDMDL
