MODEL 1
REMARK VINA RESULT:    -7.083      0.000      0.000
REMARK INTER + INTRA:          -9.481
REMARK INTER:                  -8.739
REMARK INTRA:                  -0.742
REMARK UNBOUND:                -0.742
REMARK  Name = 
REMARK  4 active torsions:
REMARK  status: ('A' for Active; 'I' for Inactive)
REMARK    1  A    between atoms: C_4  and  O_5
REMARK    2  A    between atoms: O_5  and  C_6
REMARK    3  A    between atoms: C_6  and  C_7
REMARK    4  A    between atoms: C_11  and  C_12
REMARK                            x       y       z     vdW  Elec       q    Type
REMARK                         _______ _______ _______ _____ _____    ______ ____
ROOT
ATOM      1  C   UNL     1      45.091   5.162  12.213  0.00  0.00    +0.000 A 
ATOM      2  C   UNL     1      45.647   4.195  13.068  0.00  0.00    +0.000 A 
ATOM      3  C   UNL     1      46.902   4.361  13.648  0.00  0.00    +0.000 A 
ATOM      4  C   UNL     1      47.651   5.498  13.363  0.00  0.00    +0.000 A 
ATOM      5  C   UNL     1      47.151   6.500  12.516  0.00  0.00    +0.000 A 
ATOM      6  C   UNL     1      45.853   6.322  11.990  0.00  0.00    +0.000 A 
ENDROOT
BRANCH   5   7
ATOM      7  C   UNL     1      47.973   7.659  12.124  0.00  0.00    +0.000 A 
ATOM      8  C   UNL     1      49.321   7.535  11.758  0.00  0.00    +0.000 A 
ATOM      9  C   UNL     1      50.081   8.663  11.454  0.00  0.00    +0.000 A 
ATOM     10  C   UNL     1      49.470   9.903  11.509  0.00  0.00    +0.000 A 
ATOM     11  N   UNL     1      48.177  10.082  11.843  0.00  0.00    +0.000 NA
ATOM     12  C   UNL     1      47.469   8.964  12.145  0.00  0.00    +0.000 A 
ENDBRANCH   5   7
BRANCH   1  13
ATOM     13  C   UNL     1      43.774   4.904  11.487  0.00  0.00    +0.000 C 
ATOM     14  C   UNL     1      42.454   5.300  12.148  0.00  0.00    +0.000 C 
ATOM     15  C   UNL     1      42.998   6.120  11.027  0.00  0.00    +0.000 C 
BRANCH  13  16
ATOM     16  O   UNL     1      43.618   3.651  10.770  0.00  0.00    +0.000 OA
BRANCH  16  20
ATOM     17  C   UNL     1      46.261   2.923   7.714  0.00  0.00    +0.000 A 
ATOM     18  C   UNL     1      45.767   1.862   8.473  0.00  0.00    +0.000 A 
ATOM     19  C   UNL     1      44.852   2.121   9.485  0.00  0.00    +0.000 A 
ATOM     20  C   UNL     1      44.480   3.433   9.713  0.00  0.00    +0.000 A 
ATOM     21  N   UNL     1      44.903   4.476   8.964  0.00  0.00    +0.000 NA
ATOM     22  C   UNL     1      45.791   4.196   7.987  0.00  0.00    +0.000 A 
ENDBRANCH  16  20
ENDBRANCH  13  16
ENDBRANCH   1  13
TORSDOF 4
ENDMDL
MODEL 2
REMARK VINA RESULT:    -7.024      2.221      3.731
REMARK INTER + INTRA:          -9.408
REMARK INTER:                  -8.928
REMARK INTRA:                  -0.480
REMARK UNBOUND:                -0.742
REMARK  Name = 
REMARK  4 active torsions:
REMARK  status: ('A' for Active; 'I' for Inactive)
REMARK    1  A    between atoms: C_4  and  O_5
REMARK    2  A    between atoms: O_5  and  C_6
REMARK    3  A    between atoms: C_6  and  C_7
REMARK    4  A    between atoms: C_11  and  C_12
REMARK                            x       y       z     vdW  Elec       q    Type
REMARK                         _______ _______ _______ _____ _____    ______ ____
ROOT
ATOM      1  C   UNL     1      45.402   5.315  12.200  0.00  0.00    +0.000 A 
ATOM      2  C   UNL     1      46.169   6.288  11.538  0.00  0.00    +0.000 A 
ATOM      3  C   UNL     1      47.380   6.745  12.052  0.00  0.00    +0.000 A 
ATOM      4  C   UNL     1      47.844   6.253  13.267  0.00  0.00    +0.000 A 
ATOM      5  C   UNL     1      47.124   5.281  13.978  0.00  0.00    +0.000 A 
ATOM      6  C   UNL     1      45.928   4.802  13.399  0.00  0.00    +0.000 A 
ENDROOT
BRANCH   5   7
ATOM      7  C   UNL     1      47.551   4.825  15.313  0.00  0.00    +0.000 A 
ATOM      8  C   UNL     1      47.167   3.585  15.842  0.00  0.00    +0.000 A 
ATOM      9  C   UNL     1      47.540   3.218  17.134  0.00  0.00    +0.000 A 
ATOM     10  C   UNL     1      48.308   4.099  17.872  0.00  0.00    +0.000 A 
ATOM     11  N   UNL     1      48.716   5.298  17.413  0.00  0.00    +0.000 NA
ATOM     12  C   UNL     1      48.324   5.630  16.156  0.00  0.00    +0.000 A 
ENDBRANCH   5   7
BRANCH   1  13
ATOM     13  C   UNL     1      44.018   4.923  11.687  0.00  0.00    +0.000 C 
ATOM     14  C   UNL     1      42.779   5.268  12.513  0.00  0.00    +0.000 C 
ATOM     15  C   UNL     1      43.095   6.053  11.284  0.00  0.00    +0.000 C 
BRANCH  13  16
ATOM     16  O   UNL     1      43.858   3.620  11.066  0.00  0.00    +0.000 OA
BRANCH  16  20
ATOM     17  C   UNL     1      46.037   2.906   7.661  0.00  0.00    +0.000 A 
ATOM     18  C   UNL     1      45.723   1.852   8.518  0.00  0.00    +0.000 A 
ATOM     19  C   UNL     1      44.962   2.104   9.652  0.00  0.00    +0.000 A 
ATOM     20  C   UNL     1      44.559   3.404   9.896  0.00  0.00    +0.000 A 
ATOM     21  N   UNL     1      44.805   4.437   9.059  0.00  0.00    +0.000 NA
ATOM     22  C   UNL     1      45.546   4.164   7.965  0.00  0.00    +0.000 A 
ENDBRANCH  16  20
ENDBRANCH  13  16
ENDBRANCH   1  13
TORSDOF 4
ENDMDL
MODEL 3
REMARK VINA RESULT:    -6.684      2.489      6.361
REMARK INTER + INTRA:          -8.989
REMARK INTER:                  -8.123
REMARK INTRA:                  -0.866
REMARK UNBOUND:                -0.742
REMARK  Name = 
REMARK  4 active torsions:
REMARK  status: ('A' for Active; 'I' for Inactive)
REMARK    1  A    between atoms: C_4  and  O_5
REMARK    2  A    between atoms: O_5  and  C_6
REMARK    3  A    between atoms: C_6  and  C_7
REMARK    4  A    between atoms: C_11  and  C_12
REMARK                            x       y       z     vdW  Elec       q    Type
REMARK                         _______ _______ _______ _____ _____    ______ ____
ROOT
ATOM      1  C   UNL     1      45.090   6.443  11.867  0.00  0.00    +0.000 A 
ATOM      2  C   UNL     1      43.768   6.190  12.272  0.00  0.00    +0.000 A 
ATOM      3  C   UNL     1      43.008   5.171  11.706  0.00  0.00    +0.000 A 
ATOM      4  C   UNL     1      43.548   4.388  10.691  0.00  0.00    +0.000 A 
ATOM      5  C   UNL     1      44.862   4.591  10.241  0.00  0.00    +0.000 A 
ATOM      6  C   UNL     1      45.621   5.598  10.877  0.00  0.00    +0.000 A 
ENDROOT
BRANCH   5   7
ATOM      7  C   UNL     1      45.412   3.838   9.099  0.00  0.00    +0.000 A 
ATOM      8  C   UNL     1      45.462   2.437   9.077  0.00  0.00    +0.000 A 
ATOM      9  C   UNL     1      46.047   1.764   8.006  0.00  0.00    +0.000 A 
ATOM     10  C   UNL     1      46.561   2.511   6.962  0.00  0.00    +0.000 A 
ATOM     11  N   UNL     1      46.532   3.858   6.923  0.00  0.00    +0.000 NA
ATOM     12  C   UNL     1      45.967   4.481   7.988  0.00  0.00    +0.000 A 
ENDBRANCH   5   7
BRANCH   1  13
ATOM     13  C   UNL     1      45.861   7.645  12.407  0.00  0.00    +0.000 C 
ATOM     14  C   UNL     1      47.019   7.426  13.381  0.00  0.00    +0.000 C 
ATOM     15  C   UNL     1      47.301   7.789  11.961  0.00  0.00    +0.000 C 
BRANCH  13  16
ATOM     16  O   UNL     1      45.112   8.832  12.779  0.00  0.00    +0.000 OA
BRANCH  16  20
ATOM     17  C   UNL     1      44.677  11.610   9.789  0.00  0.00    +0.000 A 
ATOM     18  C   UNL     1      43.810  10.519   9.854  0.00  0.00    +0.000 A 
ATOM     19  C   UNL     1      43.952   9.603  10.888  0.00  0.00    +0.000 A 
ATOM     20  C   UNL     1      44.967   9.801  11.806  0.00  0.00    +0.000 A 
ATOM     21  N   UNL     1      45.790  10.874  11.797  0.00  0.00    +0.000 NA
ATOM     22  C   UNL     1      45.630  11.749  10.782  0.00  0.00    +0.000 A 
ENDBRANCH  16  20
ENDBRANCH  13  16
ENDBRANCH   1  13
TORSDOF 4
ENDMDL
MODEL 4
REMARK VINA RESULT:    -6.614      1.599      2.512
REMARK INTER + INTRA:          -8.903
REMARK INTER:                  -9.004
REMARK INTRA:                   0.100
REMARK UNBOUND:                -0.742
REMARK  Name = 
REMARK  4 active torsions:
REMARK  status: ('A' for Active; 'I' for Inactive)
REMARK    1  A    between atoms: C_4  and  O_5
REMARK    2  A    between atoms: O_5  and  C_6
REMARK    3  A    between atoms: C_6  and  C_7
REMARK    4  A    between atoms: C_11  and  C_12
REMARK                            x       y       z     vdW  Elec       q    Type
REMARK                         _______ _______ _______ _____ _____    ______ ____
ROOT
ATOM      1  C   UNL     1      44.668   5.332  11.356  0.00  0.00    +0.000 A 
ATOM      2  C   UNL     1      43.762   6.396  11.209  0.00  0.00    +0.000 A 
ATOM      3  C   UNL     1      44.144   7.720  11.409  0.00  0.00    +0.000 A 
ATOM      4  C   UNL     1      45.449   8.013  11.790  0.00  0.00    +0.000 A 
ATOM      5  C   UNL     1      46.401   6.995  11.954  0.00  0.00    +0.000 A 
ATOM      6  C   UNL     1      45.992   5.669  11.690  0.00  0.00    +0.000 A 
ENDROOT
BRANCH   5   7
ATOM      7  C   UNL     1      47.758   7.280  12.455  0.00  0.00    +0.000 A 
ATOM      8  C   UNL     1      48.716   7.956  11.686  0.00  0.00    +0.000 A 
ATOM      9  C   UNL     1      50.008   8.151  12.173  0.00  0.00    +0.000 A 
ATOM     10  C   UNL     1      50.314   7.676  13.435  0.00  0.00    +0.000 A 
ATOM     11  N   UNL     1      49.432   7.030  14.222  0.00  0.00    +0.000 NA
ATOM     12  C   UNL     1      48.188   6.846  13.713  0.00  0.00    +0.000 A 
ENDBRANCH   5   7
BRANCH   1  13
ATOM     13  C   UNL     1      44.200   3.882  11.260  0.00  0.00    +0.000 C 
ATOM     14  C   UNL     1      44.913   2.801  12.071  0.00  0.00    +0.000 C 
ATOM     15  C   UNL     1      43.570   3.286  12.501  0.00  0.00    +0.000 C 
BRANCH  13  16
ATOM     16  O   UNL     1      43.826   3.365   9.956  0.00  0.00    +0.000 OA
BRANCH  16  20
ATOM     17  C   UNL     1      46.839   2.505   7.303  0.00  0.00    +0.000 A 
ATOM     18  C   UNL     1      46.421   3.825   7.476  0.00  0.00    +0.000 A 
ATOM     19  C   UNL     1      45.420   4.104   8.397  0.00  0.00    +0.000 A 
ATOM     20  C   UNL     1      44.861   3.050   9.097  0.00  0.00    +0.000 A 
ATOM     21  N   UNL     1      45.278   1.769   8.988  0.00  0.00    +0.000 NA
ATOM     22  C   UNL     1      46.252   1.527   8.085  0.00  0.00    +0.000 A 
ENDBRANCH  16  20
ENDBRANCH  13  16
ENDBRANCH   1  13
TORSDOF 4
ENDMDL
MODEL 5
REMARK VINA RESULT:    -6.580      2.438      6.457
REMARK INTER + INTRA:          -8.861
REMARK INTER:                  -8.140
REMARK INTRA:                  -0.721
REMARK UNBOUND:                -0.742
REMARK  Name = 
REMARK  4 active torsions:
REMARK  status: ('A' for Active; 'I' for Inactive)
REMARK    1  A    between atoms: C_4  and  O_5
REMARK    2  A    between atoms: O_5  and  C_6
REMARK    3  A    between atoms: C_6  and  C_7
REMARK    4  A    between atoms: C_11  and  C_12
REMARK                            x       y       z     vdW  Elec       q    Type
REMARK                         _______ _______ _______ _____ _____    ______ ____
ROOT
ATOM      1  C   UNL     1      45.432   6.378  11.727  0.00  0.00    +0.000 A 
ATOM      2  C   UNL     1      44.041   6.528  11.865  0.00  0.00    +0.000 A 
ATOM      3  C   UNL     1      43.142   5.723  11.172  0.00  0.00    +0.000 A 
ATOM      4  C   UNL     1      43.617   4.755  10.292  0.00  0.00    +0.000 A 
ATOM      5  C   UNL     1      44.994   4.557  10.109  0.00  0.00    +0.000 A 
ATOM      6  C   UNL     1      45.876   5.356  10.871  0.00  0.00    +0.000 A 
ENDROOT
BRANCH   5   7
ATOM      7  C   UNL     1      45.511   3.608   9.107  0.00  0.00    +0.000 A 
ATOM      8  C   UNL     1      46.043   4.027   7.879  0.00  0.00    +0.000 A 
ATOM      9  C   UNL     1      46.464   3.095   6.932  0.00  0.00    +0.000 A 
ATOM     10  C   UNL     1      46.357   1.751   7.239  0.00  0.00    +0.000 A 
ATOM     11  N   UNL     1      45.865   1.290   8.406  0.00  0.00    +0.000 NA
ATOM     12  C   UNL     1      45.453   2.224   9.300  0.00  0.00    +0.000 A 
ENDBRANCH   5   7
BRANCH   1  13
ATOM     13  C   UNL     1      46.398   7.354  12.395  0.00  0.00    +0.000 C 
ATOM     14  C   UNL     1      46.486   8.795  11.893  0.00  0.00    +0.000 C 
ATOM     15  C   UNL     1      45.782   8.497  13.175  0.00  0.00    +0.000 C 
BRANCH  13  16
ATOM     16  O   UNL     1      47.716   6.871  12.766  0.00  0.00    +0.000 OA
BRANCH  16  20
ATOM     17  C   UNL     1      48.182   5.089  16.434  0.00  0.00    +0.000 A 
ATOM     18  C   UNL     1      48.778   6.325  16.182  0.00  0.00    +0.000 A 
ATOM     19  C   UNL     1      48.588   6.929  14.946  0.00  0.00    +0.000 A 
ATOM     20  C   UNL     1      47.826   6.265  14.002  0.00  0.00    +0.000 A 
ATOM     21  N   UNL     1      47.197   5.091  14.233  0.00  0.00    +0.000 NA
ATOM     22  C   UNL     1      47.398   4.527  15.443  0.00  0.00    +0.000 A 
ENDBRANCH  16  20
ENDBRANCH  13  16
ENDBRANCH   1  13
TORSDOF 4
ENDMDL
MODEL 6
REMARK VINA RESULT:    -6.417      1.917      2.543
REMARK INTER + INTRA:          -8.660
REMARK INTER:                  -8.052
REMARK INTRA:                  -0.608
REMARK UNBOUND:                -0.742
REMARK  Name = 
REMARK  4 active torsions:
REMARK  status: ('A' for Active; 'I' for Inactive)
REMARK    1  A    between atoms: C_4  and  O_5
REMARK    2  A    between atoms: O_5  and  C_6
REMARK    3  A    between atoms: C_6  and  C_7
REMARK    4  A    between atoms: C_11  and  C_12
REMARK                            x       y       z     vdW  Elec       q    Type
REMARK                         _______ _______ _______ _____ _____    ______ ____
ROOT
ATOM      1  C   UNL     1      45.227   6.125  12.599  0.00  0.00    +0.000 A 
ATOM      2  C   UNL     1      46.430   5.703  13.191  0.00  0.00    +0.000 A 
ATOM      3  C   UNL     1      47.456   6.596  13.488  0.00  0.00    +0.000 A 
ATOM      4  C   UNL     1      47.313   7.943  13.172  0.00  0.00    +0.000 A 
ATOM      5  C   UNL     1      46.137   8.427  12.579  0.00  0.00    +0.000 A 
ATOM      6  C   UNL     1      45.097   7.501  12.343  0.00  0.00    +0.000 A 
ENDROOT
BRANCH   5   7
ATOM      7  C   UNL     1      46.011   9.831  12.147  0.00  0.00    +0.000 A 
ATOM      8  C   UNL     1      47.127  10.648  11.914  0.00  0.00    +0.000 A 
ATOM      9  C   UNL     1      46.965  11.987  11.567  0.00  0.00    +0.000 A 
ATOM     10  C   UNL     1      45.681  12.485  11.443  0.00  0.00    +0.000 A 
ATOM     11  N   UNL     1      44.573  11.745  11.643  0.00  0.00    +0.000 NA
ATOM     12  C   UNL     1      44.766  10.448  11.993  0.00  0.00    +0.000 A 
ENDBRANCH   5   7
BRANCH   1  13
ATOM     13  C   UNL     1      44.169   5.114  12.164  0.00  0.00    +0.000 C 
ATOM     14  C   UNL     1      42.861   5.004  12.946  0.00  0.00    +0.000 C 
ATOM     15  C   UNL     1      42.875   5.676  11.614  0.00  0.00    +0.000 C 
BRANCH  13  16
ATOM     16  O   UNL     1      44.610   3.798  11.737  0.00  0.00    +0.000 OA
BRANCH  16  20
ATOM     17  C   UNL     1      45.307   3.454   7.706  0.00  0.00    +0.000 A 
ATOM     18  C   UNL     1      45.701   4.609   8.383  0.00  0.00    +0.000 A 
ATOM     19  C   UNL     1      45.484   4.699   9.751  0.00  0.00    +0.000 A 
ATOM     20  C   UNL     1      44.863   3.640  10.388  0.00  0.00    +0.000 A 
ATOM     21  N   UNL     1      44.515   2.489   9.769  0.00  0.00    +0.000 NA
ATOM     22  C   UNL     1      44.739   2.428   8.439  0.00  0.00    +0.000 A 
ENDBRANCH  16  20
ENDBRANCH  13  16
ENDBRANCH   1  13
TORSDOF 4
ENDMDL
MODEL 7
REMARK VINA RESULT:    -6.310      2.874      6.769
REMARK INTER + INTRA:          -8.527
REMARK INTER:                  -7.879
REMARK INTRA:                  -0.649
REMARK UNBOUND:                -0.742
REMARK  Name = 
REMARK  4 active torsions:
REMARK  status: ('A' for Active; 'I' for Inactive)
REMARK    1  A    between atoms: C_4  and  O_5
REMARK    2  A    between atoms: O_5  and  C_6
REMARK    3  A    between atoms: C_6  and  C_7
REMARK    4  A    between atoms: C_11  and  C_12
REMARK                            x       y       z     vdW  Elec       q    Type
REMARK                         _______ _______ _______ _____ _____    ______ ____
ROOT
ATOM      1  C   UNL     1      46.930   7.392  12.872  0.00  0.00    +0.000 A 
ATOM      2  C   UNL     1      45.981   8.429  12.886  0.00  0.00    +0.000 A 
ATOM      3  C   UNL     1      44.795   8.350  12.163  0.00  0.00    +0.000 A 
ATOM      4  C   UNL     1      44.537   7.231  11.378  0.00  0.00    +0.000 A 
ATOM      5  C   UNL     1      45.445   6.162  11.320  0.00  0.00    +0.000 A 
ATOM      6  C   UNL     1      46.612   6.254  12.110  0.00  0.00    +0.000 A 
ENDROOT
BRANCH   5   7
ATOM      7  C   UNL     1      45.233   5.018  10.415  0.00  0.00    +0.000 A 
ATOM      8  C   UNL     1      45.704   5.009   9.094  0.00  0.00    +0.000 A 
ATOM      9  C   UNL     1      45.430   3.934   8.250  0.00  0.00    +0.000 A 
ATOM     10  C   UNL     1      44.697   2.874   8.752  0.00  0.00    +0.000 A 
ATOM     11  N   UNL     1      44.230   2.822  10.015  0.00  0.00    +0.000 NA
ATOM     12  C   UNL     1      44.503   3.891  10.805  0.00  0.00    +0.000 A 
ENDBRANCH   5   7
BRANCH   1  13
ATOM     13  C   UNL     1      48.280   7.552  13.566  0.00  0.00    +0.000 C 
ATOM     14  C   UNL     1      49.316   8.520  12.994  0.00  0.00    +0.000 C 
ATOM     15  C   UNL     1      48.555   8.889  14.223  0.00  0.00    +0.000 C 
BRANCH  13  16
ATOM     16  O   UNL     1      48.936   6.362  14.078  0.00  0.00    +0.000 OA
BRANCH  16  20
ATOM     17  C   UNL     1      47.582   4.816  17.631  0.00  0.00    +0.000 A 
ATOM     18  C   UNL     1      48.383   5.959  17.631  0.00  0.00    +0.000 A 
ATOM     19  C   UNL     1      48.809   6.486  16.420  0.00  0.00    +0.000 A 
ATOM     20  C   UNL     1      48.437   5.840  15.255  0.00  0.00    +0.000 A 
ATOM     21  N   UNL     1      47.623   4.761  15.221  0.00  0.00    +0.000 NA
ATOM     22  C   UNL     1      47.222   4.270  16.413  0.00  0.00    +0.000 A 
ENDBRANCH  16  20
ENDBRANCH  13  16
ENDBRANCH   1  13
TORSDOF 4
ENDMDL
MODEL 8
REMARK VINA RESULT:    -5.632      3.818      7.310
REMARK INTER + INTRA:          -7.691
REMARK INTER:                  -7.134
REMARK INTRA:                  -0.558
REMARK UNBOUND:                -0.742
REMARK  Name = 
REMARK  4 active torsions:
REMARK  status: ('A' for Active; 'I' for Inactive)
REMARK    1  A    between atoms: C_4  and  O_5
REMARK    2  A    between atoms: O_5  and  C_6
REMARK    3  A    between atoms: C_6  and  C_7
REMARK    4  A    between atoms: C_11  and  C_12
REMARK                            x       y       z     vdW  Elec       q    Type
REMARK                         _______ _______ _______ _____ _____    ______ ____
ROOT
ATOM      1  C   UNL     1      48.599   7.222  14.088  0.00  0.00    +0.000 A 
ATOM      2  C   UNL     1      49.262   7.785  12.983  0.00  0.00    +0.000 A 
ATOM      3  C   UNL     1      48.771   7.656  11.687  0.00  0.00    +0.000 A 
ATOM      4  C   UNL     1      47.606   6.932  11.458  0.00  0.00    +0.000 A 
ATOM      5  C   UNL     1      46.898   6.345  12.518  0.00  0.00    +0.000 A 
ATOM      6  C   UNL     1      47.397   6.542  13.824  0.00  0.00    +0.000 A 
ENDROOT
BRANCH   5   7
ATOM      7  C   UNL     1      45.721   5.489  12.280  0.00  0.00    +0.000 A 
ATOM      8  C   UNL     1      45.067   5.440  11.041  0.00  0.00    +0.000 A 
ATOM      9  C   UNL     1      43.920   4.666  10.875  0.00  0.00    +0.000 A 
ATOM     10  C   UNL     1      43.454   3.939  11.955  0.00  0.00    +0.000 A 
ATOM     11  N   UNL     1      44.047   3.940  13.165  0.00  0.00    +0.000 NA
ATOM     12  C   UNL     1      45.154   4.714  13.296  0.00  0.00    +0.000 A 
ENDBRANCH   5   7
BRANCH   1  13
ATOM     13  C   UNL     1      49.220   7.263  15.482  0.00  0.00    +0.000 C 
ATOM     14  C   UNL     1      49.822   8.567  16.004  0.00  0.00    +0.000 C 
ATOM     15  C   UNL     1      48.505   8.098  16.523  0.00  0.00    +0.000 C 
BRANCH  13  16
ATOM     16  O   UNL     1      50.026   6.133  15.909  0.00  0.00    +0.000 OA
BRANCH  16  20
ATOM     17  C   UNL     1      48.353   3.411  18.486  0.00  0.00    +0.000 A 
ATOM     18  C   UNL     1      49.332   4.292  18.946  0.00  0.00    +0.000 A 
ATOM     19  C   UNL     1      49.869   5.226  18.070  0.00  0.00    +0.000 A 
ATOM     20  C   UNL     1      49.420   5.231  16.761  0.00  0.00    +0.000 A 
ATOM     21  N   UNL     1      48.438   4.424  16.300  0.00  0.00    +0.000 NA
ATOM     22  C   UNL     1      47.934   3.527  17.173  0.00  0.00    +0.000 A 
ENDBRANCH  16  20
ENDBRANCH  13  16
ENDBRANCH   1  13
TORSDOF 4
ENDMDL
MODEL 9
REMARK VINA RESULT:    -5.503      4.613      8.116
REMARK INTER + INTRA:          -7.532
REMARK INTER:                  -6.899
REMARK INTRA:                  -0.632
REMARK UNBOUND:                -0.742
REMARK  Name = 
REMARK  4 active torsions:
REMARK  status: ('A' for Active; 'I' for Inactive)
REMARK    1  A    between atoms: C_4  and  O_5
REMARK    2  A    between atoms: O_5  and  C_6
REMARK    3  A    between atoms: C_6  and  C_7
REMARK    4  A    between atoms: C_11  and  C_12
REMARK                            x       y       z     vdW  Elec       q    Type
REMARK                         _______ _______ _______ _____ _____    ______ ____
ROOT
ATOM      1  C   UNL     1      47.714   5.057  15.719  0.00  0.00    +0.000 A 
ATOM      2  C   UNL     1      48.551   6.155  15.457  0.00  0.00    +0.000 A 
ATOM      3  C   UNL     1      48.495   6.852  14.254  0.00  0.00    +0.000 A 
ATOM      4  C   UNL     1      47.610   6.446  13.260  0.00  0.00    +0.000 A 
ATOM      5  C   UNL     1      46.749   5.356  13.460  0.00  0.00    +0.000 A 
ATOM      6  C   UNL     1      46.796   4.707  14.714  0.00  0.00    +0.000 A 
ENDROOT
BRANCH   5   7
ATOM      7  C   UNL     1      45.879   4.851  12.381  0.00  0.00    +0.000 A 
ATOM      8  C   UNL     1      45.656   5.571  11.199  0.00  0.00    +0.000 A 
ATOM      9  C   UNL     1      44.778   5.089  10.230  0.00  0.00    +0.000 A 
ATOM     10  C   UNL     1      44.146   3.879  10.457  0.00  0.00    +0.000 A 
ATOM     11  N   UNL     1      44.331   3.140  11.568  0.00  0.00    +0.000 NA
ATOM     12  C   UNL     1      45.182   3.644  12.497  0.00  0.00    +0.000 A 
ENDBRANCH   5   7
BRANCH   1  13
ATOM     13  C   UNL     1      47.880   4.228  16.990  0.00  0.00    +0.000 C 
ATOM     14  C   UNL     1      48.091   2.717  16.887  0.00  0.00    +0.000 C 
ATOM     15  C   UNL     1      49.240   3.606  17.226  0.00  0.00    +0.000 C 
BRANCH  13  16
ATOM     16  O   UNL     1      47.035   4.538  18.129  0.00  0.00    +0.000 OA
BRANCH  16  20
ATOM     17  C   UNL     1      48.657   7.159  20.841  0.00  0.00    +0.000 A 
ATOM     18  C   UNL     1      47.852   7.639  19.808  0.00  0.00    +0.000 A 
ATOM     19  C   UNL     1      47.287   6.737  18.915  0.00  0.00    +0.000 A 
ATOM     20  C   UNL     1      47.565   5.392  19.077  0.00  0.00    +0.000 A 
ATOM     21  N   UNL     1      48.301   4.893  20.095  0.00  0.00    +0.000 NA
ATOM     22  C   UNL     1      48.837   5.792  20.948  0.00  0.00    +0.000 A 
ENDBRANCH  16  20
ENDBRANCH  13  16
ENDBRANCH   1  13
TORSDOF 4
ENDMDL
