MODEL 1
REMARK VINA RESULT:    -8.535      0.000      0.000
REMARK INTER + INTRA:         -13.129
REMARK INTER:                 -12.027
REMARK INTRA:                  -1.101
REMARK UNBOUND:                -1.101
REMARK  Name = 
REMARK  7 active torsions:
REMARK  status: ('A' for Active; 'I' for Inactive)
REMARK    1  A    between atoms: C_2  and  C_20
REMARK    2  A    between atoms: N_3  and  C_4
REMARK    3  A    between atoms: C_4  and  C_5
REMARK    4  A    between atoms: C_8  and  C_9
REMARK    5  A    between atoms: C_9  and  O_10
REMARK    6  A    between atoms: O_10  and  C_11
REMARK    7  A    between atoms: C_11  and  C_12
REMARK                            x       y       z     vdW  Elec       q    Type
REMARK                         _______ _______ _______ _____ _____    ______ ____
ROOT
ATOM      1  C   UNL     1      48.017   6.951  13.479  0.00  0.00    +0.000 C 
ENDROOT
BRANCH   1   2
ATOM      2  C   UNL     1      46.962   6.143  12.774  0.00  0.00    +0.000 A 
ATOM      3  C   UNL     1      46.343   5.061  13.415  0.00  0.00    +0.000 A 
ATOM      4  C   UNL     1      45.317   4.355  12.782  0.00  0.00    +0.000 A 
ATOM      5  C   UNL     1      44.901   4.712  11.492  0.00  0.00    +0.000 A 
ATOM      6  C   UNL     1      45.550   5.764  10.834  0.00  0.00    +0.000 A 
ATOM      7  C   UNL     1      46.574   6.469  11.468  0.00  0.00    +0.000 A 
BRANCH   5   8
ATOM      8  C   UNL     1      43.728   4.012  10.848  0.00  0.00    +0.000 C 
BRANCH   8   9
ATOM      9  O   UNL     1      44.006   3.633   9.498  0.00  0.00    +0.000 OA
BRANCH   9  10
ATOM     10  C   UNL     1      44.657   2.366   9.409  0.00  0.00    +0.000 C 
BRANCH  10  11
ATOM     11  C   UNL     1      45.677   2.401   8.301  0.00  0.00    +0.000 A 
ATOM     12  C   UNL     1      46.445   1.266   8.005  0.00  0.00    +0.000 A 
ATOM     13  C   UNL     1      47.356   1.284   6.949  0.00  0.00    +0.000 A 
ATOM     14  C   UNL     1      47.512   2.437   6.182  0.00  0.00    +0.000 A 
ATOM     15  C   UNL     1      46.765   3.576   6.478  0.00  0.00    +0.000 A 
ATOM     16  C   UNL     1      45.853   3.560   7.534  0.00  0.00    +0.000 A 
ENDBRANCH  10  11
ENDBRANCH   9  10
ENDBRANCH   8   9
ENDBRANCH   5   8
ENDBRANCH   1   2
BRANCH   1  19
ATOM     17  O   UNL     1      50.168   6.799  15.197  0.00  0.00    +0.000 OA
ATOM     18  C   UNL     1      49.043   6.863  15.687  0.00  0.00    +0.000 C 
ATOM     19  N   UNL     1      47.909   6.853  14.912  0.00  0.00    +0.000 N 
ATOM     20  H   UNL     1      47.019   7.111  15.325  0.00  0.00    +0.000 HD
BRANCH  18  21
ATOM     21  C   UNL     1      48.850   6.923  17.138  0.00  0.00    +0.000 A 
ATOM     22  C   UNL     1      48.523   8.129  17.745  0.00  0.00    +0.000 A 
ATOM     23  S   UNL     1      48.306   8.007  19.432  0.00  0.00    +0.000 S 
ATOM     24  C   UNL     1      48.602   6.331  19.404  0.00  0.00    +0.000 A 
ATOM     25  N   UNL     1      48.524   5.586  20.541  0.00  0.00    +0.000 NA
ATOM     26  C   UNL     1      48.735   4.323  20.364  0.00  0.00    +0.000 A 
ATOM     27  N   UNL     1      49.032   3.741  19.159  0.00  0.00    +0.000 N 
ATOM     28  C   UNL     1      49.172   4.462  17.995  0.00  0.00    +0.000 A 
ATOM     29  O   UNL     1      49.525   3.921  16.952  0.00  0.00    +0.000 OA
ATOM     30  C   UNL     1      48.903   5.879  18.132  0.00  0.00    +0.000 A 
ATOM     31  H   UNL     1      49.215   2.750  19.094  0.00  0.00    +0.000 HD
ENDBRANCH  18  21
ENDBRANCH   1  19
TORSDOF 7
ENDMDL
MODEL 2
REMARK VINA RESULT:    -7.834      3.484      5.405
REMARK INTER + INTRA:         -12.142
REMARK INTER:                 -11.238
REMARK INTRA:                  -0.903
REMARK UNBOUND:                -1.101
REMARK  Name = 
REMARK  7 active torsions:
REMARK  status: ('A' for Active; 'I' for Inactive)
REMARK    1  A    between atoms: C_2  and  C_20
REMARK    2  A    between atoms: N_3  and  C_4
REMARK    3  A    between atoms: C_4  and  C_5
REMARK    4  A    between atoms: C_8  and  C_9
REMARK    5  A    between atoms: C_9  and  O_10
REMARK    6  A    between atoms: O_10  and  C_11
REMARK    7  A    between atoms: C_11  and  C_12
REMARK                            x       y       z     vdW  Elec       q    Type
REMARK                         _______ _______ _______ _____ _____    ______ ____
ROOT
ATOM      1  C   UNL     1      47.466   5.886  14.469  0.00  0.00    +0.000 C 
ENDROOT
BRANCH   1   2
ATOM      2  C   UNL     1      46.463   5.133  13.637  0.00  0.00    +0.000 A 
ATOM      3  C   UNL     1      46.669   3.785  13.315  0.00  0.00    +0.000 A 
ATOM      4  C   UNL     1      45.705   3.072  12.598  0.00  0.00    +0.000 A 
ATOM      5  C   UNL     1      44.522   3.698  12.183  0.00  0.00    +0.000 A 
ATOM      6  C   UNL     1      44.335   5.056  12.467  0.00  0.00    +0.000 A 
ATOM      7  C   UNL     1      45.300   5.768  13.183  0.00  0.00    +0.000 A 
BRANCH   5   8
ATOM      8  C   UNL     1      43.438   2.902  11.496  0.00  0.00    +0.000 C 
BRANCH   8   9
ATOM      9  O   UNL     1      43.877   2.369  10.244  0.00  0.00    +0.000 OA
BRANCH   9  10
ATOM     10  C   UNL     1      44.307   3.385   9.338  0.00  0.00    +0.000 C 
BRANCH  10  11
ATOM     11  C   UNL     1      45.400   2.842   8.456  0.00  0.00    +0.000 A 
ATOM     12  C   UNL     1      46.119   3.696   7.608  0.00  0.00    +0.000 A 
ATOM     13  C   UNL     1      47.162   3.202   6.825  0.00  0.00    +0.000 A 
ATOM     14  C   UNL     1      47.495   1.850   6.879  0.00  0.00    +0.000 A 
ATOM     15  C   UNL     1      46.776   0.989   7.707  0.00  0.00    +0.000 A 
ATOM     16  C   UNL     1      45.732   1.481   8.490  0.00  0.00    +0.000 A 
ENDBRANCH  10  11
ENDBRANCH   9  10
ENDBRANCH   8   9
ENDBRANCH   5   8
ENDBRANCH   1   2
BRANCH   1  19
ATOM     17  O   UNL     1      49.173   6.601  12.427  0.00  0.00    +0.000 OA
ATOM     18  C   UNL     1      48.471   7.478  12.924  0.00  0.00    +0.000 C 
ATOM     19  N   UNL     1      47.656   7.234  14.003  0.00  0.00    +0.000 N 
ATOM     20  H   UNL     1      46.946   7.914  14.256  0.00  0.00    +0.000 HD
BRANCH  18  21
ATOM     21  C   UNL     1      48.489   8.848  12.407  0.00  0.00    +0.000 A 
ATOM     22  C   UNL     1      49.679   9.404  11.954  0.00  0.00    +0.000 A 
ATOM     23  S   UNL     1      49.507  10.993  11.359  0.00  0.00    +0.000 S 
ATOM     24  C   UNL     1      47.830  10.979  11.648  0.00  0.00    +0.000 A 
ATOM     25  N   UNL     1      47.052  12.043  11.311  0.00  0.00    +0.000 NA
ATOM     26  C   UNL     1      45.792  11.878  11.553  0.00  0.00    +0.000 A 
ATOM     27  N   UNL     1      45.245  10.754  12.114  0.00  0.00    +0.000 N 
ATOM     28  C   UNL     1      46.000   9.676  12.517  0.00  0.00    +0.000 A 
ATOM     29  O   UNL     1      45.487   8.723  13.096  0.00  0.00    +0.000 OA
ATOM     30  C   UNL     1      47.414   9.793  12.229  0.00  0.00    +0.000 A 
ATOM     31  H   UNL     1      44.254  10.700  12.303  0.00  0.00    +0.000 HD
ENDBRANCH  18  21
ENDBRANCH   1  19
TORSDOF 7
ENDMDL
MODEL 3
REMARK VINA RESULT:    -7.704      1.688      2.404
REMARK INTER + INTRA:         -11.958
REMARK INTER:                 -11.006
REMARK INTRA:                  -0.953
REMARK UNBOUND:                -1.101
REMARK  Name = 
REMARK  7 active torsions:
REMARK  status: ('A' for Active; 'I' for Inactive)
REMARK    1  A    between atoms: C_2  and  C_20
REMARK    2  A    between atoms: N_3  and  C_4
REMARK    3  A    between atoms: C_4  and  C_5
REMARK    4  A    between atoms: C_8  and  C_9
REMARK    5  A    between atoms: C_9  and  O_10
REMARK    6  A    between atoms: O_10  and  C_11
REMARK    7  A    between atoms: C_11  and  C_12
REMARK                            x       y       z     vdW  Elec       q    Type
REMARK                         _______ _______ _______ _____ _____    ______ ____
ROOT
ATOM      1  C   UNL     1      48.686   6.959  14.428  0.00  0.00    +0.000 C 
ENDROOT
BRANCH   1   2
ATOM      2  C   UNL     1      47.691   6.370  13.465  0.00  0.00    +0.000 A 
ATOM      3  C   UNL     1      47.007   5.187  13.779  0.00  0.00    +0.000 A 
ATOM      4  C   UNL     1      46.035   4.679  12.914  0.00  0.00    +0.000 A 
ATOM      5  C   UNL     1      45.738   5.340  11.714  0.00  0.00    +0.000 A 
ATOM      6  C   UNL     1      46.452   6.497  11.379  0.00  0.00    +0.000 A 
ATOM      7  C   UNL     1      47.423   7.003  12.245  0.00  0.00    +0.000 A 
BRANCH   5   8
ATOM      8  C   UNL     1      44.621   4.845  10.827  0.00  0.00    +0.000 C 
BRANCH   8   9
ATOM      9  O   UNL     1      44.819   3.489  10.422  0.00  0.00    +0.000 OA
BRANCH   9  10
ATOM     10  C   UNL     1      44.354   3.240   9.096  0.00  0.00    +0.000 C 
BRANCH  10  11
ATOM     11  C   UNL     1      45.500   2.767   8.241  0.00  0.00    +0.000 A 
ATOM     12  C   UNL     1      45.979   1.454   8.356  0.00  0.00    +0.000 A 
ATOM     13  C   UNL     1      47.009   1.002   7.533  0.00  0.00    +0.000 A 
ATOM     14  C   UNL     1      47.574   1.857   6.588  0.00  0.00    +0.000 A 
ATOM     15  C   UNL     1      47.116   3.169   6.475  0.00  0.00    +0.000 A 
ATOM     16  C   UNL     1      46.086   3.623   7.299  0.00  0.00    +0.000 A 
ENDBRANCH  10  11
ENDBRANCH   9  10
ENDBRANCH   8   9
ENDBRANCH   5   8
ENDBRANCH   1   2
BRANCH   1  19
ATOM     17  O   UNL     1      50.071   5.665  16.429  0.00  0.00    +0.000 OA
ATOM     18  C   UNL     1      49.044   6.265  16.735  0.00  0.00    +0.000 C 
ATOM     19  N   UNL     1      48.242   6.865  15.794  0.00  0.00    +0.000 N 
ATOM     20  H   UNL     1      47.525   7.518  16.092  0.00  0.00    +0.000 HD
BRANCH  18  21
ATOM     21  C   UNL     1      48.601   6.350  18.129  0.00  0.00    +0.000 A 
ATOM     22  C   UNL     1      48.688   5.236  18.954  0.00  0.00    +0.000 A 
ATOM     23  S   UNL     1      48.159   5.524  20.549  0.00  0.00    +0.000 S 
ATOM     24  C   UNL     1      47.833   7.158  20.204  0.00  0.00    +0.000 A 
ATOM     25  N   UNL     1      47.387   8.004  21.173  0.00  0.00    +0.000 NA
ATOM     26  C   UNL     1      47.218   9.223  20.777  0.00  0.00    +0.000 A 
ATOM     27  N   UNL     1      47.440   9.669  19.500  0.00  0.00    +0.000 N 
ATOM     28  C   UNL     1      47.841   8.839  18.477  0.00  0.00    +0.000 A 
ATOM     29  O   UNL     1      47.944   9.253  17.327  0.00  0.00    +0.000 OA
ATOM     30  C   UNL     1      48.085   7.469  18.879  0.00  0.00    +0.000 A 
ATOM     31  H   UNL     1      47.261  10.630  19.248  0.00  0.00    +0.000 HD
ENDBRANCH  18  21
ENDBRANCH   1  19
TORSDOF 7
ENDMDL
MODEL 4
REMARK VINA RESULT:    -7.522      3.751      5.833
REMARK INTER + INTRA:         -11.702
REMARK INTER:                 -10.503
REMARK INTRA:                  -1.199
REMARK UNBOUND:                -1.101
REMARK  Name = 
REMARK  7 active torsions:
REMARK  status: ('A' for Active; 'I' for Inactive)
REMARK    1  A    between atoms: C_2  and  C_20
REMARK    2  A    between atoms: N_3  and  C_4
REMARK    3  A    between atoms: C_4  and  C_5
REMARK    4  A    between atoms: C_8  and  C_9
REMARK    5  A    between atoms: C_9  and  O_10
REMARK    6  A    between atoms: O_10  and  C_11
REMARK    7  A    between atoms: C_11  and  C_12
REMARK                            x       y       z     vdW  Elec       q    Type
REMARK                         _______ _______ _______ _____ _____    ______ ____
ROOT
ATOM      1  C   UNL     1      47.996   6.523  13.681  0.00  0.00    +0.000 C 
ENDROOT
BRANCH   1   2
ATOM      2  C   UNL     1      46.929   5.776  12.927  0.00  0.00    +0.000 A 
ATOM      3  C   UNL     1      46.341   4.626  13.471  0.00  0.00    +0.000 A 
ATOM      4  C   UNL     1      45.305   3.973  12.799  0.00  0.00    +0.000 A 
ATOM      5  C   UNL     1      44.846   4.454  11.565  0.00  0.00    +0.000 A 
ATOM      6  C   UNL     1      45.463   5.577  11.000  0.00  0.00    +0.000 A 
ATOM      7  C   UNL     1      46.498   6.228  11.673  0.00  0.00    +0.000 A 
BRANCH   5   8
ATOM      8  C   UNL     1      43.662   3.807  10.887  0.00  0.00    +0.000 C 
BRANCH   8   9
ATOM      9  O   UNL     1      43.952   3.443   9.536  0.00  0.00    +0.000 OA
BRANCH   9  10
ATOM     10  C   UNL     1      44.680   2.219   9.443  0.00  0.00    +0.000 C 
BRANCH  10  11
ATOM     11  C   UNL     1      45.689   2.316   8.330  0.00  0.00    +0.000 A 
ATOM     12  C   UNL     1      45.883   3.527   7.650  0.00  0.00    +0.000 A 
ATOM     13  C   UNL     1      46.850   3.630   6.650  0.00  0.00    +0.000 A 
ATOM     14  C   UNL     1      47.631   2.525   6.318  0.00  0.00    +0.000 A 
ATOM     15  C   UNL     1      47.436   1.312   6.977  0.00  0.00    +0.000 A 
ATOM     16  C   UNL     1      46.468   1.207   7.977  0.00  0.00    +0.000 A 
ENDBRANCH  10  11
ENDBRANCH   9  10
ENDBRANCH   8   9
ENDBRANCH   5   8
ENDBRANCH   1   2
BRANCH   1  19
ATOM     17  O   UNL     1      50.399   7.719  14.308  0.00  0.00    +0.000 OA
ATOM     18  C   UNL     1      49.890   7.984  13.222  0.00  0.00    +0.000 C 
ATOM     19  N   UNL     1      48.655   7.505  12.860  0.00  0.00    +0.000 N 
ATOM     20  H   UNL     1      48.358   7.571  11.892  0.00  0.00    +0.000 HD
BRANCH  18  21
ATOM     21  C   UNL     1      50.569   8.855  12.259  0.00  0.00    +0.000 A 
ATOM     22  C   UNL     1      51.918   8.671  11.986  0.00  0.00    +0.000 A 
ATOM     23  S   UNL     1      52.533   9.754  10.820  0.00  0.00    +0.000 S 
ATOM     24  C   UNL     1      51.008  10.479  10.610  0.00  0.00    +0.000 A 
ATOM     25  N   UNL     1      50.824  11.472   9.697  0.00  0.00    +0.000 NA
ATOM     26  C   UNL     1      49.607  11.902   9.619  0.00  0.00    +0.000 A 
ATOM     27  N   UNL     1      48.564  11.442  10.379  0.00  0.00    +0.000 N 
ATOM     28  C   UNL     1      48.715  10.477  11.349  0.00  0.00    +0.000 A 
ATOM     29  O   UNL     1      47.778  10.152  12.072  0.00  0.00    +0.000 OA
ATOM     30  C   UNL     1      50.052   9.931  11.448  0.00  0.00    +0.000 A 
ATOM     31  H   UNL     1      47.641  11.842  10.289  0.00  0.00    +0.000 HD
ENDBRANCH  18  21
ENDBRANCH   1  19
TORSDOF 7
ENDMDL
MODEL 5
REMARK VINA RESULT:    -7.401      1.895      2.565
REMARK INTER + INTRA:         -11.531
REMARK INTER:                 -10.297
REMARK INTRA:                  -1.234
REMARK UNBOUND:                -1.101
REMARK  Name = 
REMARK  7 active torsions:
REMARK  status: ('A' for Active; 'I' for Inactive)
REMARK    1  A    between atoms: C_2  and  C_20
REMARK    2  A    between atoms: N_3  and  C_4
REMARK    3  A    between atoms: C_4  and  C_5
REMARK    4  A    between atoms: C_8  and  C_9
REMARK    5  A    between atoms: C_9  and  O_10
REMARK    6  A    between atoms: O_10  and  C_11
REMARK    7  A    between atoms: C_11  and  C_12
REMARK                            x       y       z     vdW  Elec       q    Type
REMARK                         _______ _______ _______ _____ _____    ______ ____
ROOT
ATOM      1  C   UNL     1      47.565   7.695  12.863  0.00  0.00    +0.000 C 
ENDROOT
BRANCH   1   2
ATOM      2  C   UNL     1      46.588   6.615  12.484  0.00  0.00    +0.000 A 
ATOM      3  C   UNL     1      45.861   6.695  11.288  0.00  0.00    +0.000 A 
ATOM      4  C   UNL     1      45.005   5.659  10.908  0.00  0.00    +0.000 A 
ATOM      5  C   UNL     1      44.853   4.529  11.723  0.00  0.00    +0.000 A 
ATOM      6  C   UNL     1      45.545   4.469  12.939  0.00  0.00    +0.000 A 
ATOM      7  C   UNL     1      46.400   5.505  13.317  0.00  0.00    +0.000 A 
BRANCH   5   8
ATOM      8  C   UNL     1      44.005   3.367  11.265  0.00  0.00    +0.000 C 
BRANCH   8   9
ATOM      9  O   UNL     1      44.106   3.153   9.855  0.00  0.00    +0.000 OA
BRANCH   9  10
ATOM     10  C   UNL     1      44.784   1.939   9.533  0.00  0.00    +0.000 C 
BRANCH  10  11
ATOM     11  C   UNL     1      45.675   2.163   8.340  0.00  0.00    +0.000 A 
ATOM     12  C   UNL     1      45.672   3.395   7.670  0.00  0.00    +0.000 A 
ATOM     13  C   UNL     1      46.531   3.617   6.594  0.00  0.00    +0.000 A 
ATOM     14  C   UNL     1      47.398   2.612   6.174  0.00  0.00    +0.000 A 
ATOM     15  C   UNL     1      47.400   1.377   6.823  0.00  0.00    +0.000 A 
ATOM     16  C   UNL     1      46.540   1.152   7.899  0.00  0.00    +0.000 A 
ENDBRANCH  10  11
ENDBRANCH   9  10
ENDBRANCH   8   9
ENDBRANCH   5   8
ENDBRANCH   1   2
BRANCH   1  19
ATOM     17  O   UNL     1      49.441   9.247  14.154  0.00  0.00    +0.000 OA
ATOM     18  C   UNL     1      49.541   8.026  14.247  0.00  0.00    +0.000 C 
ATOM     19  N   UNL     1      48.706   7.173  13.568  0.00  0.00    +0.000 N 
ATOM     20  H   UNL     1      48.681   6.191  13.822  0.00  0.00    +0.000 HD
BRANCH  18  21
ATOM     21  C   UNL     1      50.583   7.411  15.073  0.00  0.00    +0.000 A 
ATOM     22  C   UNL     1      51.911   7.785  14.908  0.00  0.00    +0.000 A 
ATOM     23  S   UNL     1      52.981   6.991  15.972  0.00  0.00    +0.000 S 
ATOM     24  C   UNL     1      51.703   6.151  16.719  0.00  0.00    +0.000 A 
ATOM     25  N   UNL     1      51.932   5.316  17.768  0.00  0.00    +0.000 NA
ATOM     26  C   UNL     1      50.865   4.776  18.259  0.00  0.00    +0.000 A 
ATOM     27  N   UNL     1      49.596   4.983  17.788  0.00  0.00    +0.000 N 
ATOM     28  C   UNL     1      49.323   5.778  16.698  0.00  0.00    +0.000 A 
ATOM     29  O   UNL     1      48.185   5.871  16.248  0.00  0.00    +0.000 OA
ATOM     30  C   UNL     1      50.482   6.441  16.136  0.00  0.00    +0.000 A 
ATOM     31  H   UNL     1      48.806   4.507  18.199  0.00  0.00    +0.000 HD
ENDBRANCH  18  21
ENDBRANCH   1  19
TORSDOF 7
ENDMDL
MODEL 6
REMARK VINA RESULT:    -7.222      4.011      8.512
REMARK INTER + INTRA:         -11.279
REMARK INTER:                  -9.596
REMARK INTRA:                  -1.683
REMARK UNBOUND:                -1.101
REMARK  Name = 
REMARK  7 active torsions:
REMARK  status: ('A' for Active; 'I' for Inactive)
REMARK    1  A    between atoms: C_2  and  C_20
REMARK    2  A    between atoms: N_3  and  C_4
REMARK    3  A    between atoms: C_4  and  C_5
REMARK    4  A    between atoms: C_8  and  C_9
REMARK    5  A    between atoms: C_9  and  O_10
REMARK    6  A    between atoms: O_10  and  C_11
REMARK    7  A    between atoms: C_11  and  C_12
REMARK                            x       y       z     vdW  Elec       q    Type
REMARK                         _______ _______ _______ _____ _____    ______ ____
ROOT
ATOM      1  C   UNL     1      48.050   8.233  12.279  0.00  0.00    +0.000 C 
ENDROOT
BRANCH   1   2
ATOM      2  C   UNL     1      48.359   8.114  13.747  0.00  0.00    +0.000 A 
ATOM      3  C   UNL     1      48.146   9.196  14.612  0.00  0.00    +0.000 A 
ATOM      4  C   UNL     1      48.371   9.062  15.984  0.00  0.00    +0.000 A 
ATOM      5  C   UNL     1      48.822   7.846  16.513  0.00  0.00    +0.000 A 
ATOM      6  C   UNL     1      49.077   6.778  15.644  0.00  0.00    +0.000 A 
ATOM      7  C   UNL     1      48.851   6.914  14.273  0.00  0.00    +0.000 A 
BRANCH   5   8
ATOM      8  C   UNL     1      48.970   7.672  18.006  0.00  0.00    +0.000 C 
BRANCH   8   9
ATOM      9  O   UNL     1      47.837   7.019  18.583  0.00  0.00    +0.000 OA
BRANCH   9  10
ATOM     10  C   UNL     1      48.200   5.877  19.360  0.00  0.00    +0.000 C 
BRANCH  10  11
ATOM     11  C   UNL     1      48.366   4.685  18.455  0.00  0.00    +0.000 A 
ATOM     12  C   UNL     1      47.312   4.266  17.631  0.00  0.00    +0.000 A 
ATOM     13  C   UNL     1      47.481   3.190  16.759  0.00  0.00    +0.000 A 
ATOM     14  C   UNL     1      48.702   2.522  16.703  0.00  0.00    +0.000 A 
ATOM     15  C   UNL     1      49.752   2.921  17.528  0.00  0.00    +0.000 A 
ATOM     16  C   UNL     1      49.585   3.996  18.402  0.00  0.00    +0.000 A 
ENDBRANCH  10  11
ENDBRANCH   9  10
ENDBRANCH   8   9
ENDBRANCH   5   8
ENDBRANCH   1   2
BRANCH   1  19
ATOM     17  O   UNL     1      45.335   7.910  11.929  0.00  0.00    +0.000 OA
ATOM     18  C   UNL     1      46.077   7.009  11.545  0.00  0.00    +0.000 C 
ATOM     19  N   UNL     1      47.433   7.042  11.755  0.00  0.00    +0.000 N 
ATOM     20  H   UNL     1      48.033   6.395  11.253  0.00  0.00    +0.000 HD
BRANCH  18  21
ATOM     21  C   UNL     1      45.543   5.827  10.861  0.00  0.00    +0.000 A 
ATOM     22  C   UNL     1      45.843   5.605   9.523  0.00  0.00    +0.000 A 
ATOM     23  S   UNL     1      45.165   4.169   8.901  0.00  0.00    +0.000 S 
ATOM     24  C   UNL     1      44.481   3.774  10.408  0.00  0.00    +0.000 A 
ATOM     25  N   UNL     1      43.789   2.615  10.582  0.00  0.00    +0.000 NA
ATOM     26  C   UNL     1      43.360   2.429  11.787  0.00  0.00    +0.000 A 
ATOM     27  N   UNL     1      43.545   3.301  12.827  0.00  0.00    +0.000 N 
ATOM     28  C   UNL     1      44.193   4.507  12.685  0.00  0.00    +0.000 A 
ATOM     29  O   UNL     1      44.264   5.303  13.617  0.00  0.00    +0.000 OA
ATOM     30  C   UNL     1      44.732   4.745  11.362  0.00  0.00    +0.000 A 
ATOM     31  H   UNL     1      43.158   3.108  13.740  0.00  0.00    +0.000 HD
ENDBRANCH  18  21
ENDBRANCH   1  19
TORSDOF 7
ENDMDL
MODEL 7
REMARK VINA RESULT:    -7.166      4.235      5.902
REMARK INTER + INTRA:         -11.199
REMARK INTER:                  -9.976
REMARK INTRA:                  -1.223
REMARK UNBOUND:                -1.101
REMARK  Name = 
REMARK  7 active torsions:
REMARK  status: ('A' for Active; 'I' for Inactive)
REMARK    1  A    between atoms: C_2  and  C_20
REMARK    2  A    between atoms: N_3  and  C_4
REMARK    3  A    between atoms: C_4  and  C_5
REMARK    4  A    between atoms: C_8  and  C_9
REMARK    5  A    between atoms: C_9  and  O_10
REMARK    6  A    between atoms: O_10  and  C_11
REMARK    7  A    between atoms: C_11  and  C_12
REMARK                            x       y       z     vdW  Elec       q    Type
REMARK                         _______ _______ _______ _____ _____    ______ ____
ROOT
ATOM      1  C   UNL     1      47.473   7.588  13.350  0.00  0.00    +0.000 C 
ENDROOT
BRANCH   1   2
ATOM      2  C   UNL     1      46.565   6.568  12.719  0.00  0.00    +0.000 A 
ATOM      3  C   UNL     1      46.057   5.501  13.472  0.00  0.00    +0.000 A 
ATOM      4  C   UNL     1      45.161   4.593  12.901  0.00  0.00    +0.000 A 
ATOM      5  C   UNL     1      44.767   4.731  11.564  0.00  0.00    +0.000 A 
ATOM      6  C   UNL     1      45.309   5.771  10.798  0.00  0.00    +0.000 A 
ATOM      7  C   UNL     1      46.203   6.678  11.371  0.00  0.00    +0.000 A 
BRANCH   5   8
ATOM      8  C   UNL     1      43.725   3.810  10.976  0.00  0.00    +0.000 C 
BRANCH   8   9
ATOM      9  O   UNL     1      44.031   3.445   9.629  0.00  0.00    +0.000 OA
BRANCH   9  10
ATOM     10  C   UNL     1      44.802   2.246   9.548  0.00  0.00    +0.000 C 
BRANCH  10  11
ATOM     11  C   UNL     1      45.706   2.310   8.346  0.00  0.00    +0.000 A 
ATOM     12  C   UNL     1      45.799   3.484   7.586  0.00  0.00    +0.000 A 
ATOM     13  C   UNL     1      46.671   3.558   6.500  0.00  0.00    +0.000 A 
ATOM     14  C   UNL     1      47.457   2.459   6.161  0.00  0.00    +0.000 A 
ATOM     15  C   UNL     1      47.362   1.281   6.900  0.00  0.00    +0.000 A 
ATOM     16  C   UNL     1      46.490   1.205   7.986  0.00  0.00    +0.000 A 
ENDBRANCH  10  11
ENDBRANCH   9  10
ENDBRANCH   8   9
ENDBRANCH   5   8
ENDBRANCH   1   2
BRANCH   1  19
ATOM     17  O   UNL     1      48.437  10.126  13.832  0.00  0.00    +0.000 OA
ATOM     18  C   UNL     1      48.650   9.629  12.729  0.00  0.00    +0.000 C 
ATOM     19  N   UNL     1      48.135   8.408  12.368  0.00  0.00    +0.000 N 
ATOM     20  H   UNL     1      48.493   7.939  11.542  0.00  0.00    +0.000 HD
BRANCH  18  21
ATOM     21  C   UNL     1      49.448  10.332  11.722  0.00  0.00    +0.000 A 
ATOM     22  C   UNL     1      49.118  11.632  11.358  0.00  0.00    +0.000 A 
ATOM     23  S   UNL     1      50.172  12.304  10.198  0.00  0.00    +0.000 S 
ATOM     24  C   UNL     1      51.129  10.897  10.171  0.00  0.00    +0.000 A 
ATOM     25  N   UNL     1      52.249  10.826   9.401  0.00  0.00    +0.000 NA
ATOM     26  C   UNL     1      52.897   9.712   9.509  0.00  0.00    +0.000 A 
ATOM     27  N   UNL     1      52.520   8.661  10.303  0.00  0.00    +0.000 N 
ATOM     28  C   UNL     1      51.369   8.670  11.058  0.00  0.00    +0.000 A 
ATOM     29  O   UNL     1      51.015   7.678  11.688  0.00  0.00    +0.000 OA
ATOM     30  C   UNL     1      50.627   9.913  11.005  0.00  0.00    +0.000 A 
ATOM     31  H   UNL     1      53.057   7.806  10.320  0.00  0.00    +0.000 HD
ENDBRANCH  18  21
ENDBRANCH   1  19
TORSDOF 7
ENDMDL
MODEL 8
REMARK VINA RESULT:    -7.085      2.802      3.823
REMARK INTER + INTRA:         -11.086
REMARK INTER:                 -10.083
REMARK INTRA:                  -1.003
REMARK UNBOUND:                -1.101
REMARK  Name = 
REMARK  7 active torsions:
REMARK  status: ('A' for Active; 'I' for Inactive)
REMARK    1  A    between atoms: C_2  and  C_20
REMARK    2  A    between atoms: N_3  and  C_4
REMARK    3  A    between atoms: C_4  and  C_5
REMARK    4  A    between atoms: C_8  and  C_9
REMARK    5  A    between atoms: C_9  and  O_10
REMARK    6  A    between atoms: O_10  and  C_11
REMARK    7  A    between atoms: C_11  and  C_12
REMARK                            x       y       z     vdW  Elec       q    Type
REMARK                         _______ _______ _______ _____ _____    ______ ____
ROOT
ATOM      1  C   UNL     1      49.314   6.740  16.378  0.00  0.00    +0.000 C 
ENDROOT
BRANCH   1   2
ATOM      2  C   UNL     1      48.375   6.006  15.460  0.00  0.00    +0.000 A 
ATOM      3  C   UNL     1      48.166   6.450  14.146  0.00  0.00    +0.000 A 
ATOM      4  C   UNL     1      47.345   5.729  13.276  0.00  0.00    +0.000 A 
ATOM      5  C   UNL     1      46.710   4.557  13.708  0.00  0.00    +0.000 A 
ATOM      6  C   UNL     1      46.883   4.137  15.032  0.00  0.00    +0.000 A 
ATOM      7  C   UNL     1      47.704   4.859  15.901  0.00  0.00    +0.000 A 
BRANCH   5   8
ATOM      8  C   UNL     1      45.903   3.726  12.739  0.00  0.00    +0.000 C 
BRANCH   8   9
ATOM      9  O   UNL     1      44.759   4.431  12.253  0.00  0.00    +0.000 OA
BRANCH   9  10
ATOM     10  C   UNL     1      44.009   3.671  11.305  0.00  0.00    +0.000 C 
BRANCH  10  11
ATOM     11  C   UNL     1      44.804   3.526  10.035  0.00  0.00    +0.000 A 
ATOM     12  C   UNL     1      45.037   2.258   9.482  0.00  0.00    +0.000 A 
ATOM     13  C   UNL     1      45.734   2.127   8.281  0.00  0.00    +0.000 A 
ATOM     14  C   UNL     1      46.207   3.259   7.622  0.00  0.00    +0.000 A 
ATOM     15  C   UNL     1      45.995   4.524   8.170  0.00  0.00    +0.000 A 
ATOM     16  C   UNL     1      45.299   4.657   9.372  0.00  0.00    +0.000 A 
ENDBRANCH  10  11
ENDBRANCH   9  10
ENDBRANCH   8   9
ENDBRANCH   5   8
ENDBRANCH   1   2
BRANCH   1  19
ATOM     17  O   UNL     1      49.914   6.001  18.965  0.00  0.00    +0.000 OA
ATOM     18  C   UNL     1      50.616   5.554  18.061  0.00  0.00    +0.000 C 
ATOM     19  N   UNL     1      50.448   5.935  16.752  0.00  0.00    +0.000 N 
ATOM     20  H   UNL     1      50.898   5.402  16.015  0.00  0.00    +0.000 HD
BRANCH  18  21
ATOM     21  C   UNL     1      51.697   4.605  18.338  0.00  0.00    +0.000 A 
ATOM     22  C   UNL     1      52.804   5.009  19.073  0.00  0.00    +0.000 A 
ATOM     23  S   UNL     1      53.946   3.768  19.326  0.00  0.00    +0.000 S 
ATOM     24  C   UNL     1      52.981   2.636  18.497  0.00  0.00    +0.000 A 
ATOM     25  N   UNL     1      53.365   1.335  18.387  0.00  0.00    +0.000 NA
ATOM     26  C   UNL     1      52.517   0.583  17.765  0.00  0.00    +0.000 A 
ATOM     27  N   UNL     1      51.331   1.015  17.232  0.00  0.00    +0.000 N 
ATOM     28  C   UNL     1      50.928   2.330  17.275  0.00  0.00    +0.000 A 
ATOM     29  O   UNL     1      49.902   2.698  16.710  0.00  0.00    +0.000 OA
ATOM     30  C   UNL     1      51.823   3.208  17.999  0.00  0.00    +0.000 A 
ATOM     31  H   UNL     1      50.726   0.380  16.733  0.00  0.00    +0.000 HD
ENDBRANCH  18  21
ENDBRANCH   1  19
TORSDOF 7
ENDMDL
MODEL 9
REMARK VINA RESULT:    -6.921      4.042      8.555
REMARK INTER + INTRA:         -10.855
REMARK INTER:                  -8.686
REMARK INTRA:                  -2.169
REMARK UNBOUND:                -1.101
REMARK  Name = 
REMARK  7 active torsions:
REMARK  status: ('A' for Active; 'I' for Inactive)
REMARK    1  A    between atoms: C_2  and  C_20
REMARK    2  A    between atoms: N_3  and  C_4
REMARK    3  A    between atoms: C_4  and  C_5
REMARK    4  A    between atoms: C_8  and  C_9
REMARK    5  A    between atoms: C_9  and  O_10
REMARK    6  A    between atoms: O_10  and  C_11
REMARK    7  A    between atoms: C_11  and  C_12
REMARK                            x       y       z     vdW  Elec       q    Type
REMARK                         _______ _______ _______ _____ _____    ______ ____
ROOT
ATOM      1  C   UNL     1      48.579   8.359  14.436  0.00  0.00    +0.000 C 
ENDROOT
BRANCH   1   2
ATOM      2  C   UNL     1      49.029   7.893  15.794  0.00  0.00    +0.000 A 
ATOM      3  C   UNL     1      48.398   8.360  16.955  0.00  0.00    +0.000 A 
ATOM      4  C   UNL     1      48.774   7.875  18.210  0.00  0.00    +0.000 A 
ATOM      5  C   UNL     1      49.794   6.921  18.326  0.00  0.00    +0.000 A 
ATOM      6  C   UNL     1      50.455   6.487  17.170  0.00  0.00    +0.000 A 
ATOM      7  C   UNL     1      50.078   6.973  15.916  0.00  0.00    +0.000 A 
BRANCH   5   8
ATOM      8  C   UNL     1      50.132   6.325  19.671  0.00  0.00    +0.000 C 
BRANCH   8   9
ATOM      9  O   UNL     1      48.972   5.826  20.342  0.00  0.00    +0.000 OA
BRANCH   9  10
ATOM     10  C   UNL     1      48.886   4.401  20.298  0.00  0.00    +0.000 C 
BRANCH  10  11
ATOM     11  C   UNL     1      48.523   3.962  18.904  0.00  0.00    +0.000 A 
ATOM     12  C   UNL     1      47.386   4.480  18.268  0.00  0.00    +0.000 A 
ATOM     13  C   UNL     1      47.076   4.109  16.960  0.00  0.00    +0.000 A 
ATOM     14  C   UNL     1      47.896   3.215  16.275  0.00  0.00    +0.000 A 
ATOM     15  C   UNL     1      49.022   2.682  16.903  0.00  0.00    +0.000 A 
ATOM     16  C   UNL     1      49.333   3.052  18.212  0.00  0.00    +0.000 A 
ENDBRANCH  10  11
ENDBRANCH   9  10
ENDBRANCH   8   9
ENDBRANCH   5   8
ENDBRANCH   1   2
BRANCH   1  19
ATOM     17  O   UNL     1      48.859   6.227  12.711  0.00  0.00    +0.000 OA
ATOM     18  C   UNL     1      47.734   6.482  13.135  0.00  0.00    +0.000 C 
ATOM     19  N   UNL     1      47.484   7.575  13.927  0.00  0.00    +0.000 N 
ATOM     20  H   UNL     1      46.601   7.642  14.422  0.00  0.00    +0.000 HD
BRANCH  18  21
ATOM     21  C   UNL     1      46.586   5.640  12.789  0.00  0.00    +0.000 A 
ATOM     22  C   UNL     1      46.609   4.282  13.076  0.00  0.00    +0.000 A 
ATOM     23  S   UNL     1      45.178   3.466  12.634  0.00  0.00    +0.000 S 
ATOM     24  C   UNL     1      44.462   4.907  12.081  0.00  0.00    +0.000 A 
ATOM     25  N   UNL     1      43.187   4.918  11.605  0.00  0.00    +0.000 NA
ATOM     26  C   UNL     1      42.761   6.088  11.256  0.00  0.00    +0.000 A 
ATOM     27  N   UNL     1      43.498   7.241  11.324  0.00  0.00    +0.000 N 
ATOM     28  C   UNL     1      44.807   7.268  11.750  0.00  0.00    +0.000 A 
ATOM     29  O   UNL     1      45.465   8.304  11.715  0.00  0.00    +0.000 OA
ATOM     30  C   UNL     1      45.319   5.988  12.194  0.00  0.00    +0.000 A 
ATOM     31  H   UNL     1      43.115   8.121  11.008  0.00  0.00    +0.000 HD
ENDBRANCH  18  21
ENDBRANCH   1  19
TORSDOF 7
ENDMDL
