MODEL 1
REMARK VINA RESULT:    -7.858      0.000      0.000
REMARK INTER + INTRA:          -9.708
REMARK INTER:                  -9.236
REMARK INTRA:                  -0.472
REMARK UNBOUND:                -0.472
REMARK  Name = 
REMARK  3 active torsions:
REMARK  status: ('A' for Active; 'I' for Inactive)
REMARK    1  A    between atoms: N_6  and  C_7
REMARK    2  A    between atoms: C_7  and  C_8
REMARK    3  A    between atoms: C_12  and  N_13
REMARK                            x       y       z     vdW  Elec       q    Type
REMARK                         _______ _______ _______ _____ _____    ______ ____
ROOT
ATOM      1  C   UNL     1      44.876   3.928  11.352  0.00  0.00    +0.000 A 
ATOM      2  C   UNL     1      45.365   3.163  12.404  0.00  0.00    +0.000 A 
ATOM      3  N   UNL     1      46.081   3.694  13.414  0.00  0.00    +0.000 NA
ATOM      4  C   UNL     1      46.275   5.034  13.325  0.00  0.00    +0.000 A 
ATOM      5  C   UNL     1      45.807   5.848  12.283  0.00  0.00    +0.000 A 
ATOM      6  N   UNL     1      45.082   5.279  11.292  0.00  0.00    +0.000 NA
ENDROOT
BRANCH   5   7
ATOM      7  N   UNL     1      45.997   7.221  12.308  0.00  0.00    +0.000 N 
ATOM      8  C   UNL     1      47.365   7.761  12.210  0.00  0.00    +0.000 C 
ATOM      9  C   UNL     1      47.369   9.172  12.823  0.00  0.00    +0.000 C 
ATOM     10  O   UNL     1      46.417  10.032  12.172  0.00  0.00    +0.000 OA
ATOM     11  C   UNL     1      45.089   9.477  12.256  0.00  0.00    +0.000 C 
ATOM     12  C   UNL     1      45.017   8.075  11.618  0.00  0.00    +0.000 C 
ENDBRANCH   5   7
BRANCH   1  13
ATOM     13  C   UNL     1      44.146   3.259  10.213  0.00  0.00    +0.000 C 
BRANCH  13  19
ATOM     14  F   UNL     1      48.142   2.201   5.413  0.00  0.00    +0.000 F 
ATOM     15  C   UNL     1      47.340   2.192   6.482  0.00  0.00    +0.000 A 
ATOM     16  C   UNL     1      46.742   3.329   6.956  0.00  0.00    +0.000 A 
ATOM     17  N   UNL     1      45.902   3.340   8.017  0.00  0.00    +0.000 NA
ATOM     18  C   UNL     1      45.690   2.167   8.639  0.00  0.00    +0.000 A 
ATOM     19  N   UNL     1      44.822   2.092   9.693  0.00  0.00    +0.000 N 
ATOM     20  N   UNL     1      46.264   1.013   8.268  0.00  0.00    +0.000 NA
ATOM     21  C   UNL     1      47.063   1.045   7.177  0.00  0.00    +0.000 A 
ATOM     22  H   UNL     1      45.034   1.333  10.325  0.00  0.00    +0.000 HD
ENDBRANCH  13  19
ENDBRANCH   1  13
TORSDOF 3
ENDMDL
MODEL 2
REMARK VINA RESULT:    -7.729      0.853      1.325
REMARK INTER + INTRA:          -9.556
REMARK INTER:                  -9.079
REMARK INTRA:                  -0.477
REMARK UNBOUND:                -0.472
REMARK  Name = 
REMARK  3 active torsions:
REMARK  status: ('A' for Active; 'I' for Inactive)
REMARK    1  A    between atoms: N_6  and  C_7
REMARK    2  A    between atoms: C_7  and  C_8
REMARK    3  A    between atoms: C_12  and  N_13
REMARK                            x       y       z     vdW  Elec       q    Type
REMARK                         _______ _______ _______ _____ _____    ______ ____
ROOT
ATOM      1  C   UNL     1      44.569   4.090  11.150  0.00  0.00    +0.000 A 
ATOM      2  C   UNL     1      44.286   3.501  12.376  0.00  0.00    +0.000 A 
ATOM      3  N   UNL     1      44.749   3.995  13.540  0.00  0.00    +0.000 NA
ATOM      4  C   UNL     1      45.502   5.117  13.419  0.00  0.00    +0.000 A 
ATOM      5  C   UNL     1      45.819   5.747  12.206  0.00  0.00    +0.000 A 
ATOM      6  N   UNL     1      45.326   5.226  11.058  0.00  0.00    +0.000 NA
ENDROOT
BRANCH   5   7
ATOM      7  N   UNL     1      46.542   6.929  12.181  0.00  0.00    +0.000 N 
ATOM      8  C   UNL     1      45.990   8.124  12.845  0.00  0.00    +0.000 C 
ATOM      9  C   UNL     1      46.637   9.367  12.211  0.00  0.00    +0.000 C 
ATOM     10  O   UNL     1      48.071   9.325  12.313  0.00  0.00    +0.000 OA
ATOM     11  C   UNL     1      48.591   8.138  11.680  0.00  0.00    +0.000 C 
ATOM     12  C   UNL     1      48.005   6.856  12.306  0.00  0.00    +0.000 C 
ENDBRANCH   5   7
BRANCH   1  13
ATOM     13  C   UNL     1      44.082   3.443   9.876  0.00  0.00    +0.000 C 
BRANCH  13  19
ATOM     14  F   UNL     1      48.234   2.009   5.311  0.00  0.00    +0.000 F 
ATOM     15  C   UNL     1      47.406   2.090   6.358  0.00  0.00    +0.000 A 
ATOM     16  C   UNL     1      46.752   3.247   6.684  0.00  0.00    +0.000 A 
ATOM     17  N   UNL     1      45.887   3.345   7.720  0.00  0.00    +0.000 NA
ATOM     18  C   UNL     1      45.706   2.243   8.470  0.00  0.00    +0.000 A 
ATOM     19  N   UNL     1      44.817   2.255   9.509  0.00  0.00    +0.000 N 
ATOM     20  N   UNL     1      46.336   1.081   8.248  0.00  0.00    +0.000 NA
ATOM     21  C   UNL     1      47.159   1.020   7.176  0.00  0.00    +0.000 A 
ATOM     22  H   UNL     1      45.044   1.583  10.229  0.00  0.00    +0.000 HD
ENDBRANCH  13  19
ENDBRANCH   1  13
TORSDOF 3
ENDMDL
MODEL 3
REMARK VINA RESULT:    -7.426      1.496      2.188
REMARK INTER + INTRA:          -9.200
REMARK INTER:                  -8.695
REMARK INTRA:                  -0.505
REMARK UNBOUND:                -0.472
REMARK  Name = 
REMARK  3 active torsions:
REMARK  status: ('A' for Active; 'I' for Inactive)
REMARK    1  A    between atoms: N_6  and  C_7
REMARK    2  A    between atoms: C_7  and  C_8
REMARK    3  A    between atoms: C_12  and  N_13
REMARK                            x       y       z     vdW  Elec       q    Type
REMARK                         _______ _______ _______ _____ _____    ______ ____
ROOT
ATOM      1  C   UNL     1      44.706   4.691  11.391  0.00  0.00    +0.000 A 
ATOM      2  C   UNL     1      44.398   3.916  12.502  0.00  0.00    +0.000 A 
ATOM      3  N   UNL     1      45.073   4.015  13.663  0.00  0.00    +0.000 NA
ATOM      4  C   UNL     1      46.067   4.939  13.662  0.00  0.00    +0.000 A 
ATOM      5  C   UNL     1      46.419   5.741  12.567  0.00  0.00    +0.000 A 
ATOM      6  N   UNL     1      45.710   5.619  11.421  0.00  0.00    +0.000 NA
ENDROOT
BRANCH   5   7
ATOM      7  N   UNL     1      47.408   6.707  12.676  0.00  0.00    +0.000 N 
ATOM      8  C   UNL     1      47.138   8.072  12.193  0.00  0.00    +0.000 C 
ATOM      9  C   UNL     1      48.485   8.750  11.890  0.00  0.00    +0.000 C 
ATOM     10  O   UNL     1      49.341   8.762  13.047  0.00  0.00    +0.000 OA
ATOM     11  C   UNL     1      49.574   7.420  13.520  0.00  0.00    +0.000 C 
ATOM     12  C   UNL     1      48.256   6.706  13.878  0.00  0.00    +0.000 C 
ENDBRANCH   5   7
BRANCH   1  13
ATOM     13  C   UNL     1      43.961   4.477  10.096  0.00  0.00    +0.000 C 
BRANCH  13  19
ATOM     14  F   UNL     1      47.716   0.904   6.455  0.00  0.00    +0.000 F 
ATOM     15  C   UNL     1      46.963   1.830   7.058  0.00  0.00    +0.000 A 
ATOM     16  C   UNL     1      46.200   1.548   8.158  0.00  0.00    +0.000 A 
ATOM     17  N   UNL     1      45.454   2.474   8.804  0.00  0.00    +0.000 NA
ATOM     18  C   UNL     1      45.456   3.720   8.295  0.00  0.00    +0.000 A 
ATOM     19  N   UNL     1      44.759   4.719   8.917  0.00  0.00    +0.000 N 
ATOM     20  N   UNL     1      46.142   4.075   7.199  0.00  0.00    +0.000 NA
ATOM     21  C   UNL     1      46.904   3.124   6.614  0.00  0.00    +0.000 A 
ATOM     22  H   UNL     1      44.480   5.456   8.285  0.00  0.00    +0.000 HD
ENDBRANCH  13  19
ENDBRANCH   1  13
TORSDOF 3
ENDMDL
MODEL 4
REMARK VINA RESULT:    -6.978      3.301      6.447
REMARK INTER + INTRA:          -8.673
REMARK INTER:                  -8.120
REMARK INTRA:                  -0.553
REMARK UNBOUND:                -0.472
REMARK  Name = 
REMARK  3 active torsions:
REMARK  status: ('A' for Active; 'I' for Inactive)
REMARK    1  A    between atoms: N_6  and  C_7
REMARK    2  A    between atoms: C_7  and  C_8
REMARK    3  A    between atoms: C_12  and  N_13
REMARK                            x       y       z     vdW  Elec       q    Type
REMARK                         _______ _______ _______ _____ _____    ______ ____
ROOT
ATOM      1  C   UNL     1      44.418   4.519  12.065  0.00  0.00    +0.000 A 
ATOM      2  C   UNL     1      43.461   3.617  12.513  0.00  0.00    +0.000 A 
ATOM      3  N   UNL     1      43.134   2.506  11.825  0.00  0.00    +0.000 NA
ATOM      4  C   UNL     1      43.823   2.335  10.669  0.00  0.00    +0.000 A 
ATOM      5  C   UNL     1      44.793   3.218  10.171  0.00  0.00    +0.000 A 
ATOM      6  N   UNL     1      45.101   4.317  10.897  0.00  0.00    +0.000 NA
ENDROOT
BRANCH   5   7
ATOM      7  N   UNL     1      45.494   2.929   9.010  0.00  0.00    +0.000 N 
ATOM      8  C   UNL     1      45.574   1.533   8.546  0.00  0.00    +0.000 C 
ATOM      9  C   UNL     1      46.814   1.397   7.645  0.00  0.00    +0.000 C 
ATOM     10  O   UNL     1      46.765   2.317   6.540  0.00  0.00    +0.000 OA
ATOM     11  C   UNL     1      46.662   3.675   7.012  0.00  0.00    +0.000 C 
ATOM     12  C   UNL     1      45.411   3.879   7.890  0.00  0.00    +0.000 C 
ENDBRANCH   5   7
BRANCH   1  13
ATOM     13  C   UNL     1      44.682   5.783  12.846  0.00  0.00    +0.000 C 
BRANCH  13  19
ATOM     14  F   UNL     1      50.505   8.173  12.135  0.00  0.00    +0.000 F 
ATOM     15  C   UNL     1      49.356   7.598  12.502  0.00  0.00    +0.000 A 
ATOM     16  C   UNL     1      48.220   7.686  11.744  0.00  0.00    +0.000 A 
ATOM     17  N   UNL     1      47.054   7.088  12.080  0.00  0.00    +0.000 NA
ATOM     18  C   UNL     1      47.029   6.407  13.240  0.00  0.00    +0.000 A 
ATOM     19  N   UNL     1      45.898   5.742  13.625  0.00  0.00    +0.000 N 
ATOM     20  N   UNL     1      48.082   6.303  14.064  0.00  0.00    +0.000 NA
ATOM     21  C   UNL     1      49.237   6.883  13.665  0.00  0.00    +0.000 A 
ATOM     22  H   UNL     1      45.828   5.632  14.628  0.00  0.00    +0.000 HD
ENDBRANCH  13  19
ENDBRANCH   1  13
TORSDOF 3
ENDMDL
MODEL 5
REMARK VINA RESULT:    -6.699      5.260      7.781
REMARK INTER + INTRA:          -8.345
REMARK INTER:                  -7.900
REMARK INTRA:                  -0.446
REMARK UNBOUND:                -0.472
REMARK  Name = 
REMARK  3 active torsions:
REMARK  status: ('A' for Active; 'I' for Inactive)
REMARK    1  A    between atoms: N_6  and  C_7
REMARK    2  A    between atoms: C_7  and  C_8
REMARK    3  A    between atoms: C_12  and  N_13
REMARK                            x       y       z     vdW  Elec       q    Type
REMARK                         _______ _______ _______ _____ _____    ______ ____
ROOT
ATOM      1  C   UNL     1      47.345   4.677  15.459  0.00  0.00    +0.000 A 
ATOM      2  C   UNL     1      48.213   5.671  15.026  0.00  0.00    +0.000 A 
ATOM      3  N   UNL     1      48.115   6.237  13.808  0.00  0.00    +0.000 NA
ATOM      4  C   UNL     1      47.095   5.767  13.047  0.00  0.00    +0.000 A 
ATOM      5  C   UNL     1      46.195   4.763  13.437  0.00  0.00    +0.000 A 
ATOM      6  N   UNL     1      46.321   4.226  14.672  0.00  0.00    +0.000 NA
ENDROOT
BRANCH   5   7
ATOM      7  N   UNL     1      45.141   4.390  12.618  0.00  0.00    +0.000 N 
ATOM      8  C   UNL     1      45.190   3.088  11.928  0.00  0.00    +0.000 C 
ATOM      9  C   UNL     1      44.266   3.160  10.701  0.00  0.00    +0.000 C 
ATOM     10  O   UNL     1      42.920   3.506  11.074  0.00  0.00    +0.000 OA
ATOM     11  C   UNL     1      42.894   4.769  11.768  0.00  0.00    +0.000 C 
ATOM     12  C   UNL     1      43.775   4.741  13.034  0.00  0.00    +0.000 C 
ENDBRANCH   5   7
BRANCH   1  13
ATOM     13  C   UNL     1      47.557   4.030  16.807  0.00  0.00    +0.000 C 
BRANCH  13  19
ATOM     14  F   UNL     1      53.569   2.458  18.035  0.00  0.00    +0.000 F 
ATOM     15  C   UNL     1      52.268   2.552  17.744  0.00  0.00    +0.000 A 
ATOM     16  C   UNL     1      51.582   3.733  17.838  0.00  0.00    +0.000 A 
ATOM     17  N   UNL     1      50.272   3.859  17.521  0.00  0.00    +0.000 NA
ATOM     18  C   UNL     1      49.630   2.745  17.127  0.00  0.00    +0.000 A 
ATOM     19  N   UNL     1      48.317   2.802  16.751  0.00  0.00    +0.000 N 
ATOM     20  N   UNL     1      50.213   1.540  17.045  0.00  0.00    +0.000 NA
ATOM     21  C   UNL     1      51.532   1.472  17.334  0.00  0.00    +0.000 A 
ATOM     22  H   UNL     1      47.832   1.925  16.879  0.00  0.00    +0.000 HD
ENDBRANCH  13  19
ENDBRANCH   1  13
TORSDOF 3
ENDMDL
MODEL 6
REMARK VINA RESULT:    -6.636      4.014      7.586
REMARK INTER + INTRA:          -8.272
REMARK INTER:                  -7.935
REMARK INTRA:                  -0.336
REMARK UNBOUND:                -0.472
REMARK  Name = 
REMARK  3 active torsions:
REMARK  status: ('A' for Active; 'I' for Inactive)
REMARK    1  A    between atoms: N_6  and  C_7
REMARK    2  A    between atoms: C_7  and  C_8
REMARK    3  A    between atoms: C_12  and  N_13
REMARK                            x       y       z     vdW  Elec       q    Type
REMARK                         _______ _______ _______ _____ _____    ______ ____
ROOT
ATOM      1  C   UNL     1      44.646   5.139  10.988  0.00  0.00    +0.000 A 
ATOM      2  C   UNL     1      43.624   4.430  11.606  0.00  0.00    +0.000 A 
ATOM      3  N   UNL     1      43.269   3.189  11.222  0.00  0.00    +0.000 NA
ATOM      4  C   UNL     1      43.998   2.685  10.195  0.00  0.00    +0.000 A 
ATOM      5  C   UNL     1      45.035   3.362   9.536  0.00  0.00    +0.000 A 
ATOM      6  N   UNL     1      45.368   4.604   9.958  0.00  0.00    +0.000 NA
ENDROOT
BRANCH   5   7
ATOM      7  N   UNL     1      45.771   2.744   8.536  0.00  0.00    +0.000 N 
ATOM      8  C   UNL     1      45.684   1.281   8.379  0.00  0.00    +0.000 C 
ATOM      9  C   UNL     1      46.954   0.800   7.656  0.00  0.00    +0.000 C 
ATOM     10  O   UNL     1      47.118   1.456   6.387  0.00  0.00    +0.000 OA
ATOM     11  C   UNL     1      47.176   2.887   6.557  0.00  0.00    +0.000 C 
ATOM     12  C   UNL     1      45.905   3.430   7.242  0.00  0.00    +0.000 C 
ENDBRANCH   5   7
BRANCH   1  13
ATOM     13  C   UNL     1      44.943   6.556  11.417  0.00  0.00    +0.000 C 
BRANCH  13  19
ATOM     14  F   UNL     1      44.453  12.869  11.589  0.00  0.00    +0.000 F 
ATOM     15  C   UNL     1      44.345  11.546  11.436  0.00  0.00    +0.000 A 
ATOM     16  C   UNL     1      45.349  10.685  11.788  0.00  0.00    +0.000 A 
ATOM     17  N   UNL     1      45.252   9.341  11.670  0.00  0.00    +0.000 NA
ATOM     18  C   UNL     1      44.111   8.856  11.146  0.00  0.00    +0.000 A 
ATOM     19  N   UNL     1      43.924   7.506  11.034  0.00  0.00    +0.000 N 
ATOM     20  N   UNL     1      43.093   9.627  10.738  0.00  0.00    +0.000 NA
ATOM     21  C   UNL     1      43.221  10.962  10.914  0.00  0.00    +0.000 A 
ATOM     22  H   UNL     1      43.283   7.258  10.293  0.00  0.00    +0.000 HD
ENDBRANCH  13  19
ENDBRANCH   1  13
TORSDOF 3
ENDMDL
MODEL 7
REMARK VINA RESULT:    -6.389      4.135      7.353
REMARK INTER + INTRA:          -7.981
REMARK INTER:                  -7.626
REMARK INTRA:                  -0.355
REMARK UNBOUND:                -0.472
REMARK  Name = 
REMARK  3 active torsions:
REMARK  status: ('A' for Active; 'I' for Inactive)
REMARK    1  A    between atoms: N_6  and  C_7
REMARK    2  A    between atoms: C_7  and  C_8
REMARK    3  A    between atoms: C_12  and  N_13
REMARK                            x       y       z     vdW  Elec       q    Type
REMARK                         _______ _______ _______ _____ _____    ______ ____
ROOT
ATOM      1  C   UNL     1      47.298   7.095  13.305  0.00  0.00    +0.000 A 
ATOM      2  C   UNL     1      46.638   8.318  13.320  0.00  0.00    +0.000 A 
ATOM      3  N   UNL     1      45.508   8.539  12.622  0.00  0.00    +0.000 NA
ATOM      4  C   UNL     1      45.062   7.470  11.915  0.00  0.00    +0.000 A 
ATOM      5  C   UNL     1      45.694   6.219  11.863  0.00  0.00    +0.000 A 
ATOM      6  N   UNL     1      46.822   6.033  12.587  0.00  0.00    +0.000 NA
ENDROOT
BRANCH   5   7
ATOM      7  N   UNL     1      45.131   5.162  11.164  0.00  0.00    +0.000 N 
ATOM      8  C   UNL     1      45.480   4.971   9.745  0.00  0.00    +0.000 C 
ATOM      9  C   UNL     1      44.353   4.163   9.079  0.00  0.00    +0.000 C 
ATOM     10  O   UNL     1      44.144   2.904   9.743  0.00  0.00    +0.000 OA
ATOM     11  C   UNL     1      43.828   3.109  11.134  0.00  0.00    +0.000 C 
ATOM     12  C   UNL     1      44.947   3.881  11.863  0.00  0.00    +0.000 C 
ENDBRANCH   5   7
BRANCH   1  13
ATOM     13  C   UNL     1      48.602   6.937  14.049  0.00  0.00    +0.000 C 
BRANCH  13  19
ATOM     14  F   UNL     1      47.052   2.244  18.012  0.00  0.00    +0.000 F 
ATOM     15  C   UNL     1      47.418   3.362  17.377  0.00  0.00    +0.000 A 
ATOM     16  C   UNL     1      47.581   3.411  16.020  0.00  0.00    +0.000 A 
ATOM     17  N   UNL     1      47.922   4.538  15.352  0.00  0.00    +0.000 NA
ATOM     18  C   UNL     1      48.138   5.642  16.089  0.00  0.00    +0.000 A 
ATOM     19  N   UNL     1      48.445   6.828  15.481  0.00  0.00    +0.000 N 
ATOM     20  N   UNL     1      48.041   5.674  17.426  0.00  0.00    +0.000 NA
ATOM     21  C   UNL     1      47.658   4.535  18.044  0.00  0.00    +0.000 A 
ATOM     22  H   UNL     1      48.976   7.449  16.076  0.00  0.00    +0.000 HD
ENDBRANCH  13  19
ENDBRANCH   1  13
TORSDOF 3
ENDMDL
MODEL 8
REMARK VINA RESULT:    -6.135      3.314      4.946
REMARK INTER + INTRA:          -7.683
REMARK INTER:                  -7.206
REMARK INTRA:                  -0.477
REMARK UNBOUND:                -0.472
REMARK  Name = 
REMARK  3 active torsions:
REMARK  status: ('A' for Active; 'I' for Inactive)
REMARK    1  A    between atoms: N_6  and  C_7
REMARK    2  A    between atoms: C_7  and  C_8
REMARK    3  A    between atoms: C_12  and  N_13
REMARK                            x       y       z     vdW  Elec       q    Type
REMARK                         _______ _______ _______ _____ _____    ______ ____
ROOT
ATOM      1  C   UNL     1      46.574   6.585  12.677  0.00  0.00    +0.000 A 
ATOM      2  C   UNL     1      47.688   7.259  12.193  0.00  0.00    +0.000 A 
ATOM      3  N   UNL     1      48.849   7.320  12.872  0.00  0.00    +0.000 NA
ATOM      4  C   UNL     1      48.845   6.662  14.059  0.00  0.00    +0.000 A 
ATOM      5  C   UNL     1      47.746   5.972  14.593  0.00  0.00    +0.000 A 
ATOM      6  N   UNL     1      46.600   5.925  13.875  0.00  0.00    +0.000 NA
ENDROOT
BRANCH   5   7
ATOM      7  N   UNL     1      47.852   5.272  15.785  0.00  0.00    +0.000 N 
ATOM      8  C   UNL     1      47.523   3.836  15.808  0.00  0.00    +0.000 C 
ATOM      9  C   UNL     1      47.161   3.449  17.252  0.00  0.00    +0.000 C 
ATOM     10  O   UNL     1      48.230   3.758  18.164  0.00  0.00    +0.000 OA
ATOM     11  C   UNL     1      48.555   5.162  18.110  0.00  0.00    +0.000 C 
ATOM     12  C   UNL     1      48.966   5.596  16.689  0.00  0.00    +0.000 C 
ENDBRANCH   5   7
BRANCH   1  13
ATOM     13  C   UNL     1      45.279   6.619  11.901  0.00  0.00    +0.000 C 
BRANCH  13  19
ATOM     14  F   UNL     1      44.470   1.140   8.827  0.00  0.00    +0.000 F 
ATOM     15  C   UNL     1      44.677   2.389   9.255  0.00  0.00    +0.000 A 
ATOM     16  C   UNL     1      44.510   2.749  10.565  0.00  0.00    +0.000 A 
ATOM     17  N   UNL     1      44.742   3.999  11.028  0.00  0.00    +0.000 NA
ATOM     18  C   UNL     1      45.122   4.922  10.126  0.00  0.00    +0.000 A 
ATOM     19  N   UNL     1      45.414   6.197  10.526  0.00  0.00    +0.000 N 
ATOM     20  N   UNL     1      45.270   4.667   8.818  0.00  0.00    +0.000 NA
ATOM     21  C   UNL     1      45.067   3.394   8.411  0.00  0.00    +0.000 A 
ATOM     22  H   UNL     1      45.277   6.880   9.794  0.00  0.00    +0.000 HD
ENDBRANCH  13  19
ENDBRANCH   1  13
TORSDOF 3
ENDMDL
MODEL 9
REMARK VINA RESULT:    -5.907      4.427      6.579
REMARK INTER + INTRA:          -7.415
REMARK INTER:                  -6.901
REMARK INTRA:                  -0.514
REMARK UNBOUND:                -0.472
REMARK  Name = 
REMARK  3 active torsions:
REMARK  status: ('A' for Active; 'I' for Inactive)
REMARK    1  A    between atoms: N_6  and  C_7
REMARK    2  A    between atoms: C_7  and  C_8
REMARK    3  A    between atoms: C_12  and  N_13
REMARK                            x       y       z     vdW  Elec       q    Type
REMARK                         _______ _______ _______ _____ _____    ______ ____
ROOT
ATOM      1  C   UNL     1      48.380   6.878  13.746  0.00  0.00    +0.000 A 
ATOM      2  C   UNL     1      49.487   7.713  13.651  0.00  0.00    +0.000 A 
ATOM      3  N   UNL     1      50.409   7.807  14.628  0.00  0.00    +0.000 NA
ATOM      4  C   UNL     1      50.176   7.013  15.703  0.00  0.00    +0.000 A 
ATOM      5  C   UNL     1      49.073   6.157  15.848  0.00  0.00    +0.000 A 
ATOM      6  N   UNL     1      48.174   6.084  14.840  0.00  0.00    +0.000 NA
ENDROOT
BRANCH   5   7
ATOM      7  N   UNL     1      48.949   5.332  16.956  0.00  0.00    +0.000 N 
ATOM      8  C   UNL     1      48.769   5.937  18.287  0.00  0.00    +0.000 C 
ATOM      9  C   UNL     1      49.230   4.917  19.344  0.00  0.00    +0.000 C 
ATOM     10  O   UNL     1      48.510   3.677  19.228  0.00  0.00    +0.000 OA
ATOM     11  C   UNL     1      48.677   3.113  17.912  0.00  0.00    +0.000 C 
ATOM     12  C   UNL     1      48.192   4.080  16.812  0.00  0.00    +0.000 C 
ENDBRANCH   5   7
BRANCH   1  13
ATOM     13  C   UNL     1      47.343   6.877  12.649  0.00  0.00    +0.000 C 
BRANCH  13  19
ATOM     14  F   UNL     1      42.873   2.477  11.769  0.00  0.00    +0.000 F 
ATOM     15  C   UNL     1      43.661   3.500  12.114  0.00  0.00    +0.000 A 
ATOM     16  C   UNL     1      44.946   3.617  11.660  0.00  0.00    +0.000 A 
ATOM     17  N   UNL     1      45.753   4.658  11.971  0.00  0.00    +0.000 NA
ATOM     18  C   UNL     1      45.251   5.592  12.798  0.00  0.00    +0.000 A 
ATOM     19  N   UNL     1      45.992   6.694  13.124  0.00  0.00    +0.000 N 
ATOM     20  N   UNL     1      44.017   5.537  13.322  0.00  0.00    +0.000 NA
ATOM     21  C   UNL     1      43.235   4.499  12.949  0.00  0.00    +0.000 A 
ATOM     22  H   UNL     1      45.734   7.092  14.017  0.00  0.00    +0.000 HD
ENDBRANCH  13  19
ENDBRANCH   1  13
TORSDOF 3
ENDMDL
