MODEL 1
REMARK VINA RESULT:    -8.604      0.000      0.000
REMARK INTER + INTRA:         -12.657
REMARK INTER:                 -11.622
REMARK INTRA:                  -1.034
REMARK UNBOUND:                -1.034
REMARK  Name = 
REMARK  6 active torsions:
REMARK  status: ('A' for Active; 'I' for Inactive)
REMARK    1  A    between atoms: C_2  and  C_4
REMARK    2  A    between atoms: C_7  and  O_8
REMARK    3  A    between atoms: O_8  and  C_9
REMARK    4  A    between atoms: C_9  and  C_10
REMARK    5  A    between atoms: C_10  and  C_11
REMARK    6  A    between atoms: C_16  and  C_17
REMARK                            x       y       z     vdW  Elec       q    Type
REMARK                         _______ _______ _______ _____ _____    ______ ____
ROOT
ATOM      1  C   UNL     1      43.790   4.841  12.284  0.00  0.00    +0.000 C 
ENDROOT
BRANCH   1   2
ATOM      2  C   UNL     1      45.202   5.254  12.620  0.00  0.00    +0.000 A 
ATOM      3  C   UNL     1      45.902   6.134  11.791  0.00  0.00    +0.000 A 
ATOM      4  C   UNL     1      47.177   6.547  12.154  0.00  0.00    +0.000 A 
ATOM      5  F   UNL     1      47.843   7.395  11.360  0.00  0.00    +0.000 F 
ATOM      6  C   UNL     1      47.767   6.115  13.339  0.00  0.00    +0.000 A 
ATOM      7  C   UNL     1      47.083   5.255  14.214  0.00  0.00    +0.000 A 
ATOM      8  C   UNL     1      45.799   4.827  13.820  0.00  0.00    +0.000 A 
BRANCH   7   9
ATOM      9  C   UNL     1      47.664   4.850  15.512  0.00  0.00    +0.000 A 
ATOM     10  C   UNL     1      47.310   3.655  16.158  0.00  0.00    +0.000 A 
ATOM     11  C   UNL     1      47.858   3.325  17.398  0.00  0.00    +0.000 A 
ATOM     12  C   UNL     1      48.764   4.198  17.971  0.00  0.00    +0.000 A 
ATOM     13  N   UNL     1      49.143   5.356  17.397  0.00  0.00    +0.000 NA
ATOM     14  C   UNL     1      48.584   5.651  16.196  0.00  0.00    +0.000 A 
ENDBRANCH   7   9
ENDBRANCH   1   2
BRANCH   1  15
ATOM     15  C   UNL     1      43.578   4.842  10.772  0.00  0.00    +0.000 C 
BRANCH  15  16
ATOM     16  O   UNL     1      43.509   3.498  10.295  0.00  0.00    +0.000 OA
BRANCH  16  20
ATOM     17  C   UNL     1      46.493   2.632   7.504  0.00  0.00    +0.000 A 
ATOM     18  C   UNL     1      45.924   1.576   8.222  0.00  0.00    +0.000 A 
ATOM     19  C   UNL     1      44.922   1.827   9.164  0.00  0.00    +0.000 A 
ATOM     20  C   UNL     1      44.480   3.133   9.400  0.00  0.00    +0.000 A 
ATOM     21  C   UNL     1      45.060   4.187   8.690  0.00  0.00    +0.000 A 
ATOM     22  C   UNL     1      46.068   3.940   7.749  0.00  0.00    +0.000 A 
BRANCH  17  24
ATOM     23  N   UNL     1      47.508   3.126   5.346  0.00  0.00    +0.000 N 
ATOM     24  C   UNL     1      47.566   2.400   6.503  0.00  0.00    +0.000 C 
ATOM     25  O   UNL     1      48.481   1.614   6.711  0.00  0.00    +0.000 OA
ATOM     26  H   UNL     1      48.294   3.029   4.716  0.00  0.00    +0.000 HD
ATOM     27  H   UNL     1      46.928   3.947   5.248  0.00  0.00    +0.000 HD
ENDBRANCH  17  24
ENDBRANCH  16  20
ENDBRANCH  15  16
ENDBRANCH   1  15
TORSDOF 6
ENDMDL
MODEL 2
REMARK VINA RESULT:    -8.529      2.437      3.829
REMARK INTER + INTRA:         -12.555
REMARK INTER:                 -11.434
REMARK INTRA:                  -1.120
REMARK UNBOUND:                -1.034
REMARK  Name = 
REMARK  6 active torsions:
REMARK  status: ('A' for Active; 'I' for Inactive)
REMARK    1  A    between atoms: C_2  and  C_4
REMARK    2  A    between atoms: C_7  and  O_8
REMARK    3  A    between atoms: O_8  and  C_9
REMARK    4  A    between atoms: C_9  and  C_10
REMARK    5  A    between atoms: C_10  and  C_11
REMARK    6  A    between atoms: C_16  and  C_17
REMARK                            x       y       z     vdW  Elec       q    Type
REMARK                         _______ _______ _______ _____ _____    ______ ____
ROOT
ATOM      1  C   UNL     1      43.261   5.326  12.238  0.00  0.00    +0.000 C 
ENDROOT
BRANCH   1   2
ATOM      2  C   UNL     1      44.706   5.436  12.657  0.00  0.00    +0.000 A 
ATOM      3  C   UNL     1      45.344   4.375  13.304  0.00  0.00    +0.000 A 
ATOM      4  C   UNL     1      46.691   4.478  13.623  0.00  0.00    +0.000 A 
ATOM      5  F   UNL     1      47.300   3.455  14.238  0.00  0.00    +0.000 F 
ATOM      6  C   UNL     1      47.427   5.614  13.297  0.00  0.00    +0.000 A 
ATOM      7  C   UNL     1      46.830   6.690  12.619  0.00  0.00    +0.000 A 
ATOM      8  C   UNL     1      45.456   6.579  12.322  0.00  0.00    +0.000 A 
BRANCH   7   9
ATOM      9  C   UNL     1      47.614   7.870  12.196  0.00  0.00    +0.000 A 
ATOM     10  C   UNL     1      48.959   7.783  11.806  0.00  0.00    +0.000 A 
ATOM     11  C   UNL     1      49.673   8.926  11.444  0.00  0.00    +0.000 A 
ATOM     12  C   UNL     1      49.021  10.146  11.471  0.00  0.00    +0.000 A 
ATOM     13  N   UNL     1      47.732  10.289  11.834  0.00  0.00    +0.000 NA
ATOM     14  C   UNL     1      47.070   9.159  12.188  0.00  0.00    +0.000 A 
ENDBRANCH   7   9
ENDBRANCH   1   2
BRANCH   1  15
ATOM     15  C   UNL     1      43.162   4.970  10.756  0.00  0.00    +0.000 C 
BRANCH  15  16
ATOM     16  O   UNL     1      43.549   3.609  10.562  0.00  0.00    +0.000 OA
BRANCH  16  20
ATOM     17  C   UNL     1      46.419   2.697   7.669  0.00  0.00    +0.000 A 
ATOM     18  C   UNL     1      46.108   4.040   7.900  0.00  0.00    +0.000 A 
ATOM     19  C   UNL     1      45.153   4.384   8.861  0.00  0.00    +0.000 A 
ATOM     20  C   UNL     1      44.499   3.392   9.598  0.00  0.00    +0.000 A 
ATOM     21  C   UNL     1      44.803   2.051   9.357  0.00  0.00    +0.000 A 
ATOM     22  C   UNL     1      45.756   1.701   8.391  0.00  0.00    +0.000 A 
BRANCH  17  24
ATOM     23  N   UNL     1      47.576   3.121   5.567  0.00  0.00    +0.000 N 
ATOM     24  C   UNL     1      47.422   2.297   6.648  0.00  0.00    +0.000 C 
ATOM     25  O   UNL     1      48.104   1.289   6.777  0.00  0.00    +0.000 OA
ATOM     26  H   UNL     1      48.327   2.889   4.930  0.00  0.00    +0.000 HD
ATOM     27  H   UNL     1      47.224   4.067   5.552  0.00  0.00    +0.000 HD
ENDBRANCH  17  24
ENDBRANCH  16  20
ENDBRANCH  15  16
ENDBRANCH   1  15
TORSDOF 6
ENDMDL
MODEL 3
REMARK VINA RESULT:    -8.419      2.923      4.679
REMARK INTER + INTRA:         -12.407
REMARK INTER:                 -11.234
REMARK INTRA:                  -1.173
REMARK UNBOUND:                -1.034
REMARK  Name = 
REMARK  6 active torsions:
REMARK  status: ('A' for Active; 'I' for Inactive)
REMARK    1  A    between atoms: C_2  and  C_4
REMARK    2  A    between atoms: C_7  and  O_8
REMARK    3  A    between atoms: O_8  and  C_9
REMARK    4  A    between atoms: C_9  and  C_10
REMARK    5  A    between atoms: C_10  and  C_11
REMARK    6  A    between atoms: C_16  and  C_17
REMARK                            x       y       z     vdW  Elec       q    Type
REMARK                         _______ _______ _______ _____ _____    ______ ____
ROOT
ATOM      1  C   UNL     1      43.534   4.025  12.944  0.00  0.00    +0.000 C 
ENDROOT
BRANCH   1   2
ATOM      2  C   UNL     1      44.615   5.072  12.839  0.00  0.00    +0.000 A 
ATOM      3  C   UNL     1      45.952   4.741  13.071  0.00  0.00    +0.000 A 
ATOM      4  C   UNL     1      46.935   5.708  12.907  0.00  0.00    +0.000 A 
ATOM      5  F   UNL     1      48.216   5.385  13.125  0.00  0.00    +0.000 F 
ATOM      6  C   UNL     1      46.616   7.001  12.498  0.00  0.00    +0.000 A 
ATOM      7  C   UNL     1      45.288   7.364  12.223  0.00  0.00    +0.000 A 
ATOM      8  C   UNL     1      44.299   6.377  12.417  0.00  0.00    +0.000 A 
BRANCH   7   9
ATOM      9  C   UNL     1      44.941   8.708  11.713  0.00  0.00    +0.000 A 
ATOM     10  C   UNL     1      45.707   9.847  12.004  0.00  0.00    +0.000 A 
ATOM     11  C   UNL     1      45.328  11.103  11.529  0.00  0.00    +0.000 A 
ATOM     12  C   UNL     1      44.184  11.196  10.757  0.00  0.00    +0.000 A 
ATOM     13  N   UNL     1      43.413  10.138  10.442  0.00  0.00    +0.000 NA
ATOM     14  C   UNL     1      43.806   8.933  10.928  0.00  0.00    +0.000 A 
ENDBRANCH   7   9
ENDBRANCH   1   2
BRANCH   1  15
ATOM     15  C   UNL     1      43.697   2.977  11.845  0.00  0.00    +0.000 C 
BRANCH  15  16
ATOM     16  O   UNL     1      43.440   3.572  10.573  0.00  0.00    +0.000 OA
BRANCH  16  20
ATOM     17  C   UNL     1      46.364   2.724   7.713  0.00  0.00    +0.000 A 
ATOM     18  C   UNL     1      45.987   4.055   7.907  0.00  0.00    +0.000 A 
ATOM     19  C   UNL     1      45.013   4.378   8.856  0.00  0.00    +0.000 A 
ATOM     20  C   UNL     1      44.404   3.376   9.618  0.00  0.00    +0.000 A 
ATOM     21  C   UNL     1      44.774   2.045   9.413  0.00  0.00    +0.000 A 
ATOM     22  C   UNL     1      45.746   1.716   8.460  0.00  0.00    +0.000 A 
BRANCH  17  24
ATOM     23  N   UNL     1      47.460   3.105   5.571  0.00  0.00    +0.000 N 
ATOM     24  C   UNL     1      47.390   2.346   6.707  0.00  0.00    +0.000 C 
ATOM     25  O   UNL     1      48.160   1.413   6.893  0.00  0.00    +0.000 OA
ATOM     26  H   UNL     1      48.222   2.897   4.940  0.00  0.00    +0.000 HD
ATOM     27  H   UNL     1      47.024   4.013   5.498  0.00  0.00    +0.000 HD
ENDBRANCH  17  24
ENDBRANCH  16  20
ENDBRANCH  15  16
ENDBRANCH   1  15
TORSDOF 6
ENDMDL
MODEL 4
REMARK VINA RESULT:    -7.824      1.703      2.387
REMARK INTER + INTRA:         -11.603
REMARK INTER:                 -10.798
REMARK INTRA:                  -0.804
REMARK UNBOUND:                -1.034
REMARK  Name = 
REMARK  6 active torsions:
REMARK  status: ('A' for Active; 'I' for Inactive)
REMARK    1  A    between atoms: C_2  and  C_4
REMARK    2  A    between atoms: C_7  and  O_8
REMARK    3  A    between atoms: O_8  and  C_9
REMARK    4  A    between atoms: C_9  and  C_10
REMARK    5  A    between atoms: C_10  and  C_11
REMARK    6  A    between atoms: C_16  and  C_17
REMARK                            x       y       z     vdW  Elec       q    Type
REMARK                         _______ _______ _______ _____ _____    ______ ____
ROOT
ATOM      1  C   UNL     1      44.578   4.815  12.065  0.00  0.00    +0.000 C 
ENDROOT
BRANCH   1   2
ATOM      2  C   UNL     1      45.326   6.107  12.282  0.00  0.00    +0.000 A 
ATOM      3  C   UNL     1      44.775   7.326  11.879  0.00  0.00    +0.000 A 
ATOM      4  C   UNL     1      45.455   8.506  12.147  0.00  0.00    +0.000 A 
ATOM      5  F   UNL     1      44.920   9.673  11.764  0.00  0.00    +0.000 F 
ATOM      6  C   UNL     1      46.672   8.503  12.824  0.00  0.00    +0.000 A 
ATOM      7  C   UNL     1      47.243   7.301  13.273  0.00  0.00    +0.000 A 
ATOM      8  C   UNL     1      46.551   6.109  12.974  0.00  0.00    +0.000 A 
BRANCH   7   9
ATOM      9  C   UNL     1      48.494   7.285  14.062  0.00  0.00    +0.000 A 
ATOM     10  C   UNL     1      49.617   8.052  13.714  0.00  0.00    +0.000 A 
ATOM     11  C   UNL     1      50.789   7.984  14.468  0.00  0.00    +0.000 A 
ATOM     12  C   UNL     1      50.815   7.150  15.571  0.00  0.00    +0.000 A 
ATOM     13  N   UNL     1      49.768   6.395  15.955  0.00  0.00    +0.000 NA
ATOM     14  C   UNL     1      48.647   6.479  15.195  0.00  0.00    +0.000 A 
ENDBRANCH   7   9
ENDBRANCH   1   2
BRANCH   1  15
ATOM     15  C   UNL     1      43.751   4.887  10.783  0.00  0.00    +0.000 C 
BRANCH  15  16
ATOM     16  O   UNL     1      43.591   3.576  10.240  0.00  0.00    +0.000 OA
BRANCH  16  20
ATOM     17  C   UNL     1      46.527   2.622   7.427  0.00  0.00    +0.000 A 
ATOM     18  C   UNL     1      45.984   1.592   8.199  0.00  0.00    +0.000 A 
ATOM     19  C   UNL     1      44.999   1.873   9.150  0.00  0.00    +0.000 A 
ATOM     20  C   UNL     1      44.548   3.183   9.341  0.00  0.00    +0.000 A 
ATOM     21  C   UNL     1      45.102   4.211   8.576  0.00  0.00    +0.000 A 
ATOM     22  C   UNL     1      46.093   3.936   7.625  0.00  0.00    +0.000 A 
BRANCH  17  24
ATOM     23  N   UNL     1      47.518   3.069   5.246  0.00  0.00    +0.000 N 
ATOM     24  C   UNL     1      47.582   2.359   6.414  0.00  0.00    +0.000 C 
ATOM     25  O   UNL     1      48.488   1.563   6.621  0.00  0.00    +0.000 OA
ATOM     26  H   UNL     1      48.293   2.951   4.608  0.00  0.00    +0.000 HD
ATOM     27  H   UNL     1      46.949   3.897   5.145  0.00  0.00    +0.000 HD
ENDBRANCH  17  24
ENDBRANCH  16  20
ENDBRANCH  15  16
ENDBRANCH   1  15
TORSDOF 6
ENDMDL
MODEL 5
REMARK VINA RESULT:    -7.805      2.810      7.921
REMARK INTER + INTRA:         -11.577
REMARK INTER:                 -10.493
REMARK INTRA:                  -1.084
REMARK UNBOUND:                -1.034
REMARK  Name = 
REMARK  6 active torsions:
REMARK  status: ('A' for Active; 'I' for Inactive)
REMARK    1  A    between atoms: C_2  and  C_4
REMARK    2  A    between atoms: C_7  and  O_8
REMARK    3  A    between atoms: O_8  and  C_9
REMARK    4  A    between atoms: C_9  and  C_10
REMARK    5  A    between atoms: C_10  and  C_11
REMARK    6  A    between atoms: C_16  and  C_17
REMARK                            x       y       z     vdW  Elec       q    Type
REMARK                         _______ _______ _______ _____ _____    ______ ____
ROOT
ATOM      1  C   UNL     1      44.795   6.708  11.038  0.00  0.00    +0.000 C 
ENDROOT
BRANCH   1   2
ATOM      2  C   UNL     1      44.697   5.236  10.717  0.00  0.00    +0.000 A 
ATOM      3  C   UNL     1      43.822   4.410  11.426  0.00  0.00    +0.000 A 
ATOM      4  C   UNL     1      43.705   3.073  11.069  0.00  0.00    +0.000 A 
ATOM      5  F   UNL     1      42.861   2.284  11.747  0.00  0.00    +0.000 F 
ATOM      6  C   UNL     1      44.432   2.541  10.008  0.00  0.00    +0.000 A 
ATOM      7  C   UNL     1      45.299   3.347   9.251  0.00  0.00    +0.000 A 
ATOM      8  C   UNL     1      45.423   4.697   9.640  0.00  0.00    +0.000 A 
BRANCH   7   9
ATOM      9  C   UNL     1      46.018   2.817   8.073  0.00  0.00    +0.000 A 
ATOM     10  C   UNL     1      46.277   3.594   6.933  0.00  0.00    +0.000 A 
ATOM     11  C   UNL     1      46.931   3.046   5.829  0.00  0.00    +0.000 A 
ATOM     12  C   UNL     1      47.326   1.722   5.888  0.00  0.00    +0.000 A 
ATOM     13  N   UNL     1      47.108   0.930   6.955  0.00  0.00    +0.000 NA
ATOM     14  C   UNL     1      46.462   1.492   8.008  0.00  0.00    +0.000 A 
ENDBRANCH   7   9
ENDBRANCH   1   2
BRANCH   1  15
ATOM     15  C   UNL     1      45.504   6.916  12.374  0.00  0.00    +0.000 C 
BRANCH  15  16
ATOM     16  O   UNL     1      46.760   6.235  12.363  0.00  0.00    +0.000 OA
BRANCH  16  20
ATOM     17  C   UNL     1      47.727   4.146  15.847  0.00  0.00    +0.000 A 
ATOM     18  C   UNL     1      48.121   5.483  15.740  0.00  0.00    +0.000 A 
ATOM     19  C   UNL     1      47.814   6.214  14.589  0.00  0.00    +0.000 A 
ATOM     20  C   UNL     1      47.114   5.619  13.535  0.00  0.00    +0.000 A 
ATOM     21  C   UNL     1      46.733   4.280  13.640  0.00  0.00    +0.000 A 
ATOM     22  C   UNL     1      47.043   3.541  14.789  0.00  0.00    +0.000 A 
BRANCH  17  24
ATOM     23  N   UNL     1      46.996   2.760  17.713  0.00  0.00    +0.000 N 
ATOM     24  C   UNL     1      48.045   3.338  17.052  0.00  0.00    +0.000 C 
ATOM     25  O   UNL     1      49.198   3.169  17.428  0.00  0.00    +0.000 OA
ATOM     26  H   UNL     1      47.234   2.137  18.473  0.00  0.00    +0.000 HD
ATOM     27  H   UNL     1      46.079   2.668  17.299  0.00  0.00    +0.000 HD
ENDBRANCH  17  24
ENDBRANCH  16  20
ENDBRANCH  15  16
ENDBRANCH   1  15
TORSDOF 6
ENDMDL
MODEL 6
REMARK VINA RESULT:    -7.478      2.749      7.759
REMARK INTER + INTRA:         -11.135
REMARK INTER:                 -10.332
REMARK INTRA:                  -0.803
REMARK UNBOUND:                -1.034
REMARK  Name = 
REMARK  6 active torsions:
REMARK  status: ('A' for Active; 'I' for Inactive)
REMARK    1  A    between atoms: C_2  and  C_4
REMARK    2  A    between atoms: C_7  and  O_8
REMARK    3  A    between atoms: O_8  and  C_9
REMARK    4  A    between atoms: C_9  and  C_10
REMARK    5  A    between atoms: C_10  and  C_11
REMARK    6  A    between atoms: C_16  and  C_17
REMARK                            x       y       z     vdW  Elec       q    Type
REMARK                         _______ _______ _______ _____ _____    ______ ____
ROOT
ATOM      1  C   UNL     1      46.208   7.630  11.839  0.00  0.00    +0.000 C 
ENDROOT
BRANCH   1   2
ATOM      2  C   UNL     1      45.326   6.513  11.338  0.00  0.00    +0.000 A 
ATOM      3  C   UNL     1      43.975   6.462  11.686  0.00  0.00    +0.000 A 
ATOM      4  C   UNL     1      43.171   5.458  11.162  0.00  0.00    +0.000 A 
ATOM      5  F   UNL     1      41.874   5.415  11.494  0.00  0.00    +0.000 F 
ATOM      6  C   UNL     1      43.682   4.508  10.282  0.00  0.00    +0.000 A 
ATOM      7  C   UNL     1      45.028   4.544   9.883  0.00  0.00    +0.000 A 
ATOM      8  C   UNL     1      45.837   5.556  10.442  0.00  0.00    +0.000 A 
BRANCH   7   9
ATOM      9  C   UNL     1      45.568   3.591   8.889  0.00  0.00    +0.000 A 
ATOM     10  C   UNL     1      45.496   2.200   9.059  0.00  0.00    +0.000 A 
ATOM     11  C   UNL     1      46.046   1.336   8.112  0.00  0.00    +0.000 A 
ATOM     12  C   UNL     1      46.655   1.883   6.997  0.00  0.00    +0.000 A 
ATOM     13  N   UNL     1      46.751   3.208   6.779  0.00  0.00    +0.000 NA
ATOM     14  C   UNL     1      46.213   4.020   7.725  0.00  0.00    +0.000 A 
ENDBRANCH   7   9
ENDBRANCH   1   2
BRANCH   1  15
ATOM     15  C   UNL     1      47.656   7.158  11.952  0.00  0.00    +0.000 C 
BRANCH  15  16
ATOM     16  O   UNL     1      48.135   7.389  13.277  0.00  0.00    +0.000 OA
BRANCH  16  20
ATOM     17  C   UNL     1      47.684   4.399  16.158  0.00  0.00    +0.000 A 
ATOM     18  C   UNL     1      47.033   4.246  14.930  0.00  0.00    +0.000 A 
ATOM     19  C   UNL     1      47.162   5.226  13.942  0.00  0.00    +0.000 A 
ATOM     20  C   UNL     1      47.938   6.366  14.169  0.00  0.00    +0.000 A 
ATOM     21  C   UNL     1      48.577   6.522  15.400  0.00  0.00    +0.000 A 
ATOM     22  C   UNL     1      48.447   5.545  16.396  0.00  0.00    +0.000 A 
BRANCH  17  24
ATOM     23  N   UNL     1      48.693   3.076  17.937  0.00  0.00    +0.000 N 
ATOM     24  C   UNL     1      47.561   3.381  17.233  0.00  0.00    +0.000 C 
ATOM     25  O   UNL     1      46.489   2.854  17.500  0.00  0.00    +0.000 OA
ATOM     26  H   UNL     1      48.576   2.454  18.726  0.00  0.00    +0.000 HD
ATOM     27  H   UNL     1      49.518   3.658  17.917  0.00  0.00    +0.000 HD
ENDBRANCH  17  24
ENDBRANCH  16  20
ENDBRANCH  15  16
ENDBRANCH   1  15
TORSDOF 6
ENDMDL
MODEL 7
REMARK VINA RESULT:    -7.365      3.890      7.558
REMARK INTER + INTRA:         -10.983
REMARK INTER:                 -10.131
REMARK INTRA:                  -0.852
REMARK UNBOUND:                -1.034
REMARK  Name = 
REMARK  6 active torsions:
REMARK  status: ('A' for Active; 'I' for Inactive)
REMARK    1  A    between atoms: C_2  and  C_4
REMARK    2  A    between atoms: C_7  and  O_8
REMARK    3  A    between atoms: O_8  and  C_9
REMARK    4  A    between atoms: C_9  and  C_10
REMARK    5  A    between atoms: C_10  and  C_11
REMARK    6  A    between atoms: C_16  and  C_17
REMARK                            x       y       z     vdW  Elec       q    Type
REMARK                         _______ _______ _______ _____ _____    ______ ____
ROOT
ATOM      1  C   UNL     1      44.597   6.552  11.202  0.00  0.00    +0.000 C 
ENDROOT
BRANCH   1   2
ATOM      2  C   UNL     1      44.568   5.091  10.824  0.00  0.00    +0.000 A 
ATOM      3  C   UNL     1      43.734   4.197  11.500  0.00  0.00    +0.000 A 
ATOM      4  C   UNL     1      43.680   2.871  11.092  0.00  0.00    +0.000 A 
ATOM      5  F   UNL     1      42.874   2.018  11.739  0.00  0.00    +0.000 F 
ATOM      6  C   UNL     1      44.430   2.415  10.011  0.00  0.00    +0.000 A 
ATOM      7  C   UNL     1      45.256   3.289   9.287  0.00  0.00    +0.000 A 
ATOM      8  C   UNL     1      45.318   4.628   9.727  0.00  0.00    +0.000 A 
BRANCH   7   9
ATOM      9  C   UNL     1      45.998   2.840   8.089  0.00  0.00    +0.000 A 
ATOM     10  C   UNL     1      46.211   3.669   6.977  0.00  0.00    +0.000 A 
ATOM     11  C   UNL     1      46.889   3.195   5.853  0.00  0.00    +0.000 A 
ATOM     12  C   UNL     1      47.354   1.892   5.865  0.00  0.00    +0.000 A 
ATOM     13  N   UNL     1      47.182   1.053   6.905  0.00  0.00    +0.000 NA
ATOM     14  C   UNL     1      46.511   1.543   7.978  0.00  0.00    +0.000 A 
ENDBRANCH   7   9
ENDBRANCH   1   2
BRANCH   1  15
ATOM     15  C   UNL     1      45.025   6.718  12.658  0.00  0.00    +0.000 C 
BRANCH  15  16
ATOM     16  O   UNL     1      45.596   8.013  12.847  0.00  0.00    +0.000 OA
BRANCH  16  20
ATOM     17  C   UNL     1      49.666   8.138  11.921  0.00  0.00    +0.000 A 
ATOM     18  C   UNL     1      48.894   9.280  11.689  0.00  0.00    +0.000 A 
ATOM     19  C   UNL     1      47.529   9.276  11.988  0.00  0.00    +0.000 A 
ATOM     20  C   UNL     1      46.921   8.133  12.517  0.00  0.00    +0.000 A 
ATOM     21  C   UNL     1      47.693   6.990  12.736  0.00  0.00    +0.000 A 
ATOM     22  C   UNL     1      49.061   6.988  12.434  0.00  0.00    +0.000 A 
BRANCH  17  24
ATOM     23  N   UNL     1      51.544   7.159  10.718  0.00  0.00    +0.000 N 
ATOM     24  C   UNL     1      51.118   8.107  11.607  0.00  0.00    +0.000 C 
ATOM     25  O   UNL     1      51.900   8.910  12.098  0.00  0.00    +0.000 OA
ATOM     26  H   UNL     1      52.516   7.209  10.441  0.00  0.00    +0.000 HD
ATOM     27  H   UNL     1      50.910   6.657  10.114  0.00  0.00    +0.000 HD
ENDBRANCH  17  24
ENDBRANCH  16  20
ENDBRANCH  15  16
ENDBRANCH   1  15
TORSDOF 6
ENDMDL
MODEL 8
REMARK VINA RESULT:    -7.069      3.403      8.445
REMARK INTER + INTRA:         -10.583
REMARK INTER:                  -9.990
REMARK INTRA:                  -0.593
REMARK UNBOUND:                -1.034
REMARK  Name = 
REMARK  6 active torsions:
REMARK  status: ('A' for Active; 'I' for Inactive)
REMARK    1  A    between atoms: C_2  and  C_4
REMARK    2  A    between atoms: C_7  and  O_8
REMARK    3  A    between atoms: O_8  and  C_9
REMARK    4  A    between atoms: C_9  and  C_10
REMARK    5  A    between atoms: C_10  and  C_11
REMARK    6  A    between atoms: C_16  and  C_17
REMARK                            x       y       z     vdW  Elec       q    Type
REMARK                         _______ _______ _______ _____ _____    ______ ____
ROOT
ATOM      1  C   UNL     1      46.090   5.213  14.015  0.00  0.00    +0.000 C 
ENDROOT
BRANCH   1   2
ATOM      2  C   UNL     1      45.160   4.985  12.849  0.00  0.00    +0.000 A 
ATOM      3  C   UNL     1      43.842   5.446  12.888  0.00  0.00    +0.000 A 
ATOM      4  C   UNL     1      43.026   5.279  11.777  0.00  0.00    +0.000 A 
ATOM      5  F   UNL     1      41.764   5.727  11.816  0.00  0.00    +0.000 F 
ATOM      6  C   UNL     1      43.500   4.675  10.615  0.00  0.00    +0.000 A 
ATOM      7  C   UNL     1      44.828   4.227  10.525  0.00  0.00    +0.000 A 
ATOM      8  C   UNL     1      45.638   4.383  11.670  0.00  0.00    +0.000 A 
BRANCH   7   9
ATOM      9  C   UNL     1      45.370   3.655   9.274  0.00  0.00    +0.000 A 
ATOM     10  C   UNL     1      45.508   2.273   9.072  0.00  0.00    +0.000 A 
ATOM     11  C   UNL     1      46.054   1.776   7.888  0.00  0.00    +0.000 A 
ATOM     12  C   UNL     1      46.447   2.677   6.915  0.00  0.00    +0.000 A 
ATOM     13  N   UNL     1      46.334   4.012   7.051  0.00  0.00    +0.000 NA
ATOM     14  C   UNL     1      45.808   4.462   8.218  0.00  0.00    +0.000 A 
ENDBRANCH   7   9
ENDBRANCH   1   2
BRANCH   1  15
ATOM     15  C   UNL     1      46.911   3.956  14.295  0.00  0.00    +0.000 C 
BRANCH  15  16
ATOM     16  O   UNL     1      46.834   3.631  15.684  0.00  0.00    +0.000 OA
BRANCH  16  20
ATOM     17  C   UNL     1      50.476   3.694  17.728  0.00  0.00    +0.000 A 
ATOM     18  C   UNL     1      49.960   2.460  17.321  0.00  0.00    +0.000 A 
ATOM     19  C   UNL     1      48.744   2.400  16.634  0.00  0.00    +0.000 A 
ATOM     20  C   UNL     1      48.031   3.568  16.348  0.00  0.00    +0.000 A 
ATOM     21  C   UNL     1      48.543   4.799  16.766  0.00  0.00    +0.000 A 
ATOM     22  C   UNL     1      49.759   4.864  17.460  0.00  0.00    +0.000 A 
BRANCH  17  24
ATOM     23  N   UNL     1      52.496   2.647  18.597  0.00  0.00    +0.000 N 
ATOM     24  C   UNL     1      51.760   3.793  18.468  0.00  0.00    +0.000 C 
ATOM     25  O   UNL     1      52.162   4.857  18.921  0.00  0.00    +0.000 OA
ATOM     26  H   UNL     1      53.410   2.747  19.018  0.00  0.00    +0.000 HD
ATOM     27  H   UNL     1      52.327   1.827  18.033  0.00  0.00    +0.000 HD
ENDBRANCH  17  24
ENDBRANCH  16  20
ENDBRANCH  15  16
ENDBRANCH   1  15
TORSDOF 6
ENDMDL
MODEL 9
REMARK VINA RESULT:    -6.656      3.312      7.803
REMARK INTER + INTRA:         -10.025
REMARK INTER:                  -8.900
REMARK INTRA:                  -1.125
REMARK UNBOUND:                -1.034
REMARK  Name = 
REMARK  6 active torsions:
REMARK  status: ('A' for Active; 'I' for Inactive)
REMARK    1  A    between atoms: C_2  and  C_4
REMARK    2  A    between atoms: C_7  and  O_8
REMARK    3  A    between atoms: O_8  and  C_9
REMARK    4  A    between atoms: C_9  and  C_10
REMARK    5  A    between atoms: C_10  and  C_11
REMARK    6  A    between atoms: C_16  and  C_17
REMARK                            x       y       z     vdW  Elec       q    Type
REMARK                         _______ _______ _______ _____ _____    ______ ____
ROOT
ATOM      1  C   UNL     1      49.204   8.218  12.173  0.00  0.00    +0.000 C 
ENDROOT
BRANCH   1   2
ATOM      2  C   UNL     1      47.711   8.019  12.086  0.00  0.00    +0.000 A 
ATOM      3  C   UNL     1      46.834   9.058  12.406  0.00  0.00    +0.000 A 
ATOM      4  C   UNL     1      45.466   8.868  12.257  0.00  0.00    +0.000 A 
ATOM      5  F   UNL     1      44.629   9.869  12.559  0.00  0.00    +0.000 F 
ATOM      6  C   UNL     1      44.950   7.667  11.779  0.00  0.00    +0.000 A 
ATOM      7  C   UNL     1      45.801   6.610  11.417  0.00  0.00    +0.000 A 
ATOM      8  C   UNL     1      47.185   6.809  11.595  0.00  0.00    +0.000 A 
BRANCH   7   9
ATOM      9  C   UNL     1      45.274   5.356  10.834  0.00  0.00    +0.000 A 
ATOM     10  C   UNL     1      44.594   4.396  11.598  0.00  0.00    +0.000 A 
ATOM     11  C   UNL     1      44.141   3.212  11.015  0.00  0.00    +0.000 A 
ATOM     12  C   UNL     1      44.370   3.011   9.666  0.00  0.00    +0.000 A 
ATOM     13  N   UNL     1      45.014   3.899   8.884  0.00  0.00    +0.000 NA
ATOM     14  C   UNL     1      45.449   5.035   9.484  0.00  0.00    +0.000 A 
ENDBRANCH   7   9
ENDBRANCH   1   2
BRANCH   1  15
ATOM     15  C   UNL     1      49.782   7.413  13.335  0.00  0.00    +0.000 C 
BRANCH  15  16
ATOM     16  O   UNL     1      49.151   7.807  14.554  0.00  0.00    +0.000 OA
BRANCH  16  20
ATOM     17  C   UNL     1      48.036   4.617  17.008  0.00  0.00    +0.000 A 
ATOM     18  C   UNL     1      48.958   5.545  17.499  0.00  0.00    +0.000 A 
ATOM     19  C   UNL     1      49.354   6.627  16.707  0.00  0.00    +0.000 A 
ATOM     20  C   UNL     1      48.837   6.790  15.418  0.00  0.00    +0.000 A 
ATOM     21  C   UNL     1      47.925   5.854  14.926  0.00  0.00    +0.000 A 
ATOM     22  C   UNL     1      47.529   4.766  15.714  0.00  0.00    +0.000 A 
BRANCH  17  24
ATOM     23  N   UNL     1      48.330   3.165  18.942  0.00  0.00    +0.000 N 
ATOM     24  C   UNL     1      47.601   3.452  17.820  0.00  0.00    +0.000 C 
ATOM     25  O   UNL     1      46.617   2.789  17.520  0.00  0.00    +0.000 OA
ATOM     26  H   UNL     1      47.968   2.430  19.536  0.00  0.00    +0.000 HD
ATOM     27  H   UNL     1      48.978   3.822  19.351  0.00  0.00    +0.000 HD
ENDBRANCH  17  24
ENDBRANCH  16  20
ENDBRANCH  15  16
ENDBRANCH   1  15
TORSDOF 6
ENDMDL
