MODEL 1
REMARK VINA RESULT:    -8.108      0.000      0.000
REMARK INTER + INTRA:         -12.271
REMARK INTER:                 -10.952
REMARK INTRA:                  -1.319
REMARK UNBOUND:                -1.319
REMARK  Name = 
REMARK  7 active torsions:
REMARK  status: ('A' for Active; 'I' for Inactive)
REMARK    1  A    between atoms: C_1  and  N_2
REMARK    2  A    between atoms: C_4  and  C_5
REMARK    3  A    between atoms: N_7  and  C_8
REMARK    4  A    between atoms: C_8  and  C_9
REMARK    5  A    between atoms: C_12  and  C_13
REMARK    6  A    between atoms: C_13  and  C_14
REMARK    7  A    between atoms: C_14  and  N_15
REMARK                            x       y       z     vdW  Elec       q    Type
REMARK                         _______ _______ _______ _____ _____    ______ ____
ROOT
ATOM      1  C   UNL     1      46.922   7.906  12.685  0.00  0.00    +0.000 C 
ENDROOT
BRANCH   1   2
ATOM      2  C   UNL     1      46.026   6.778  12.273  0.00  0.00    +0.000 A 
ATOM      3  C   UNL     1      45.056   6.277  13.139  0.00  0.00    +0.000 A 
ATOM      4  C   UNL     1      44.261   5.203  12.745  0.00  0.00    +0.000 A 
ATOM      5  C   UNL     1      44.434   4.648  11.478  0.00  0.00    +0.000 A 
ATOM      6  N   UNL     1      45.367   5.134  10.619  0.00  0.00    +0.000 NA
ATOM      7  C   UNL     1      46.133   6.173  11.029  0.00  0.00    +0.000 A 
BRANCH   5   8
ATOM      8  C   UNL     1      43.618   3.483  10.960  0.00  0.00    +0.000 C 
BRANCH   8   9
ATOM      9  C   UNL     1      44.350   2.548   9.994  0.00  0.00    +0.000 C 
BRANCH   9  10
ATOM     10  N   UNL     1      44.382   3.099   8.648  0.00  0.00    +0.000 N 
ATOM     11  C   UNL     1      45.514   2.731   7.927  0.00  0.00    +0.000 A 
ATOM     12  N   UNL     1      46.117   1.555   8.164  0.00  0.00    +0.000 NA
ATOM     13  C   UNL     1      47.202   1.260   7.424  0.00  0.00    +0.000 A 
ATOM     14  C   UNL     1      47.708   2.095   6.461  0.00  0.00    +0.000 A 
ATOM     15  C   UNL     1      47.031   3.277   6.302  0.00  0.00    +0.000 A 
ATOM     16  N   UNL     1      45.945   3.619   7.023  0.00  0.00    +0.000 NA
ATOM     17  H   UNL     1      44.318   4.107   8.571  0.00  0.00    +0.000 HD
ENDBRANCH   9  10
ENDBRANCH   8   9
ENDBRANCH   5   8
ENDBRANCH   1   2
BRANCH   1  20
ATOM     18  C   UNL     1      48.506   7.053  14.331  0.00  0.00    +0.000 C 
ATOM     19  O   UNL     1      49.167   6.528  13.444  0.00  0.00    +0.000 OA
ATOM     20  N   UNL     1      47.375   7.796  14.050  0.00  0.00    +0.000 N 
ATOM     21  H   UNL     1      46.795   8.137  14.804  0.00  0.00    +0.000 HD
BRANCH  18  25
ATOM     22  C   UNL     1      50.471   8.161  18.778  0.00  0.00    +0.000 C 
ATOM     23  N   UNL     1      49.762   7.462  17.731  0.00  0.00    +0.000 N 
ATOM     24  C   UNL     1      49.558   7.920  16.458  0.00  0.00    +0.000 A 
ATOM     25  C   UNL     1      48.859   6.952  15.744  0.00  0.00    +0.000 A 
ATOM     26  C   UNL     1      48.628   5.856  16.658  0.00  0.00    +0.000 A 
ATOM     27  C   UNL     1      48.017   4.605  16.684  0.00  0.00    +0.000 A 
ATOM     28 CL   UNL     1      47.186   3.993  15.341  0.00  0.00    +0.000 Cl
ATOM     29  N   UNL     1      47.990   3.839  17.791  0.00  0.00    +0.000 NA
ATOM     30  C   UNL     1      48.591   4.329  18.882  0.00  0.00    +0.000 A 
ATOM     31  N   UNL     1      49.217   5.506  19.011  0.00  0.00    +0.000 NA
ATOM     32  C   UNL     1      49.202   6.226  17.873  0.00  0.00    +0.000 A 
ENDBRANCH  18  25
ENDBRANCH   1  20
TORSDOF 6
ENDMDL
MODEL 2
REMARK VINA RESULT:    -7.539      2.201      3.188
REMARK INTER + INTRA:         -11.502
REMARK INTER:                 -10.536
REMARK INTRA:                  -0.966
REMARK UNBOUND:                -1.319
REMARK  Name = 
REMARK  7 active torsions:
REMARK  status: ('A' for Active; 'I' for Inactive)
REMARK    1  A    between atoms: C_1  and  N_2
REMARK    2  A    between atoms: C_4  and  C_5
REMARK    3  A    between atoms: N_7  and  C_8
REMARK    4  A    between atoms: C_8  and  C_9
REMARK    5  A    between atoms: C_12  and  C_13
REMARK    6  A    between atoms: C_13  and  C_14
REMARK    7  A    between atoms: C_14  and  N_15
REMARK                            x       y       z     vdW  Elec       q    Type
REMARK                         _______ _______ _______ _____ _____    ______ ____
ROOT
ATOM      1  C   UNL     1      47.595   3.845  15.284  0.00  0.00    +0.000 C 
ENDROOT
BRANCH   1   2
ATOM      2  C   UNL     1      46.808   4.271  14.082  0.00  0.00    +0.000 A 
ATOM      3  C   UNL     1      46.699   5.615  13.732  0.00  0.00    +0.000 A 
ATOM      4  C   UNL     1      45.930   5.986  12.631  0.00  0.00    +0.000 A 
ATOM      5  C   UNL     1      45.287   5.005  11.880  0.00  0.00    +0.000 A 
ATOM      6  N   UNL     1      45.393   3.690  12.202  0.00  0.00    +0.000 NA
ATOM      7  C   UNL     1      46.140   3.355  13.282  0.00  0.00    +0.000 A 
BRANCH   5   8
ATOM      8  C   UNL     1      44.433   5.310  10.668  0.00  0.00    +0.000 C 
BRANCH   8   9
ATOM      9  C   UNL     1      44.023   4.095   9.832  0.00  0.00    +0.000 C 
BRANCH   9  10
ATOM     10  N   UNL     1      44.386   4.268   8.435  0.00  0.00    +0.000 N 
ATOM     11  C   UNL     1      45.357   3.370   8.000  0.00  0.00    +0.000 A 
ATOM     12  N   UNL     1      45.445   2.148   8.549  0.00  0.00    +0.000 NA
ATOM     13  C   UNL     1      46.402   1.329   8.075  0.00  0.00    +0.000 A 
ATOM     14  C   UNL     1      47.274   1.684   7.078  0.00  0.00    +0.000 A 
ATOM     15  C   UNL     1      47.112   2.956   6.591  0.00  0.00    +0.000 A 
ATOM     16  N   UNL     1      46.174   3.814   7.037  0.00  0.00    +0.000 NA
ATOM     17  H   UNL     1      44.716   5.186   8.164  0.00  0.00    +0.000 HD
ENDBRANCH   9  10
ENDBRANCH   8   9
ENDBRANCH   5   8
ENDBRANCH   1   2
BRANCH   1  20
ATOM     18  C   UNL     1      48.521   5.240  17.056  0.00  0.00    +0.000 C 
ATOM     19  O   UNL     1      49.657   5.022  16.655  0.00  0.00    +0.000 OA
ATOM     20  N   UNL     1      47.412   4.720  16.417  0.00  0.00    +0.000 N 
ATOM     21  H   UNL     1      46.494   4.835  16.823  0.00  0.00    +0.000 HD
BRANCH  18  25
ATOM     22  C   UNL     1      47.426   6.547  21.743  0.00  0.00    +0.000 C 
ATOM     23  N   UNL     1      47.736   6.636  20.334  0.00  0.00    +0.000 N 
ATOM     24  C   UNL     1      48.028   5.582  19.511  0.00  0.00    +0.000 A 
ATOM     25  C   UNL     1      48.242   6.070  18.225  0.00  0.00    +0.000 A 
ATOM     26  C   UNL     1      48.076   7.504  18.298  0.00  0.00    +0.000 A 
ATOM     27  C   UNL     1      48.143   8.625  17.474  0.00  0.00    +0.000 A 
ATOM     28 CL   UNL     1      48.580   8.504  15.842  0.00  0.00    +0.000 Cl
ATOM     29  N   UNL     1      47.931   9.871  17.935  0.00  0.00    +0.000 NA
ATOM     30  C   UNL     1      47.639   9.996  19.235  0.00  0.00    +0.000 A 
ATOM     31  N   UNL     1      47.538   9.021  20.147  0.00  0.00    +0.000 NA
ATOM     32  C   UNL     1      47.769   7.801  19.625  0.00  0.00    +0.000 A 
ENDBRANCH  18  25
ENDBRANCH   1  20
TORSDOF 6
ENDMDL
MODEL 3
REMARK VINA RESULT:    -7.264      1.676      2.484
REMARK INTER + INTRA:         -11.131
REMARK INTER:                 -10.229
REMARK INTRA:                  -0.902
REMARK UNBOUND:                -1.319
REMARK  Name = 
REMARK  7 active torsions:
REMARK  status: ('A' for Active; 'I' for Inactive)
REMARK    1  A    between atoms: C_1  and  N_2
REMARK    2  A    between atoms: C_4  and  C_5
REMARK    3  A    between atoms: N_7  and  C_8
REMARK    4  A    between atoms: C_8  and  C_9
REMARK    5  A    between atoms: C_12  and  C_13
REMARK    6  A    between atoms: C_13  and  C_14
REMARK    7  A    between atoms: C_14  and  N_15
REMARK                            x       y       z     vdW  Elec       q    Type
REMARK                         _______ _______ _______ _____ _____    ______ ____
ROOT
ATOM      1  C   UNL     1      47.545   8.232  13.288  0.00  0.00    +0.000 C 
ENDROOT
BRANCH   1   2
ATOM      2  C   UNL     1      46.445   7.482  12.600  0.00  0.00    +0.000 A 
ATOM      3  C   UNL     1      45.268   8.120  12.219  0.00  0.00    +0.000 A 
ATOM      4  C   UNL     1      44.245   7.390  11.615  0.00  0.00    +0.000 A 
ATOM      5  C   UNL     1      44.418   6.027  11.385  0.00  0.00    +0.000 A 
ATOM      6  N   UNL     1      45.565   5.394  11.740  0.00  0.00    +0.000 NA
ATOM      7  C   UNL     1      46.541   6.123  12.334  0.00  0.00    +0.000 A 
BRANCH   5   8
ATOM      8  C   UNL     1      43.368   5.153  10.734  0.00  0.00    +0.000 C 
BRANCH   8   9
ATOM      9  C   UNL     1      43.905   3.933   9.982  0.00  0.00    +0.000 C 
BRANCH   9  10
ATOM     10  N   UNL     1      44.376   4.295   8.654  0.00  0.00    +0.000 N 
ATOM     11  C   UNL     1      45.372   3.452   8.171  0.00  0.00    +0.000 A 
ATOM     12  N   UNL     1      45.411   2.164   8.546  0.00  0.00    +0.000 NA
ATOM     13  C   UNL     1      46.397   1.403   8.034  0.00  0.00    +0.000 A 
ATOM     14  C   UNL     1      47.345   1.882   7.167  0.00  0.00    +0.000 A 
ATOM     15  C   UNL     1      47.228   3.212   6.854  0.00  0.00    +0.000 A 
ATOM     16  N   UNL     1      46.263   4.014   7.346  0.00  0.00    +0.000 NA
ATOM     17  H   UNL     1      44.730   5.238   8.542  0.00  0.00    +0.000 HD
ENDBRANCH   9  10
ENDBRANCH   8   9
ENDBRANCH   5   8
ENDBRANCH   1   2
BRANCH   1  20
ATOM     18  C   UNL     1      48.803   7.055  15.013  0.00  0.00    +0.000 C 
ATOM     19  O   UNL     1      49.650   6.727  14.192  0.00  0.00    +0.000 OA
ATOM     20  N   UNL     1      47.720   7.839  14.665  0.00  0.00    +0.000 N 
ATOM     21  H   UNL     1      46.986   8.015  15.337  0.00  0.00    +0.000 HD
BRANCH  18  25
ATOM     22  C   UNL     1      48.646   4.222  19.114  0.00  0.00    +0.000 C 
ATOM     23  N   UNL     1      48.781   5.372  18.249  0.00  0.00    +0.000 N 
ATOM     24  C   UNL     1      48.723   5.357  16.882  0.00  0.00    +0.000 A 
ATOM     25  C   UNL     1      48.870   6.660  16.418  0.00  0.00    +0.000 A 
ATOM     26  C   UNL     1      49.035   7.495  17.585  0.00  0.00    +0.000 A 
ATOM     27  C   UNL     1      49.239   8.833  17.915  0.00  0.00    +0.000 A 
ATOM     28 CL   UNL     1      49.423  10.024  16.724  0.00  0.00    +0.000 Cl
ATOM     29  N   UNL     1      49.370   9.250  19.188  0.00  0.00    +0.000 NA
ATOM     30  C   UNL     1      49.286   8.317  20.143  0.00  0.00    +0.000 A 
ATOM     31  N   UNL     1      49.092   7.001  19.985  0.00  0.00    +0.000 NA
ATOM     32  C   UNL     1      48.978   6.648  18.690  0.00  0.00    +0.000 A 
ENDBRANCH  18  25
ENDBRANCH   1  20
TORSDOF 6
ENDMDL
MODEL 4
REMARK VINA RESULT:    -7.253      1.883      2.144
REMARK INTER + INTRA:         -11.116
REMARK INTER:                 -10.251
REMARK INTRA:                  -0.865
REMARK UNBOUND:                -1.319
REMARK  Name = 
REMARK  7 active torsions:
REMARK  status: ('A' for Active; 'I' for Inactive)
REMARK    1  A    between atoms: C_1  and  N_2
REMARK    2  A    between atoms: C_4  and  C_5
REMARK    3  A    between atoms: N_7  and  C_8
REMARK    4  A    between atoms: C_8  and  C_9
REMARK    5  A    between atoms: C_12  and  C_13
REMARK    6  A    between atoms: C_13  and  C_14
REMARK    7  A    between atoms: C_14  and  N_15
REMARK                            x       y       z     vdW  Elec       q    Type
REMARK                         _______ _______ _______ _____ _____    ______ ____
ROOT
ATOM      1  C   UNL     1      48.383   6.965  13.653  0.00  0.00    +0.000 C 
ENDROOT
BRANCH   1   2
ATOM      2  C   UNL     1      47.118   6.331  13.162  0.00  0.00    +0.000 A 
ATOM      3  C   UNL     1      46.154   7.077  12.488  0.00  0.00    +0.000 A 
ATOM      4  C   UNL     1      44.969   6.472  12.075  0.00  0.00    +0.000 A 
ATOM      5  C   UNL     1      44.766   5.117  12.328  0.00  0.00    +0.000 A 
ATOM      6  N   UNL     1      45.702   4.373  12.972  0.00  0.00    +0.000 NA
ATOM      7  C   UNL     1      46.842   4.988  13.371  0.00  0.00    +0.000 A 
BRANCH   5   8
ATOM      8  C   UNL     1      43.515   4.371  11.916  0.00  0.00    +0.000 C 
BRANCH   8   9
ATOM      9  C   UNL     1      43.709   3.322  10.818  0.00  0.00    +0.000 C 
BRANCH   9  10
ATOM     10  N   UNL     1      43.904   3.946   9.519  0.00  0.00    +0.000 N 
ATOM     11  C   UNL     1      44.926   3.364   8.773  0.00  0.00    +0.000 A 
ATOM     12  N   UNL     1      45.214   2.061   8.920  0.00  0.00    +0.000 NA
ATOM     13  C   UNL     1      46.208   1.562   8.161  0.00  0.00    +0.000 A 
ATOM     14  C   UNL     1      46.925   2.316   7.267  0.00  0.00    +0.000 A 
ATOM     15  C   UNL     1      46.564   3.637   7.199  0.00  0.00    +0.000 A 
ATOM     16  N   UNL     1      45.581   4.183   7.942  0.00  0.00    +0.000 NA
ATOM     17  H   UNL     1      44.093   4.941   9.519  0.00  0.00    +0.000 HD
ENDBRANCH   9  10
ENDBRANCH   8   9
ENDBRANCH   5   8
ENDBRANCH   1   2
BRANCH   1  20
ATOM     18  C   UNL     1      48.936   7.115  16.023  0.00  0.00    +0.000 C 
ATOM     19  O   UNL     1      49.729   6.188  15.912  0.00  0.00    +0.000 OA
ATOM     20  N   UNL     1      48.232   7.602  14.939  0.00  0.00    +0.000 N 
ATOM     21  H   UNL     1      47.516   8.302  15.075  0.00  0.00    +0.000 HD
BRANCH  18  25
ATOM     22  C   UNL     1      48.791  10.668  19.519  0.00  0.00    +0.000 C 
ATOM     23  N   UNL     1      48.636   9.393  18.856  0.00  0.00    +0.000 N 
ATOM     24  C   UNL     1      48.942   9.129  17.548  0.00  0.00    +0.000 A 
ATOM     25  C   UNL     1      48.680   7.786  17.294  0.00  0.00    +0.000 A 
ATOM     26  C   UNL     1      48.179   7.226  18.529  0.00  0.00    +0.000 A 
ATOM     27  C   UNL     1      47.713   6.014  19.034  0.00  0.00    +0.000 A 
ATOM     28 CL   UNL     1      47.565   4.641  18.054  0.00  0.00    +0.000 Cl
ATOM     29  N   UNL     1      47.293   5.878  20.305  0.00  0.00    +0.000 NA
ATOM     30  C   UNL     1      47.347   6.966  21.082  0.00  0.00    +0.000 A 
ATOM     31  N   UNL     1      47.768   8.192  20.744  0.00  0.00    +0.000 NA
ATOM     32  C   UNL     1      48.167   8.263  19.459  0.00  0.00    +0.000 A 
ENDBRANCH  18  25
ENDBRANCH   1  20
TORSDOF 6
ENDMDL
MODEL 5
REMARK VINA RESULT:    -7.022      2.016      2.773
REMARK INTER + INTRA:         -10.804
REMARK INTER:                 -10.020
REMARK INTRA:                  -0.784
REMARK UNBOUND:                -1.319
REMARK  Name = 
REMARK  7 active torsions:
REMARK  status: ('A' for Active; 'I' for Inactive)
REMARK    1  A    between atoms: C_1  and  N_2
REMARK    2  A    between atoms: C_4  and  C_5
REMARK    3  A    between atoms: N_7  and  C_8
REMARK    4  A    between atoms: C_8  and  C_9
REMARK    5  A    between atoms: C_12  and  C_13
REMARK    6  A    between atoms: C_13  and  C_14
REMARK    7  A    between atoms: C_14  and  N_15
REMARK                            x       y       z     vdW  Elec       q    Type
REMARK                         _______ _______ _______ _____ _____    ______ ____
ROOT
ATOM      1  C   UNL     1      47.336   4.190  15.539  0.00  0.00    +0.000 C 
ENDROOT
BRANCH   1   2
ATOM      2  C   UNL     1      46.728   4.563  14.222  0.00  0.00    +0.000 A 
ATOM      3  C   UNL     1      46.738   5.881  13.772  0.00  0.00    +0.000 A 
ATOM      4  C   UNL     1      46.132   6.207  12.560  0.00  0.00    +0.000 A 
ATOM      5  C   UNL     1      45.533   5.204  11.801  0.00  0.00    +0.000 A 
ATOM      6  N   UNL     1      45.526   3.913  12.220  0.00  0.00    +0.000 NA
ATOM      7  C   UNL     1      46.114   3.623  13.406  0.00  0.00    +0.000 A 
BRANCH   5   8
ATOM      8  C   UNL     1      44.853   5.460  10.473  0.00  0.00    +0.000 C 
BRANCH   8   9
ATOM      9  C   UNL     1      44.201   4.236   9.824  0.00  0.00    +0.000 C 
BRANCH   9  10
ATOM     10  N   UNL     1      44.378   4.246   8.380  0.00  0.00    +0.000 N 
ATOM     11  C   UNL     1      45.308   3.314   7.930  0.00  0.00    +0.000 A 
ATOM     12  N   UNL     1      45.497   2.166   8.601  0.00  0.00    +0.000 NA
ATOM     13  C   UNL     1      46.406   1.306   8.105  0.00  0.00    +0.000 A 
ATOM     14  C   UNL     1      47.133   1.550   6.968  0.00  0.00    +0.000 A 
ATOM     15  C   UNL     1      46.878   2.753   6.362  0.00  0.00    +0.000 A 
ATOM     16  N   UNL     1      45.983   3.649   6.824  0.00  0.00    +0.000 NA
ATOM     17  H   UNL     1      44.646   5.130   7.964  0.00  0.00    +0.000 HD
ENDBRANCH   9  10
ENDBRANCH   8   9
ENDBRANCH   5   8
ENDBRANCH   1   2
BRANCH   1  20
ATOM     18  C   UNL     1      48.966   5.298  16.974  0.00  0.00    +0.000 C 
ATOM     19  O   UNL     1      49.722   4.340  16.880  0.00  0.00    +0.000 OA
ATOM     20  N   UNL     1      47.754   5.335  16.312  0.00  0.00    +0.000 N 
ATOM     21  H   UNL     1      47.107   6.092  16.482  0.00  0.00    +0.000 HD
BRANCH  18  25
ATOM     22  C   UNL     1      50.291   9.956  18.167  0.00  0.00    +0.000 C 
ATOM     23  N   UNL     1      49.892   8.572  18.290  0.00  0.00    +0.000 N 
ATOM     24  C   UNL     1      49.593   7.730  17.254  0.00  0.00    +0.000 A 
ATOM     25  C   UNL     1      49.282   6.478  17.775  0.00  0.00    +0.000 A 
ATOM     26  C   UNL     1      49.394   6.593  19.211  0.00  0.00    +0.000 A 
ATOM     27  C   UNL     1      49.232   5.815  20.356  0.00  0.00    +0.000 A 
ATOM     28 CL   UNL     1      48.701   4.209  20.272  0.00  0.00    +0.000 Cl
ATOM     29  N   UNL     1      49.422   6.308  21.594  0.00  0.00    +0.000 NA
ATOM     30  C   UNL     1      49.787   7.592  21.687  0.00  0.00    +0.000 A 
ATOM     31  N   UNL     1      49.982   8.460  20.686  0.00  0.00    +0.000 NA
ATOM     32  C   UNL     1      49.769   7.909  19.476  0.00  0.00    +0.000 A 
ENDBRANCH  18  25
ENDBRANCH   1  20
TORSDOF 6
ENDMDL
MODEL 6
REMARK VINA RESULT:    -6.918      2.081      2.731
REMARK INTER + INTRA:         -10.663
REMARK INTER:                  -9.880
REMARK INTRA:                  -0.784
REMARK UNBOUND:                -1.319
REMARK  Name = 
REMARK  7 active torsions:
REMARK  status: ('A' for Active; 'I' for Inactive)
REMARK    1  A    between atoms: C_1  and  N_2
REMARK    2  A    between atoms: C_4  and  C_5
REMARK    3  A    between atoms: N_7  and  C_8
REMARK    4  A    between atoms: C_8  and  C_9
REMARK    5  A    between atoms: C_12  and  C_13
REMARK    6  A    between atoms: C_13  and  C_14
REMARK    7  A    between atoms: C_14  and  N_15
REMARK                            x       y       z     vdW  Elec       q    Type
REMARK                         _______ _______ _______ _____ _____    ______ ____
ROOT
ATOM      1  C   UNL     1      48.223   7.570  13.878  0.00  0.00    +0.000 C 
ENDROOT
BRANCH   1   2
ATOM      2  C   UNL     1      47.000   7.079  13.167  0.00  0.00    +0.000 A 
ATOM      3  C   UNL     1      46.326   7.885  12.253  0.00  0.00    +0.000 A 
ATOM      4  C   UNL     1      45.168   7.417  11.634  0.00  0.00    +0.000 A 
ATOM      5  C   UNL     1      44.703   6.137  11.926  0.00  0.00    +0.000 A 
ATOM      6  N   UNL     1      45.356   5.335  12.805  0.00  0.00    +0.000 NA
ATOM      7  C   UNL     1      46.474   5.816  13.401  0.00  0.00    +0.000 A 
BRANCH   5   8
ATOM      8  C   UNL     1      43.459   5.541  11.303  0.00  0.00    +0.000 C 
BRANCH   8   9
ATOM      9  C   UNL     1      43.681   4.266  10.486  0.00  0.00    +0.000 C 
BRANCH   9  10
ATOM     10  N   UNL     1      44.036   4.575   9.109  0.00  0.00    +0.000 N 
ATOM     11  C   UNL     1      44.961   3.691   8.564  0.00  0.00    +0.000 A 
ATOM     12  N   UNL     1      45.001   2.413   8.975  0.00  0.00    +0.000 NA
ATOM     13  C   UNL     1      45.916   1.610   8.399  0.00  0.00    +0.000 A 
ATOM     14  C   UNL     1      46.791   2.036   7.432  0.00  0.00    +0.000 A 
ATOM     15  C   UNL     1      46.680   3.359   7.089  0.00  0.00    +0.000 A 
ATOM     16  N   UNL     1      45.785   4.202   7.642  0.00  0.00    +0.000 NA
ATOM     17  H   UNL     1      44.402   5.504   8.935  0.00  0.00    +0.000 HD
ENDBRANCH   9  10
ENDBRANCH   8   9
ENDBRANCH   5   8
ENDBRANCH   1   2
BRANCH   1  20
ATOM     18  C   UNL     1      48.881   7.308  16.211  0.00  0.00    +0.000 C 
ATOM     19  O   UNL     1      48.755   8.512  16.397  0.00  0.00    +0.000 OA
ATOM     20  N   UNL     1      48.607   6.730  14.987  0.00  0.00    +0.000 N 
ATOM     21  H   UNL     1      48.811   5.753  14.832  0.00  0.00    +0.000 HD
BRANCH  18  25
ATOM     22  C   UNL     1      48.734   4.313  20.196  0.00  0.00    +0.000 C 
ATOM     23  N   UNL     1      49.230   5.057  19.060  0.00  0.00    +0.000 N 
ATOM     24  C   UNL     1      48.473   5.808  18.203  0.00  0.00    +0.000 A 
ATOM     25  C   UNL     1      49.315   6.388  17.259  0.00  0.00    +0.000 A 
ATOM     26  C   UNL     1      50.653   5.943  17.575  0.00  0.00    +0.000 A 
ATOM     27  C   UNL     1      51.957   6.077  17.104  0.00  0.00    +0.000 A 
ATOM     28 CL   UNL     1      52.310   6.967  15.707  0.00  0.00    +0.000 Cl
ATOM     29  N   UNL     1      53.000   5.458  17.686  0.00  0.00    +0.000 NA
ATOM     30  C   UNL     1      52.737   4.702  18.758  0.00  0.00    +0.000 A 
ATOM     31  N   UNL     1      51.544   4.478  19.326  0.00  0.00    +0.000 NA
ATOM     32  C   UNL     1      50.543   5.118  18.693  0.00  0.00    +0.000 A 
ENDBRANCH  18  25
ENDBRANCH   1  20
TORSDOF 6
ENDMDL
MODEL 7
REMARK VINA RESULT:    -6.840      2.145      2.682
REMARK INTER + INTRA:         -10.558
REMARK INTER:                  -9.424
REMARK INTRA:                  -1.133
REMARK UNBOUND:                -1.319
REMARK  Name = 
REMARK  7 active torsions:
REMARK  status: ('A' for Active; 'I' for Inactive)
REMARK    1  A    between atoms: C_1  and  N_2
REMARK    2  A    between atoms: C_4  and  C_5
REMARK    3  A    between atoms: N_7  and  C_8
REMARK    4  A    between atoms: C_8  and  C_9
REMARK    5  A    between atoms: C_12  and  C_13
REMARK    6  A    between atoms: C_13  and  C_14
REMARK    7  A    between atoms: C_14  and  N_15
REMARK                            x       y       z     vdW  Elec       q    Type
REMARK                         _______ _______ _______ _____ _____    ______ ____
ROOT
ATOM      1  C   UNL     1      48.575   7.704  12.877  0.00  0.00    +0.000 C 
ENDROOT
BRANCH   1   2
ATOM      2  C   UNL     1      47.249   7.009  12.930  0.00  0.00    +0.000 A 
ATOM      3  C   UNL     1      47.138   5.706  13.410  0.00  0.00    +0.000 A 
ATOM      4  C   UNL     1      45.899   5.069  13.414  0.00  0.00    +0.000 A 
ATOM      5  C   UNL     1      44.776   5.750  12.949  0.00  0.00    +0.000 A 
ATOM      6  N   UNL     1      44.866   7.024  12.490  0.00  0.00    +0.000 NA
ATOM      7  C   UNL     1      46.083   7.618  12.488  0.00  0.00    +0.000 A 
BRANCH   5   8
ATOM      8  C   UNL     1      43.389   5.143  12.916  0.00  0.00    +0.000 C 
BRANCH   8   9
ATOM      9  C   UNL     1      42.990   4.492  11.590  0.00  0.00    +0.000 C 
BRANCH   9  10
ATOM     10  N   UNL     1      43.748   3.274  11.350  0.00  0.00    +0.000 N 
ATOM     11  C   UNL     1      44.458   3.290  10.153  0.00  0.00    +0.000 A 
ATOM     12  N   UNL     1      44.912   4.450   9.651  0.00  0.00    +0.000 NA
ATOM     13  C   UNL     1      45.599   4.391   8.494  0.00  0.00    +0.000 A 
ATOM     14  C   UNL     1      45.844   3.222   7.821  0.00  0.00    +0.000 A 
ATOM     15  C   UNL     1      45.329   2.095   8.407  0.00  0.00    +0.000 A 
ATOM     16  N   UNL     1      44.630   2.103   9.559  0.00  0.00    +0.000 NA
ATOM     17  H   UNL     1      43.222   2.408  11.349  0.00  0.00    +0.000 HD
ENDBRANCH   9  10
ENDBRANCH   8   9
ENDBRANCH   5   8
ENDBRANCH   1   2
BRANCH   1  20
ATOM     18  C   UNL     1      49.778   7.639  14.996  0.00  0.00    +0.000 C 
ATOM     19  O   UNL     1      49.116   8.578  15.418  0.00  0.00    +0.000 OA
ATOM     20  N   UNL     1      49.562   7.103  13.741  0.00  0.00    +0.000 N 
ATOM     21  H   UNL     1      50.184   6.394  13.380  0.00  0.00    +0.000 HD
BRANCH  18  25
ATOM     22  C   UNL     1      54.316   6.485  16.712  0.00  0.00    +0.000 C 
ATOM     23  N   UNL     1      52.883   6.488  16.527  0.00  0.00    +0.000 N 
ATOM     24  C   UNL     1      52.184   7.327  15.702  0.00  0.00    +0.000 A 
ATOM     25  C   UNL     1      50.833   7.001  15.779  0.00  0.00    +0.000 A 
ATOM     26  C   UNL     1      50.728   5.907  16.718  0.00  0.00    +0.000 A 
ATOM     27  C   UNL     1      49.758   5.094  17.298  0.00  0.00    +0.000 A 
ATOM     28 CL   UNL     1      48.109   5.308  16.974  0.00  0.00    +0.000 Cl
ATOM     29  N   UNL     1      50.061   4.140  18.197  0.00  0.00    +0.000 NA
ATOM     30  C   UNL     1      51.353   3.991  18.512  0.00  0.00    +0.000 A 
ATOM     31  N   UNL     1      52.394   4.690  18.041  0.00  0.00    +0.000 NA
ATOM     32  C   UNL     1      52.023   5.633  17.154  0.00  0.00    +0.000 A 
ENDBRANCH  18  25
ENDBRANCH   1  20
TORSDOF 6
ENDMDL
MODEL 8
REMARK VINA RESULT:    -6.636      2.261      8.351
REMARK INTER + INTRA:         -10.283
REMARK INTER:                  -9.033
REMARK INTRA:                  -1.250
REMARK UNBOUND:                -1.319
REMARK  Name = 
REMARK  7 active torsions:
REMARK  status: ('A' for Active; 'I' for Inactive)
REMARK    1  A    between atoms: C_1  and  N_2
REMARK    2  A    between atoms: C_4  and  C_5
REMARK    3  A    between atoms: N_7  and  C_8
REMARK    4  A    between atoms: C_8  and  C_9
REMARK    5  A    between atoms: C_12  and  C_13
REMARK    6  A    between atoms: C_13  and  C_14
REMARK    7  A    between atoms: C_14  and  N_15
REMARK                            x       y       z     vdW  Elec       q    Type
REMARK                         _______ _______ _______ _____ _____    ______ ____
ROOT
ATOM      1  C   UNL     1      48.480   7.915  12.024  0.00  0.00    +0.000 C 
ENDROOT
BRANCH   1   2
ATOM      2  C   UNL     1      48.542   7.773  13.514  0.00  0.00    +0.000 A 
ATOM      3  C   UNL     1      48.393   8.878  14.349  0.00  0.00    +0.000 A 
ATOM      4  C   UNL     1      48.492   8.725  15.730  0.00  0.00    +0.000 A 
ATOM      5  C   UNL     1      48.726   7.460  16.265  0.00  0.00    +0.000 A 
ATOM      6  N   UNL     1      48.861   6.371  15.465  0.00  0.00    +0.000 NA
ATOM      7  C   UNL     1      48.769   6.548  14.124  0.00  0.00    +0.000 A 
BRANCH   5   8
ATOM      8  C   UNL     1      48.846   7.193  17.750  0.00  0.00    +0.000 C 
BRANCH   8   9
ATOM      9  C   UNL     1      49.200   5.753  18.131  0.00  0.00    +0.000 C 
BRANCH   9  10
ATOM     10  N   UNL     1      50.602   5.467  17.871  0.00  0.00    +0.000 N 
ATOM     11  C   UNL     1      50.866   4.112  17.690  0.00  0.00    +0.000 A 
ATOM     12  N   UNL     1      49.929   3.303  17.171  0.00  0.00    +0.000 NA
ATOM     13  C   UNL     1      50.254   2.006  17.015  0.00  0.00    +0.000 A 
ATOM     14  C   UNL     1      51.476   1.488  17.361  0.00  0.00    +0.000 A 
ATOM     15  C   UNL     1      52.360   2.391  17.894  0.00  0.00    +0.000 A 
ATOM     16  N   UNL     1      52.078   3.696  18.074  0.00  0.00    +0.000 NA
ATOM     17  H   UNL     1      51.266   5.788  18.566  0.00  0.00    +0.000 HD
ENDBRANCH   9  10
ENDBRANCH   8   9
ENDBRANCH   5   8
ENDBRANCH   1   2
BRANCH   1  20
ATOM     18  C   UNL     1      46.407   6.844  11.317  0.00  0.00    +0.000 C 
ATOM     19  O   UNL     1      45.756   7.789  11.743  0.00  0.00    +0.000 OA
ATOM     20  N   UNL     1      47.787   6.824  11.382  0.00  0.00    +0.000 N 
ATOM     21  H   UNL     1      48.294   5.993  11.112  0.00  0.00    +0.000 HD
BRANCH  18  25
ATOM     22  C   UNL     1      44.775   3.680   7.824  0.00  0.00    +0.000 C 
ATOM     23  N   UNL     1      45.052   4.272   9.114  0.00  0.00    +0.000 N 
ATOM     24  C   UNL     1      45.766   5.419   9.332  0.00  0.00    +0.000 A 
ATOM     25  C   UNL     1      45.789   5.673  10.699  0.00  0.00    +0.000 A 
ATOM     26  C   UNL     1      45.049   4.603  11.328  0.00  0.00    +0.000 A 
ATOM     27  C   UNL     1      44.669   4.177  12.599  0.00  0.00    +0.000 A 
ATOM     28 CL   UNL     1      45.153   5.005  13.996  0.00  0.00    +0.000 Cl
ATOM     29  N   UNL     1      43.957   3.053  12.799  0.00  0.00    +0.000 NA
ATOM     30  C   UNL     1      43.612   2.352  11.712  0.00  0.00    +0.000 A 
ATOM     31  N   UNL     1      43.900   2.631  10.434  0.00  0.00    +0.000 NA
ATOM     32  C   UNL     1      44.620   3.762  10.303  0.00  0.00    +0.000 A 
ENDBRANCH  18  25
ENDBRANCH   1  20
TORSDOF 6
ENDMDL
MODEL 9
REMARK VINA RESULT:    -6.556      2.432      2.921
REMARK INTER + INTRA:         -10.174
REMARK INTER:                  -9.014
REMARK INTRA:                  -1.160
REMARK UNBOUND:                -1.319
REMARK  Name = 
REMARK  7 active torsions:
REMARK  status: ('A' for Active; 'I' for Inactive)
REMARK    1  A    between atoms: C_1  and  N_2
REMARK    2  A    between atoms: C_4  and  C_5
REMARK    3  A    between atoms: N_7  and  C_8
REMARK    4  A    between atoms: C_8  and  C_9
REMARK    5  A    between atoms: C_12  and  C_13
REMARK    6  A    between atoms: C_13  and  C_14
REMARK    7  A    between atoms: C_14  and  N_15
REMARK                            x       y       z     vdW  Elec       q    Type
REMARK                         _______ _______ _______ _____ _____    ______ ____
ROOT
ATOM      1  C   UNL     1      48.608   8.967  12.015  0.00  0.00    +0.000 C 
ENDROOT
BRANCH   1   2
ATOM      2  C   UNL     1      47.339   8.170  11.977  0.00  0.00    +0.000 A 
ATOM      3  C   UNL     1      46.097   8.787  12.105  0.00  0.00    +0.000 A 
ATOM      4  C   UNL     1      44.935   8.019  12.104  0.00  0.00    +0.000 A 
ATOM      5  C   UNL     1      45.027   6.636  11.961  0.00  0.00    +0.000 A 
ATOM      6  N   UNL     1      46.229   6.021  11.823  0.00  0.00    +0.000 NA
ATOM      7  C   UNL     1      47.345   6.790  11.835  0.00  0.00    +0.000 A 
BRANCH   5   8
ATOM      8  C   UNL     1      43.823   5.719  11.946  0.00  0.00    +0.000 C 
BRANCH   8   9
ATOM      9  C   UNL     1      43.916   4.530  10.985  0.00  0.00    +0.000 C 
BRANCH   9  10
ATOM     10  N   UNL     1      44.220   4.967   9.632  0.00  0.00    +0.000 N 
ATOM     11  C   UNL     1      45.004   4.062   8.921  0.00  0.00    +0.000 A 
ATOM     12  N   UNL     1      44.923   2.747   9.179  0.00  0.00    +0.000 NA
ATOM     13  C   UNL     1      45.703   1.928   8.449  0.00  0.00    +0.000 A 
ATOM     14  C   UNL     1      46.562   2.374   7.476  0.00  0.00    +0.000 A 
ATOM     15  C   UNL     1      46.583   3.733   7.297  0.00  0.00    +0.000 A 
ATOM     16  N   UNL     1      45.825   4.592   8.007  0.00  0.00    +0.000 NA
ATOM     17  H   UNL     1      44.679   5.865   9.539  0.00  0.00    +0.000 HD
ENDBRANCH   9  10
ENDBRANCH   8   9
ENDBRANCH   5   8
ENDBRANCH   1   2
BRANCH   1  20
ATOM     18  C   UNL     1      50.252   9.158  13.805  0.00  0.00    +0.000 C 
ATOM     19  O   UNL     1      49.939  10.328  13.987  0.00  0.00    +0.000 OA
ATOM     20  N   UNL     1      49.619   8.376  12.857  0.00  0.00    +0.000 N 
ATOM     21  H   UNL     1      49.960   7.446  12.660  0.00  0.00    +0.000 HD
BRANCH  18  25
ATOM     22  C   UNL     1      54.773   7.954  15.533  0.00  0.00    +0.000 C 
ATOM     23  N   UNL     1      53.342   7.957  15.327  0.00  0.00    +0.000 N 
ATOM     24  C   UNL     1      52.650   8.829  14.531  0.00  0.00    +0.000 A 
ATOM     25  C   UNL     1      51.300   8.492  14.573  0.00  0.00    +0.000 A 
ATOM     26  C   UNL     1      51.189   7.355  15.459  0.00  0.00    +0.000 A 
ATOM     27  C   UNL     1      50.216   6.510  15.987  0.00  0.00    +0.000 A 
ATOM     28 CL   UNL     1      48.570   6.728  15.648  0.00  0.00    +0.000 Cl
ATOM     29  N   UNL     1      50.513   5.517  16.845  0.00  0.00    +0.000 NA
ATOM     30  C   UNL     1      51.801   5.362  17.171  0.00  0.00    +0.000 A 
ATOM     31  N   UNL     1      52.844   6.088  16.749  0.00  0.00    +0.000 NA
ATOM     32  C   UNL     1      52.480   7.069  15.901  0.00  0.00    +0.000 A 
ENDBRANCH  18  25
ENDBRANCH   1  20
TORSDOF 6
ENDMDL
