MODEL 1
REMARK VINA RESULT:    -8.260      0.000      0.000
REMARK INTER + INTRA:         -12.890
REMARK INTER:                 -11.640
REMARK INTRA:                  -1.250
REMARK UNBOUND:                -1.250
REMARK  Name = 
REMARK  8 active torsions:
REMARK  status: ('A' for Active; 'I' for Inactive)
REMARK    1  A    between atoms: C_1  and  C_2
REMARK    2  A    between atoms: C_2  and  N_3
REMARK    3  A    between atoms: C_2  and  C_25
REMARK    4  A    between atoms: N_3  and  C_4
REMARK    5  A    between atoms: C_4  and  C_5
REMARK    6  A    between atoms: C_8  and  C_9
REMARK    7  A    between atoms: C_9  and  N_10
REMARK    8  A    between atoms: C_11  and  C_13
REMARK                            x       y       z     vdW  Elec       q    Type
REMARK                         _______ _______ _______ _____ _____    ______ ____
ROOT
ATOM      1  C   UNL     1      45.000   6.462  11.441  0.00  0.00    +0.000 A 
ATOM      2  C   UNL     1      46.357   6.124  11.386  0.00  0.00    +0.000 A 
ATOM      3  C   UNL     1      47.307   6.866  12.092  0.00  0.00    +0.000 A 
ATOM      4  C   UNL     1      46.914   7.969  12.861  0.00  0.00    +0.000 A 
ATOM      5  C   UNL     1      45.568   8.353  12.855  0.00  0.00    +0.000 A 
ATOM      6  C   UNL     1      44.616   7.600  12.163  0.00  0.00    +0.000 A 
ENDROOT
BRANCH   1   7
ATOM      7  C   UNL     1      43.967   5.603  10.749  0.00  0.00    +0.000 C 
BRANCH   7   8
ATOM      8  N   UNL     1      44.519   5.006   9.531  0.00  0.00    +0.000 NA
ATOM      9  H   UNL     1      44.066   5.427   8.722  0.00  0.00    +0.000 HD
BRANCH   8  11
ATOM     10  C   UNL     1      44.532   2.867  10.814  0.00  0.00    +0.000 C 
ATOM     11  C   UNL     1      44.333   3.556   9.456  0.00  0.00    +0.000 C 
BRANCH  11  12
ATOM     12  C   UNL     1      45.324   2.935   8.477  0.00  0.00    +0.000 A 
ATOM     13  C   UNL     1      46.171   3.750   7.702  0.00  0.00    +0.000 A 
ATOM     14  C   UNL     1      47.217   3.198   6.963  0.00  0.00    +0.000 A 
ATOM     15  C   UNL     1      47.424   1.821   6.978  0.00  0.00    +0.000 A 
ATOM     16  C   UNL     1      46.561   1.000   7.702  0.00  0.00    +0.000 A 
ATOM     17 CL   UNL     1      46.843  -0.698   7.751  0.00  0.00    +0.000 Cl
ATOM     18  C   UNL     1      45.504   1.545   8.433  0.00  0.00    +0.000 A 
ENDBRANCH  11  12
ENDBRANCH   8  11
ENDBRANCH   7   8
ENDBRANCH   1   7
BRANCH   4  19
ATOM     19  C   UNL     1      47.920   8.729  13.685  0.00  0.00    +0.000 C 
BRANCH  19  20
ATOM     20  N   UNL     1      48.107   8.131  14.979  0.00  0.00    +0.000 N 
ATOM     21  C   UNL     1      49.118   7.234  15.206  0.00  0.00    +0.000 C 
ATOM     22  O   UNL     1      49.931   6.927  14.345  0.00  0.00    +0.000 OA
ATOM     23  H   UNL     1      47.319   8.171  15.620  0.00  0.00    +0.000 HD
BRANCH  21  24
ATOM     24  C   UNL     1      49.212   6.709  16.579  0.00  0.00    +0.000 A 
ATOM     25  C   UNL     1      49.821   7.468  17.568  0.00  0.00    +0.000 A 
ATOM     26  S   UNL     1      49.804   6.721  19.102  0.00  0.00    +0.000 S 
ATOM     27  C   UNL     1      49.022   5.344  18.482  0.00  0.00    +0.000 A 
ATOM     28  N   UNL     1      48.727   4.283  19.287  0.00  0.00    +0.000 NA
ATOM     29  C   UNL     1      48.154   3.298  18.682  0.00  0.00    +0.000 A 
ATOM     30  N   UNL     1      47.843   3.276  17.346  0.00  0.00    +0.000 N 
ATOM     31  C   UNL     1      48.093   4.332  16.506  0.00  0.00    +0.000 A 
ATOM     32  O   UNL     1      47.753   4.302  15.328  0.00  0.00    +0.000 OA
ATOM     33  C   UNL     1      48.755   5.460  17.134  0.00  0.00    +0.000 A 
ATOM     34  H   UNL     1      47.378   2.482  16.934  0.00  0.00    +0.000 HD
ENDBRANCH  21  24
ENDBRANCH  19  20
ENDBRANCH   4  19
TORSDOF 7
ENDMDL
MODEL 2
REMARK VINA RESULT:    -7.875      2.097      2.836
REMARK INTER + INTRA:         -12.348
REMARK INTER:                 -11.163
REMARK INTRA:                  -1.185
REMARK UNBOUND:                -1.250
REMARK  Name = 
REMARK  8 active torsions:
REMARK  status: ('A' for Active; 'I' for Inactive)
REMARK    1  A    between atoms: C_1  and  C_2
REMARK    2  A    between atoms: C_2  and  N_3
REMARK    3  A    between atoms: C_2  and  C_25
REMARK    4  A    between atoms: N_3  and  C_4
REMARK    5  A    between atoms: C_4  and  C_5
REMARK    6  A    between atoms: C_8  and  C_9
REMARK    7  A    between atoms: C_9  and  N_10
REMARK    8  A    between atoms: C_11  and  C_13
REMARK                            x       y       z     vdW  Elec       q    Type
REMARK                         _______ _______ _______ _____ _____    ______ ____
ROOT
ATOM      1  C   UNL     1      45.595   5.856  11.796  0.00  0.00    +0.000 A 
ATOM      2  C   UNL     1      46.161   4.926  12.676  0.00  0.00    +0.000 A 
ATOM      3  C   UNL     1      47.231   5.282  13.500  0.00  0.00    +0.000 A 
ATOM      4  C   UNL     1      47.762   6.577  13.451  0.00  0.00    +0.000 A 
ATOM      5  C   UNL     1      47.247   7.484  12.517  0.00  0.00    +0.000 A 
ATOM      6  C   UNL     1      46.165   7.133  11.706  0.00  0.00    +0.000 A 
ENDROOT
BRANCH   1   7
ATOM      7  C   UNL     1      44.381   5.494  10.973  0.00  0.00    +0.000 C 
BRANCH   7   8
ATOM      8  N   UNL     1      44.769   5.111   9.614  0.00  0.00    +0.000 NA
ATOM      9  H   UNL     1      44.374   5.780   8.957  0.00  0.00    +0.000 HD
BRANCH   8  11
ATOM     10  C   UNL     1      44.095   2.858  10.447  0.00  0.00    +0.000 C 
ATOM     11  C   UNL     1      44.315   3.772   9.233  0.00  0.00    +0.000 C 
BRANCH  11  12
ATOM     12  C   UNL     1      45.338   3.094   8.327  0.00  0.00    +0.000 A 
ATOM     13  C   UNL     1      46.247   3.860   7.573  0.00  0.00    +0.000 A 
ATOM     14  C   UNL     1      47.314   3.256   6.909  0.00  0.00    +0.000 A 
ATOM     15  C   UNL     1      47.482   1.876   6.977  0.00  0.00    +0.000 A 
ATOM     16  C   UNL     1      46.559   1.102   7.681  0.00  0.00    +0.000 A 
ATOM     17 CL   UNL     1      46.790  -0.600   7.797  0.00  0.00    +0.000 Cl
ATOM     18  C   UNL     1      45.481   1.699   8.337  0.00  0.00    +0.000 A 
ENDBRANCH  11  12
ENDBRANCH   8  11
ENDBRANCH   7   8
ENDBRANCH   1   7
BRANCH   4  19
ATOM     19  C   UNL     1      48.866   6.991  14.388  0.00  0.00    +0.000 C 
BRANCH  19  20
ATOM     20  N   UNL     1      48.406   7.074  15.747  0.00  0.00    +0.000 N 
ATOM     21  C   UNL     1      49.065   6.426  16.760  0.00  0.00    +0.000 C 
ATOM     22  O   UNL     1      50.089   5.783  16.573  0.00  0.00    +0.000 OA
ATOM     23  H   UNL     1      47.447   7.378  15.888  0.00  0.00    +0.000 HD
BRANCH  21  24
ATOM     24  C   UNL     1      48.502   6.606  18.108  0.00  0.00    +0.000 A 
ATOM     25  C   UNL     1      48.241   5.498  18.901  0.00  0.00    +0.000 A 
ATOM     26  S   UNL     1      47.629   5.897  20.444  0.00  0.00    +0.000 S 
ATOM     27  C   UNL     1      47.652   7.559  20.082  0.00  0.00    +0.000 A 
ATOM     28  N   UNL     1      47.217   8.480  20.989  0.00  0.00    +0.000 NA
ATOM     29  C   UNL     1      47.270   9.701  20.575  0.00  0.00    +0.000 A 
ATOM     30  N   UNL     1      47.722  10.089  19.340  0.00  0.00    +0.000 N 
ATOM     31  C   UNL     1      48.196   9.199  18.407  0.00  0.00    +0.000 A 
ATOM     32  O   UNL     1      48.644   9.584  17.332  0.00  0.00    +0.000 OA
ATOM     33  C   UNL     1      48.141   7.809  18.816  0.00  0.00    +0.000 A 
ATOM     34  H   UNL     1      47.755  11.062  19.081  0.00  0.00    +0.000 HD
ENDBRANCH  21  24
ENDBRANCH  19  20
ENDBRANCH   4  19
TORSDOF 7
ENDMDL
MODEL 3
REMARK VINA RESULT:    -7.852      2.844      3.455
REMARK INTER + INTRA:         -12.315
REMARK INTER:                 -11.078
REMARK INTRA:                  -1.237
REMARK UNBOUND:                -1.250
REMARK  Name = 
REMARK  8 active torsions:
REMARK  status: ('A' for Active; 'I' for Inactive)
REMARK    1  A    between atoms: C_1  and  C_2
REMARK    2  A    between atoms: C_2  and  N_3
REMARK    3  A    between atoms: C_2  and  C_25
REMARK    4  A    between atoms: N_3  and  C_4
REMARK    5  A    between atoms: C_4  and  C_5
REMARK    6  A    between atoms: C_8  and  C_9
REMARK    7  A    between atoms: C_9  and  N_10
REMARK    8  A    between atoms: C_11  and  C_13
REMARK                            x       y       z     vdW  Elec       q    Type
REMARK                         _______ _______ _______ _____ _____    ______ ____
ROOT
ATOM      1  C   UNL     1      46.658   4.622  13.578  0.00  0.00    +0.000 A 
ATOM      2  C   UNL     1      47.302   5.794  13.166  0.00  0.00    +0.000 A 
ATOM      3  C   UNL     1      48.140   6.493  14.038  0.00  0.00    +0.000 A 
ATOM      4  C   UNL     1      48.342   6.034  15.346  0.00  0.00    +0.000 A 
ATOM      5  C   UNL     1      47.638   4.905  15.783  0.00  0.00    +0.000 A 
ATOM      6  C   UNL     1      46.814   4.197  14.904  0.00  0.00    +0.000 A 
ENDROOT
BRANCH   1   7
ATOM      7  C   UNL     1      45.824   3.822  12.605  0.00  0.00    +0.000 C 
BRANCH   7   8
ATOM      8  N   UNL     1      44.743   4.640  12.051  0.00  0.00    +0.000 NA
ATOM      9  H   UNL     1      44.154   4.969  12.813  0.00  0.00    +0.000 HD
BRANCH   8  11
ATOM     10  C   UNL     1      43.413   2.569  11.642  0.00  0.00    +0.000 C 
ATOM     11  C   UNL     1      43.897   3.920  11.096  0.00  0.00    +0.000 C 
BRANCH  11  12
ATOM     12  C   UNL     1      44.658   3.647   9.803  0.00  0.00    +0.000 A 
ATOM     13  C   UNL     1      45.200   4.707   9.052  0.00  0.00    +0.000 A 
ATOM     14  C   UNL     1      46.068   4.462   7.989  0.00  0.00    +0.000 A 
ATOM     15  C   UNL     1      46.399   3.152   7.652  0.00  0.00    +0.000 A 
ATOM     16  C   UNL     1      45.829   2.093   8.357  0.00  0.00    +0.000 A 
ATOM     17 CL   UNL     1      46.269   0.475   7.965  0.00  0.00    +0.000 Cl
ATOM     18  C   UNL     1      44.949   2.331   9.414  0.00  0.00    +0.000 A 
ENDBRANCH  11  12
ENDBRANCH   8  11
ENDBRANCH   7   8
ENDBRANCH   1   7
BRANCH   4  19
ATOM     19  C   UNL     1      49.302   6.738  16.269  0.00  0.00    +0.000 C 
BRANCH  19  20
ATOM     20  N   UNL     1      50.343   5.857  16.724  0.00  0.00    +0.000 N 
ATOM     21  C   UNL     1      50.468   5.534  18.050  0.00  0.00    +0.000 C 
ATOM     22  O   UNL     1      49.690   5.939  18.903  0.00  0.00    +0.000 OA
ATOM     23  H   UNL     1      51.130   5.715  16.097  0.00  0.00    +0.000 HD
BRANCH  21  24
ATOM     24  C   UNL     1      51.563   4.607  18.382  0.00  0.00    +0.000 A 
ATOM     25  C   UNL     1      52.650   5.058  19.118  0.00  0.00    +0.000 A 
ATOM     26  S   UNL     1      53.801   3.840  19.443  0.00  0.00    +0.000 S 
ATOM     27  C   UNL     1      52.904   2.686  18.572  0.00  0.00    +0.000 A 
ATOM     28  N   UNL     1      53.356   1.406  18.433  0.00  0.00    +0.000 NA
ATOM     29  C   UNL     1      52.588   0.644  17.731  0.00  0.00    +0.000 A 
ATOM     30  N   UNL     1      51.406   1.039  17.159  0.00  0.00    +0.000 N 
ATOM     31  C   UNL     1      50.899   2.308  17.297  0.00  0.00    +0.000 A 
ATOM     32  O   UNL     1      49.812   2.614  16.818  0.00  0.00    +0.000 OA
ATOM     33  C   UNL     1      51.735   3.212  18.063  0.00  0.00    +0.000 A 
ATOM     34  H   UNL     1      50.840   0.390  16.635  0.00  0.00    +0.000 HD
ENDBRANCH  21  24
ENDBRANCH  19  20
ENDBRANCH   4  19
TORSDOF 7
ENDMDL
MODEL 4
REMARK VINA RESULT:    -7.775      3.478      8.343
REMARK INTER + INTRA:         -12.206
REMARK INTER:                 -10.199
REMARK INTRA:                  -2.007
REMARK UNBOUND:                -1.250
REMARK  Name = 
REMARK  8 active torsions:
REMARK  status: ('A' for Active; 'I' for Inactive)
REMARK    1  A    between atoms: C_1  and  C_2
REMARK    2  A    between atoms: C_2  and  N_3
REMARK    3  A    between atoms: C_2  and  C_25
REMARK    4  A    between atoms: N_3  and  C_4
REMARK    5  A    between atoms: C_4  and  C_5
REMARK    6  A    between atoms: C_8  and  C_9
REMARK    7  A    between atoms: C_9  and  N_10
REMARK    8  A    between atoms: C_11  and  C_13
REMARK                            x       y       z     vdW  Elec       q    Type
REMARK                         _______ _______ _______ _____ _____    ______ ____
ROOT
ATOM      1  C   UNL     1      48.851   8.057  15.993  0.00  0.00    +0.000 A 
ATOM      2  C   UNL     1      48.150   9.091  15.361  0.00  0.00    +0.000 A 
ATOM      3  C   UNL     1      47.779   8.986  14.019  0.00  0.00    +0.000 A 
ATOM      4  C   UNL     1      48.113   7.845  13.279  0.00  0.00    +0.000 A 
ATOM      5  C   UNL     1      48.881   6.844  13.888  0.00  0.00    +0.000 A 
ATOM      6  C   UNL     1      49.236   6.942  15.236  0.00  0.00    +0.000 A 
ENDROOT
BRANCH   1   7
ATOM      7  C   UNL     1      49.171   8.136  17.467  0.00  0.00    +0.000 C 
BRANCH   7   8
ATOM      8  N   UNL     1      48.161   7.430  18.258  0.00  0.00    +0.000 NA
ATOM      9  H   UNL     1      47.716   8.091  18.891  0.00  0.00    +0.000 HD
BRANCH   8  11
ATOM     10  C   UNL     1      50.208   6.494  19.332  0.00  0.00    +0.000 C 
ATOM     11  C   UNL     1      48.707   6.329  19.054  0.00  0.00    +0.000 C 
BRANCH  11  12
ATOM     12  C   UNL     1      48.516   4.998  18.334  0.00  0.00    +0.000 A 
ATOM     13  C   UNL     1      47.319   4.718  17.650  0.00  0.00    +0.000 A 
ATOM     14  C   UNL     1      47.211   3.603  16.820  0.00  0.00    +0.000 A 
ATOM     15  C   UNL     1      48.296   2.742  16.671  0.00  0.00    +0.000 A 
ATOM     16  C   UNL     1      49.471   2.982  17.383  0.00  0.00    +0.000 A 
ATOM     17 CL   UNL     1      50.824   1.940  17.168  0.00  0.00    +0.000 Cl
ATOM     18  C   UNL     1      49.580   4.090  18.226  0.00  0.00    +0.000 A 
ENDBRANCH  11  12
ENDBRANCH   8  11
ENDBRANCH   7   8
ENDBRANCH   1   7
BRANCH   4  19
ATOM     19  C   UNL     1      47.653   7.690  11.853  0.00  0.00    +0.000 C 
BRANCH  19  20
ATOM     20  N   UNL     1      46.922   6.467  11.662  0.00  0.00    +0.000 N 
ATOM     21  C   UNL     1      45.555   6.436  11.760  0.00  0.00    +0.000 C 
ATOM     22  O   UNL     1      44.887   7.438  11.975  0.00  0.00    +0.000 OA
ATOM     23  H   UNL     1      47.449   5.602  11.735  0.00  0.00    +0.000 HD
BRANCH  21  24
ATOM     24  C   UNL     1      44.926   5.126  11.524  0.00  0.00    +0.000 A 
ATOM     25  C   UNL     1      44.208   4.511  12.540  0.00  0.00    +0.000 A 
ATOM     26  S   UNL     1      43.517   3.021  12.076  0.00  0.00    +0.000 S 
ATOM     27  C   UNL     1      44.194   3.131  10.519  0.00  0.00    +0.000 A 
ATOM     28  N   UNL     1      44.005   2.139   9.602  0.00  0.00    +0.000 NA
ATOM     29  C   UNL     1      44.592   2.342   8.471  0.00  0.00    +0.000 A 
ATOM     30  N   UNL     1      45.347   3.447   8.169  0.00  0.00    +0.000 N 
ATOM     31  C   UNL     1      45.538   4.482   9.051  0.00  0.00    +0.000 A 
ATOM     32  O   UNL     1      46.173   5.482   8.730  0.00  0.00    +0.000 OA
ATOM     33  C   UNL     1      44.913   4.295  10.346  0.00  0.00    +0.000 A 
ATOM     34  H   UNL     1      45.766   3.557   7.259  0.00  0.00    +0.000 HD
ENDBRANCH  21  24
ENDBRANCH  19  20
ENDBRANCH   4  19
TORSDOF 7
ENDMDL
MODEL 5
REMARK VINA RESULT:    -7.603      3.795      8.030
REMARK INTER + INTRA:         -11.965
REMARK INTER:                 -10.064
REMARK INTRA:                  -1.900
REMARK UNBOUND:                -1.250
REMARK  Name = 
REMARK  8 active torsions:
REMARK  status: ('A' for Active; 'I' for Inactive)
REMARK    1  A    between atoms: C_1  and  C_2
REMARK    2  A    between atoms: C_2  and  N_3
REMARK    3  A    between atoms: C_2  and  C_25
REMARK    4  A    between atoms: N_3  and  C_4
REMARK    5  A    between atoms: C_4  and  C_5
REMARK    6  A    between atoms: C_8  and  C_9
REMARK    7  A    between atoms: C_9  and  N_10
REMARK    8  A    between atoms: C_11  and  C_13
REMARK                            x       y       z     vdW  Elec       q    Type
REMARK                         _______ _______ _______ _____ _____    ______ ____
ROOT
ATOM      1  C   UNL     1      48.709   8.023  16.240  0.00  0.00    +0.000 A 
ATOM      2  C   UNL     1      49.077   6.894  15.498  0.00  0.00    +0.000 A 
ATOM      3  C   UNL     1      48.979   6.892  14.105  0.00  0.00    +0.000 A 
ATOM      4  C   UNL     1      48.500   8.020  13.427  0.00  0.00    +0.000 A 
ATOM      5  C   UNL     1      48.060   9.121  14.172  0.00  0.00    +0.000 A 
ATOM      6  C   UNL     1      48.175   9.129  15.565  0.00  0.00    +0.000 A 
ENDROOT
BRANCH   1   7
ATOM      7  C   UNL     1      48.901   8.053  17.738  0.00  0.00    +0.000 C 
BRANCH   7   8
ATOM      8  N   UNL     1      47.800   7.366  18.418  0.00  0.00    +0.000 NA
ATOM      9  H   UNL     1      47.299   8.038  18.996  0.00  0.00    +0.000 HD
BRANCH   8  11
ATOM     10  C   UNL     1      49.642   6.495  19.856  0.00  0.00    +0.000 C 
ATOM     11  C   UNL     1      48.240   6.263  19.274  0.00  0.00    +0.000 C 
BRANCH  11  12
ATOM     12  C   UNL     1      48.278   4.955  18.491  0.00  0.00    +0.000 A 
ATOM     13  C   UNL     1      47.182   4.562  17.700  0.00  0.00    +0.000 A 
ATOM     14  C   UNL     1      47.282   3.483  16.823  0.00  0.00    +0.000 A 
ATOM     15  C   UNL     1      48.477   2.773  16.731  0.00  0.00    +0.000 A 
ATOM     16  C   UNL     1      49.553   3.123  17.546  0.00  0.00    +0.000 A 
ATOM     17 CL   UNL     1      51.041   2.269  17.403  0.00  0.00    +0.000 Cl
ATOM     18  C   UNL     1      49.454   4.193  18.436  0.00  0.00    +0.000 A 
ENDBRANCH  11  12
ENDBRANCH   8  11
ENDBRANCH   7   8
ENDBRANCH   1   7
BRANCH   4  19
ATOM     19  C   UNL     1      48.462   8.055  11.921  0.00  0.00    +0.000 C 
BRANCH  19  20
ATOM     20  N   UNL     1      47.717   6.949  11.384  0.00  0.00    +0.000 N 
ATOM     21  C   UNL     1      46.347   6.958  11.368  0.00  0.00    +0.000 C 
ATOM     22  O   UNL     1      45.690   7.910  11.767  0.00  0.00    +0.000 OA
ATOM     23  H   UNL     1      48.213   6.068  11.286  0.00  0.00    +0.000 HD
BRANCH  21  24
ATOM     24  C   UNL     1      45.706   5.773  10.774  0.00  0.00    +0.000 A 
ATOM     25  C   UNL     1      45.834   5.528   9.414  0.00  0.00    +0.000 A 
ATOM     26  S   UNL     1      45.061   4.093   8.908  0.00  0.00    +0.000 S 
ATOM     27  C   UNL     1      44.495   3.780  10.482  0.00  0.00    +0.000 A 
ATOM     28  N   UNL     1      43.723   2.686  10.744  0.00  0.00    +0.000 NA
ATOM     29  C   UNL     1      43.346   2.584  11.974  0.00  0.00    +0.000 A 
ATOM     30  N   UNL     1      43.674   3.470  12.969  0.00  0.00    +0.000 N 
ATOM     31  C   UNL     1      44.473   4.566  12.756  0.00  0.00    +0.000 A 
ATOM     32  O   UNL     1      44.792   5.309  13.678  0.00  0.00    +0.000 OA
ATOM     33  C   UNL     1      44.909   4.739  11.383  0.00  0.00    +0.000 A 
ATOM     34  H   UNL     1      43.363   3.325  13.916  0.00  0.00    +0.000 HD
ENDBRANCH  21  24
ENDBRANCH  19  20
ENDBRANCH   4  19
TORSDOF 7
ENDMDL
MODEL 6
REMARK VINA RESULT:    -7.504      4.575     10.200
REMARK INTER + INTRA:         -11.825
REMARK INTER:                 -10.106
REMARK INTRA:                  -1.719
REMARK UNBOUND:                -1.250
REMARK  Name = 
REMARK  8 active torsions:
REMARK  status: ('A' for Active; 'I' for Inactive)
REMARK    1  A    between atoms: C_1  and  C_2
REMARK    2  A    between atoms: C_2  and  N_3
REMARK    3  A    between atoms: C_2  and  C_25
REMARK    4  A    between atoms: N_3  and  C_4
REMARK    5  A    between atoms: C_4  and  C_5
REMARK    6  A    between atoms: C_8  and  C_9
REMARK    7  A    between atoms: C_9  and  N_10
REMARK    8  A    between atoms: C_11  and  C_13
REMARK                            x       y       z     vdW  Elec       q    Type
REMARK                         _______ _______ _______ _____ _____    ______ ____
ROOT
ATOM      1  C   UNL     1      51.471   3.448  17.745  0.00  0.00    +0.000 A 
ATOM      2  C   UNL     1      50.742   4.642  17.706  0.00  0.00    +0.000 A 
ATOM      3  C   UNL     1      49.380   4.638  17.396  0.00  0.00    +0.000 A 
ATOM      4  C   UNL     1      48.724   3.435  17.108  0.00  0.00    +0.000 A 
ATOM      5  C   UNL     1      49.468   2.249  17.071  0.00  0.00    +0.000 A 
ATOM      6  C   UNL     1      50.826   2.252  17.400  0.00  0.00    +0.000 A 
ENDROOT
BRANCH   1   7
ATOM      7  C   UNL     1      52.921   3.447  18.169  0.00  0.00    +0.000 C 
BRANCH   7   8
ATOM      8  N   UNL     1      53.058   2.994  19.555  0.00  0.00    +0.000 NA
ATOM      9  H   UNL     1      52.144   2.708  19.900  0.00  0.00    +0.000 HD
BRANCH   8  11
ATOM     10  C   UNL     1      54.072   3.436  21.790  0.00  0.00    +0.000 C 
ATOM     11  C   UNL     1      53.588   4.020  20.455  0.00  0.00    +0.000 C 
BRANCH  11  12
ATOM     12  C   UNL     1      52.521   5.063  20.769  0.00  0.00    +0.000 A 
ATOM     13  C   UNL     1      52.705   6.410  20.405  0.00  0.00    +0.000 A 
ATOM     14  C   UNL     1      51.659   7.327  20.497  0.00  0.00    +0.000 A 
ATOM     15  C   UNL     1      50.415   6.914  20.968  0.00  0.00    +0.000 A 
ATOM     16  C   UNL     1      50.235   5.594  21.379  0.00  0.00    +0.000 A 
ATOM     17 CL   UNL     1      48.686   5.077  21.924  0.00  0.00    +0.000 Cl
ATOM     18  C   UNL     1      51.282   4.675  21.301  0.00  0.00    +0.000 A 
ENDBRANCH  11  12
ENDBRANCH   8  11
ENDBRANCH   7   8
ENDBRANCH   1   7
BRANCH   4  19
ATOM     19  C   UNL     1      47.240   3.411  16.846  0.00  0.00    +0.000 C 
BRANCH  19  20
ATOM     20  N   UNL     1      46.858   4.398  15.873  0.00  0.00    +0.000 N 
ATOM     21  C   UNL     1      46.945   4.140  14.530  0.00  0.00    +0.000 C 
ATOM     22  O   UNL     1      47.309   3.057  14.090  0.00  0.00    +0.000 OA
ATOM     23  H   UNL     1      46.798   5.359  16.195  0.00  0.00    +0.000 HD
BRANCH  21  24
ATOM     24  C   UNL     1      46.504   5.226  13.639  0.00  0.00    +0.000 A 
ATOM     25  C   UNL     1      47.331   6.320  13.426  0.00  0.00    +0.000 A 
ATOM     26  S   UNL     1      46.677   7.460  12.336  0.00  0.00    +0.000 S 
ATOM     27  C   UNL     1      45.253   6.548  12.153  0.00  0.00    +0.000 A 
ATOM     28  N   UNL     1      44.237   6.987  11.354  0.00  0.00    +0.000 NA
ATOM     29  C   UNL     1      43.209   6.207  11.324  0.00  0.00    +0.000 A 
ATOM     30  N   UNL     1      43.103   5.027  12.015  0.00  0.00    +0.000 N 
ATOM     31  C   UNL     1      44.110   4.533  12.806  0.00  0.00    +0.000 A 
ATOM     32  O   UNL     1      44.004   3.448  13.367  0.00  0.00    +0.000 OA
ATOM     33  C   UNL     1      45.284   5.382  12.889  0.00  0.00    +0.000 A 
ATOM     34  H   UNL     1      42.278   4.453  11.937  0.00  0.00    +0.000 HD
ENDBRANCH  21  24
ENDBRANCH  19  20
ENDBRANCH   4  19
TORSDOF 7
ENDMDL
MODEL 7
REMARK VINA RESULT:    -7.196      4.250      9.124
REMARK INTER + INTRA:         -11.391
REMARK INTER:                  -8.994
REMARK INTRA:                  -2.397
REMARK UNBOUND:                -1.250
REMARK  Name = 
REMARK  8 active torsions:
REMARK  status: ('A' for Active; 'I' for Inactive)
REMARK    1  A    between atoms: C_1  and  C_2
REMARK    2  A    between atoms: C_2  and  N_3
REMARK    3  A    between atoms: C_2  and  C_25
REMARK    4  A    between atoms: N_3  and  C_4
REMARK    5  A    between atoms: C_4  and  C_5
REMARK    6  A    between atoms: C_8  and  C_9
REMARK    7  A    between atoms: C_9  and  N_10
REMARK    8  A    between atoms: C_11  and  C_13
REMARK                            x       y       z     vdW  Elec       q    Type
REMARK                         _______ _______ _______ _____ _____    ______ ____
ROOT
ATOM      1  C   UNL     1      49.253   5.802  19.965  0.00  0.00    +0.000 A 
ATOM      2  C   UNL     1      49.886   4.703  19.372  0.00  0.00    +0.000 A 
ATOM      3  C   UNL     1      49.264   3.990  18.344  0.00  0.00    +0.000 A 
ATOM      4  C   UNL     1      47.990   4.360  17.896  0.00  0.00    +0.000 A 
ATOM      5  C   UNL     1      47.325   5.410  18.540  0.00  0.00    +0.000 A 
ATOM      6  C   UNL     1      47.954   6.134  19.556  0.00  0.00    +0.000 A 
ENDROOT
BRANCH   1   7
ATOM      7  C   UNL     1      49.966   6.624  21.013  0.00  0.00    +0.000 C 
BRANCH   7   8
ATOM      8  N   UNL     1      51.314   6.980  20.566  0.00  0.00    +0.000 NA
ATOM      9  H   UNL     1      51.915   7.084  21.382  0.00  0.00    +0.000 HD
BRANCH   8  11
ATOM     10  C   UNL     1      50.350   9.265  20.298  0.00  0.00    +0.000 C 
ATOM     11  C   UNL     1      51.365   8.226  19.799  0.00  0.00    +0.000 C 
BRANCH  11  12
ATOM     12  C   UNL     1      51.067   7.964  18.326  0.00  0.00    +0.000 A 
ATOM     13  C   UNL     1      51.815   7.016  17.602  0.00  0.00    +0.000 A 
ATOM     14  C   UNL     1      51.422   6.618  16.325  0.00  0.00    +0.000 A 
ATOM     15  C   UNL     1      50.282   7.171  15.746  0.00  0.00    +0.000 A 
ATOM     16  C   UNL     1      49.562   8.147  16.435  0.00  0.00    +0.000 A 
ATOM     17 CL   UNL     1      48.132   8.801  15.735  0.00  0.00    +0.000 Cl
ATOM     18  C   UNL     1      49.958   8.559  17.708  0.00  0.00    +0.000 A 
ENDBRANCH  11  12
ENDBRANCH   8  11
ENDBRANCH   7   8
ENDBRANCH   1   7
BRANCH   4  19
ATOM     19  C   UNL     1      47.344   3.644  16.738  0.00  0.00    +0.000 C 
BRANCH  19  20
ATOM     20  N   UNL     1      46.880   4.566  15.738  0.00  0.00    +0.000 N 
ATOM     21  C   UNL     1      46.851   4.217  14.412  0.00  0.00    +0.000 C 
ATOM     22  O   UNL     1      47.175   3.106  14.016  0.00  0.00    +0.000 OA
ATOM     23  H   UNL     1      46.849   5.547  15.998  0.00  0.00    +0.000 HD
BRANCH  21  24
ATOM     24  C   UNL     1      46.337   5.245  13.491  0.00  0.00    +0.000 A 
ATOM     25  C   UNL     1      47.133   6.331  13.156  0.00  0.00    +0.000 A 
ATOM     26  S   UNL     1      46.391   7.398  12.049  0.00  0.00    +0.000 S 
ATOM     27  C   UNL     1      44.969   6.465  12.020  0.00  0.00    +0.000 A 
ATOM     28  N   UNL     1      43.895   6.846  11.270  0.00  0.00    +0.000 NA
ATOM     29  C   UNL     1      42.877   6.058  11.358  0.00  0.00    +0.000 A 
ATOM     30  N   UNL     1      42.833   4.921  12.124  0.00  0.00    +0.000 N 
ATOM     31  C   UNL     1      43.899   4.484  12.871  0.00  0.00    +0.000 A 
ATOM     32  O   UNL     1      43.846   3.433  13.501  0.00  0.00    +0.000 OA
ATOM     33  C   UNL     1      45.065   5.345  12.821  0.00  0.00    +0.000 A 
ATOM     34  H   UNL     1      42.012   4.336  12.137  0.00  0.00    +0.000 HD
ENDBRANCH  21  24
ENDBRANCH  19  20
ENDBRANCH   4  19
TORSDOF 7
ENDMDL
MODEL 8
REMARK VINA RESULT:    -7.075      5.336      9.666
REMARK INTER + INTRA:         -11.220
REMARK INTER:                 -10.277
REMARK INTRA:                  -0.944
REMARK UNBOUND:                -1.250
REMARK  Name = 
REMARK  8 active torsions:
REMARK  status: ('A' for Active; 'I' for Inactive)
REMARK    1  A    between atoms: C_1  and  C_2
REMARK    2  A    between atoms: C_2  and  N_3
REMARK    3  A    between atoms: C_2  and  C_25
REMARK    4  A    between atoms: N_3  and  C_4
REMARK    5  A    between atoms: C_4  and  C_5
REMARK    6  A    between atoms: C_8  and  C_9
REMARK    7  A    between atoms: C_9  and  N_10
REMARK    8  A    between atoms: C_11  and  C_13
REMARK                            x       y       z     vdW  Elec       q    Type
REMARK                         _______ _______ _______ _____ _____    ______ ____
ROOT
ATOM      1  C   UNL     1      51.462   2.927  17.763  0.00  0.00    +0.000 A 
ATOM      2  C   UNL     1      50.800   4.117  18.087  0.00  0.00    +0.000 A 
ATOM      3  C   UNL     1      49.437   4.270  17.821  0.00  0.00    +0.000 A 
ATOM      4  C   UNL     1      48.713   3.235  17.216  0.00  0.00    +0.000 A 
ATOM      5  C   UNL     1      49.391   2.075  16.822  0.00  0.00    +0.000 A 
ATOM      6  C   UNL     1      50.750   1.915  17.105  0.00  0.00    +0.000 A 
ENDROOT
BRANCH   1   7
ATOM      7  C   UNL     1      52.914   2.732  18.134  0.00  0.00    +0.000 C 
BRANCH   7   8
ATOM      8  N   UNL     1      53.208   1.315  18.359  0.00  0.00    +0.000 NA
ATOM      9  H   UNL     1      52.990   1.082  19.326  0.00  0.00    +0.000 HD
BRANCH   8  11
ATOM     10  C   UNL     1      55.150   1.597  16.819  0.00  0.00    +0.000 C 
ATOM     11  C   UNL     1      54.607   0.962  18.107  0.00  0.00    +0.000 C 
BRANCH  11  12
ATOM     12  C   UNL     1      54.766  -0.549  17.976  0.00  0.00    +0.000 A 
ATOM     13  C   UNL     1      54.489  -1.395  19.066  0.00  0.00    +0.000 A 
ATOM     14  C   UNL     1      54.429  -2.779  18.902  0.00  0.00    +0.000 A 
ATOM     15  C   UNL     1      54.656  -3.338  17.647  0.00  0.00    +0.000 A 
ATOM     16  C   UNL     1      54.980  -2.513  16.571  0.00  0.00    +0.000 A 
ATOM     17 CL   UNL     1      55.222  -3.203  15.012  0.00  0.00    +0.000 Cl
ATOM     18  C   UNL     1      55.055  -1.128  16.732  0.00  0.00    +0.000 A 
ENDBRANCH  11  12
ENDBRANCH   8  11
ENDBRANCH   7   8
ENDBRANCH   1   7
BRANCH   4  19
ATOM     19  C   UNL     1      47.228   3.362  16.994  0.00  0.00    +0.000 C 
BRANCH  19  20
ATOM     20  N   UNL     1      46.922   4.369  16.015  0.00  0.00    +0.000 N 
ATOM     21  C   UNL     1      46.998   4.098  14.673  0.00  0.00    +0.000 C 
ATOM     22  O   UNL     1      47.287   2.991  14.240  0.00  0.00    +0.000 OA
ATOM     23  H   UNL     1      46.929   5.334  16.332  0.00  0.00    +0.000 HD
BRANCH  21  24
ATOM     24  C   UNL     1      46.641   5.209  13.775  0.00  0.00    +0.000 A 
ATOM     25  C   UNL     1      47.544   6.241  13.562  0.00  0.00    +0.000 A 
ATOM     26  S   UNL     1      46.980   7.419  12.463  0.00  0.00    +0.000 S 
ATOM     27  C   UNL     1      45.495   6.610  12.275  0.00  0.00    +0.000 A 
ATOM     28  N   UNL     1      44.518   7.115  11.469  0.00  0.00    +0.000 NA
ATOM     29  C   UNL     1      43.438   6.411  11.436  0.00  0.00    +0.000 A 
ATOM     30  N   UNL     1      43.243   5.245  12.131  0.00  0.00    +0.000 N 
ATOM     31  C   UNL     1      44.209   4.685  12.931  0.00  0.00    +0.000 A 
ATOM     32  O   UNL     1      44.023   3.612  13.496  0.00  0.00    +0.000 OA
ATOM     33  C   UNL     1      45.439   5.448  13.017  0.00  0.00    +0.000 A 
ATOM     34  H   UNL     1      42.381   4.730  12.050  0.00  0.00    +0.000 HD
ENDBRANCH  21  24
ENDBRANCH  19  20
ENDBRANCH   4  19
TORSDOF 7
ENDMDL
