MODEL 1
REMARK VINA RESULT:    -6.738      0.000      0.000
REMARK INTER + INTRA:          -8.423
REMARK INTER:                  -7.920
REMARK INTRA:                  -0.503
REMARK UNBOUND:                -0.503
REMARK  Name = 
REMARK  3 active torsions:
REMARK  status: ('A' for Active; 'I' for Inactive)
REMARK    1  A    between atoms: C_7  and  C_8
REMARK    2  A    between atoms: C_8  and  O_9
REMARK    3  A    between atoms: O_9  and  C_10
REMARK                            x       y       z     vdW  Elec       q    Type
REMARK                         _______ _______ _______ _____ _____    ______ ____
ROOT
ATOM      1  C   UNL     1      47.833   6.903  13.732  0.00  0.00    +0.000 A 
ATOM      2  C   UNL     1      47.320   8.184  13.665  0.00  0.00    +0.000 A 
ATOM      3  C   UNL     1      46.130   8.354  12.984  0.00  0.00    +0.000 A 
ATOM      4  N   UNL     1      45.448   7.350  12.383  0.00  0.00    +0.000 NA
ATOM      5  C   UNL     1      45.943   6.097  12.451  0.00  0.00    +0.000 A 
ATOM      6  N   UNL     1      45.237   5.065  11.874  0.00  0.00    +0.000 N 
ATOM      7  C   UNL     1      44.292   5.328  10.787  0.00  0.00    +0.000 C 
ATOM      8  C   UNL     1      42.907   4.714  11.094  0.00  0.00    +0.000 C 
ATOM      9  N   UNL     1      42.957   3.285  11.479  0.00  0.00    +0.000 NA
ATOM     10  C   UNL     1      43.871   3.143  12.630  0.00  0.00    +0.000 C 
ATOM     11  C   UNL     1      45.294   3.689  12.370  0.00  0.00    +0.000 C 
ATOM     12  C   UNL     1      47.151   5.863  13.103  0.00  0.00    +0.000 A 
ATOM     13  H   UNL     1      43.351   2.762  10.696  0.00  0.00    +0.000 HD
ENDROOT
BRANCH   1  14
ATOM     14  O   UNL     1      48.989   6.528  14.357  0.00  0.00    +0.000 OA
BRANCH  14  15
ATOM     15  C   UNL     1      49.194   7.061  15.666  0.00  0.00    +0.000 C 
BRANCH  15  22
ATOM     16 CL   UNL     1      47.706   5.773  20.486  0.00  0.00    +0.000 Cl
ATOM     17  C   UNL     1      48.185   5.357  18.887  0.00  0.00    +0.000 A 
ATOM     18  C   UNL     1      48.319   4.024  18.535  0.00  0.00    +0.000 A 
ATOM     19  C   UNL     1      48.719   3.760  17.242  0.00  0.00    +0.000 A 
ATOM     20 CL   UNL     1      48.922   2.147  16.697  0.00  0.00    +0.000 Cl
ATOM     21  N   UNL     1      48.994   4.701  16.316  0.00  0.00    +0.000 NA
ATOM     22  C   UNL     1      48.849   5.998  16.684  0.00  0.00    +0.000 A 
ATOM     23  C   UNL     1      48.445   6.364  17.964  0.00  0.00    +0.000 A 
ENDBRANCH  15  22
ENDBRANCH  14  15
ENDBRANCH   1  14
TORSDOF 3
ENDMDL
MODEL 2
REMARK VINA RESULT:    -6.324      1.112      1.713
REMARK INTER + INTRA:          -7.936
REMARK INTER:                  -7.531
REMARK INTRA:                  -0.405
REMARK UNBOUND:                -0.503
REMARK  Name = 
REMARK  3 active torsions:
REMARK  status: ('A' for Active; 'I' for Inactive)
REMARK    1  A    between atoms: C_7  and  C_8
REMARK    2  A    between atoms: C_8  and  O_9
REMARK    3  A    between atoms: O_9  and  C_10
REMARK                            x       y       z     vdW  Elec       q    Type
REMARK                         _______ _______ _______ _____ _____    ______ ____
ROOT
ATOM      1  C   UNL     1      47.863   6.816  13.746  0.00  0.00    +0.000 A 
ATOM      2  C   UNL     1      47.373   8.107  13.679  0.00  0.00    +0.000 A 
ATOM      3  C   UNL     1      46.190   8.300  12.992  0.00  0.00    +0.000 A 
ATOM      4  N   UNL     1      45.493   7.308  12.386  0.00  0.00    +0.000 NA
ATOM      5  C   UNL     1      45.965   6.047  12.455  0.00  0.00    +0.000 A 
ATOM      6  N   UNL     1      45.243   5.029  11.873  0.00  0.00    +0.000 N 
ATOM      7  C   UNL     1      44.308   5.310  10.781  0.00  0.00    +0.000 C 
ATOM      8  C   UNL     1      42.912   4.721  11.080  0.00  0.00    +0.000 C 
ATOM      9  N   UNL     1      42.933   3.290  11.463  0.00  0.00    +0.000 NA
ATOM     10  C   UNL     1      43.838   3.130  12.619  0.00  0.00    +0.000 C 
ATOM     11  C   UNL     1      45.272   3.651  12.367  0.00  0.00    +0.000 C 
ATOM     12  C   UNL     1      47.165   5.790  13.113  0.00  0.00    +0.000 A 
ATOM     13  H   UNL     1      43.322   2.762  10.682  0.00  0.00    +0.000 HD
ENDROOT
BRANCH   1  14
ATOM     14  O   UNL     1      49.008   6.420  14.377  0.00  0.00    +0.000 OA
BRANCH  14  15
ATOM     15  C   UNL     1      49.286   7.054  15.627  0.00  0.00    +0.000 C 
BRANCH  15  22
ATOM     16 CL   UNL     1      47.151   2.749  17.630  0.00  0.00    +0.000 Cl
ATOM     17  C   UNL     1      48.273   4.051  17.689  0.00  0.00    +0.000 A 
ATOM     18  C   UNL     1      49.106   4.191  18.788  0.00  0.00    +0.000 A 
ATOM     19  C   UNL     1      49.972   5.263  18.777  0.00  0.00    +0.000 A 
ATOM     20 CL   UNL     1      51.046   5.538  20.086  0.00  0.00    +0.000 Cl
ATOM     21  N   UNL     1      50.054   6.177  17.789  0.00  0.00    +0.000 NA
ATOM     22  C   UNL     1      49.232   6.014  16.722  0.00  0.00    +0.000 A 
ATOM     23  C   UNL     1      48.327   4.960  16.638  0.00  0.00    +0.000 A 
ENDBRANCH  15  22
ENDBRANCH  14  15
ENDBRANCH   1  14
TORSDOF 3
ENDMDL
MODEL 3
REMARK VINA RESULT:    -6.205      0.840      1.959
REMARK INTER + INTRA:          -7.797
REMARK INTER:                  -7.355
REMARK INTRA:                  -0.442
REMARK UNBOUND:                -0.503
REMARK  Name = 
REMARK  3 active torsions:
REMARK  status: ('A' for Active; 'I' for Inactive)
REMARK    1  A    between atoms: C_7  and  C_8
REMARK    2  A    between atoms: C_8  and  O_9
REMARK    3  A    between atoms: O_9  and  C_10
REMARK                            x       y       z     vdW  Elec       q    Type
REMARK                         _______ _______ _______ _____ _____    ______ ____
ROOT
ATOM      1  C   UNL     1      48.000   6.859  13.747  0.00  0.00    +0.000 A 
ATOM      2  C   UNL     1      47.745   8.139  13.292  0.00  0.00    +0.000 A 
ATOM      3  C   UNL     1      46.746   8.288  12.348  0.00  0.00    +0.000 A 
ATOM      4  N   UNL     1      46.015   7.263  11.847  0.00  0.00    +0.000 NA
ATOM      5  C   UNL     1      46.258   6.013  12.293  0.00  0.00    +0.000 A 
ATOM      6  N   UNL     1      45.495   4.971  11.816  0.00  0.00    +0.000 N 
ATOM      7  C   UNL     1      44.823   5.075  10.519  0.00  0.00    +0.000 C 
ATOM      8  C   UNL     1      43.319   4.743  10.644  0.00  0.00    +0.000 C 
ATOM      9  N   UNL     1      43.042   3.462  11.333  0.00  0.00    +0.000 NA
ATOM     10  C   UNL     1      43.694   3.494  12.657  0.00  0.00    +0.000 C 
ATOM     11  C   UNL     1      45.215   3.768  12.600  0.00  0.00    +0.000 C 
ATOM     12  C   UNL     1      47.267   5.794  13.227  0.00  0.00    +0.000 A 
ATOM     13  H   UNL     1      43.471   2.714  10.788  0.00  0.00    +0.000 HD
ENDROOT
BRANCH   1  14
ATOM     14  O   UNL     1      48.938   6.506  14.674  0.00  0.00    +0.000 OA
BRANCH  14  15
ATOM     15  C   UNL     1      48.854   7.171  15.935  0.00  0.00    +0.000 C 
BRANCH  15  22
ATOM     16 CL   UNL     1      49.916   2.351  17.592  0.00  0.00    +0.000 Cl
ATOM     17  C   UNL     1      49.269   3.926  17.832  0.00  0.00    +0.000 A 
ATOM     18  C   UNL     1      48.645   4.238  19.030  0.00  0.00    +0.000 A 
ATOM     19  C   UNL     1      48.137   5.513  19.152  0.00  0.00    +0.000 A 
ATOM     20 CL   UNL     1      47.341   6.008  20.588  0.00  0.00    +0.000 Cl
ATOM     21  N   UNL     1      48.196   6.460  18.192  0.00  0.00    +0.000 NA
ATOM     22  C   UNL     1      48.817   6.132  17.032  0.00  0.00    +0.000 A 
ATOM     23  C   UNL     1      49.366   4.871  16.817  0.00  0.00    +0.000 A 
ENDBRANCH  15  22
ENDBRANCH  14  15
ENDBRANCH   1  14
TORSDOF 3
ENDMDL
MODEL 4
REMARK VINA RESULT:    -6.189      2.074      4.109
REMARK INTER + INTRA:          -7.778
REMARK INTER:                  -7.319
REMARK INTRA:                  -0.459
REMARK UNBOUND:                -0.503
REMARK  Name = 
REMARK  3 active torsions:
REMARK  status: ('A' for Active; 'I' for Inactive)
REMARK    1  A    between atoms: C_7  and  C_8
REMARK    2  A    between atoms: C_8  and  O_9
REMARK    3  A    between atoms: O_9  and  C_10
REMARK                            x       y       z     vdW  Elec       q    Type
REMARK                         _______ _______ _______ _____ _____    ______ ____
ROOT
ATOM      1  C   UNL     1      45.377   4.817  13.024  0.00  0.00    +0.000 A 
ATOM      2  C   UNL     1      44.722   4.575  11.830  0.00  0.00    +0.000 A 
ATOM      3  C   UNL     1      44.441   5.667  11.030  0.00  0.00    +0.000 A 
ATOM      4  N   UNL     1      44.763   6.944  11.347  0.00  0.00    +0.000 NA
ATOM      5  C   UNL     1      45.408   7.183  12.508  0.00  0.00    +0.000 A 
ATOM      6  N   UNL     1      45.771   8.474  12.819  0.00  0.00    +0.000 N 
ATOM      7  C   UNL     1      45.057   9.609  12.230  0.00  0.00    +0.000 C 
ATOM      8  C   UNL     1      46.041  10.602  11.571  0.00  0.00    +0.000 C 
ATOM      9  N   UNL     1      47.155  11.019  12.454  0.00  0.00    +0.000 NA
ATOM     10  C   UNL     1      47.855   9.808  12.925  0.00  0.00    +0.000 C 
ATOM     11  C   UNL     1      46.936   8.794  13.645  0.00  0.00    +0.000 C 
ATOM     12  C   UNL     1      45.699   6.128  13.369  0.00  0.00    +0.000 A 
ATOM     13  H   UNL     1      46.754  11.488  13.266  0.00  0.00    +0.000 HD
ENDROOT
BRANCH   1  14
ATOM     14  O   UNL     1      45.745   3.879  13.946  0.00  0.00    +0.000 OA
BRANCH  14  15
ATOM     15  C   UNL     1      47.131   3.538  13.973  0.00  0.00    +0.000 C 
BRANCH  15  22
ATOM     16 CL   UNL     1      46.854   5.485  18.793  0.00  0.00    +0.000 Cl
ATOM     17  C   UNL     1      47.524   4.409  17.632  0.00  0.00    +0.000 A 
ATOM     18  C   UNL     1      48.559   3.562  17.996  0.00  0.00    +0.000 A 
ATOM     19  C   UNL     1      49.059   2.734  17.014  0.00  0.00    +0.000 A 
ATOM     20 CL   UNL     1      50.343   1.649  17.350  0.00  0.00    +0.000 Cl
ATOM     21  N   UNL     1      48.621   2.702  15.739  0.00  0.00    +0.000 NA
ATOM     22  C   UNL     1      47.603   3.536  15.409  0.00  0.00    +0.000 A 
ATOM     23  C   UNL     1      47.029   4.405  16.332  0.00  0.00    +0.000 A 
ENDBRANCH  15  22
ENDBRANCH  14  15
ENDBRANCH   1  14
TORSDOF 3
ENDMDL
MODEL 5
REMARK VINA RESULT:    -6.128      2.957      6.730
REMARK INTER + INTRA:          -7.706
REMARK INTER:                  -7.272
REMARK INTRA:                  -0.434
REMARK UNBOUND:                -0.503
REMARK  Name = 
REMARK  3 active torsions:
REMARK  status: ('A' for Active; 'I' for Inactive)
REMARK    1  A    between atoms: C_7  and  C_8
REMARK    2  A    between atoms: C_8  and  O_9
REMARK    3  A    between atoms: O_9  and  C_10
REMARK                            x       y       z     vdW  Elec       q    Type
REMARK                         _______ _______ _______ _____ _____    ______ ____
ROOT
ATOM      1  C   UNL     1      48.745   6.911  13.400  0.00  0.00    +0.000 A 
ATOM      2  C   UNL     1      49.839   7.684  13.742  0.00  0.00    +0.000 A 
ATOM      3  C   UNL     1      50.269   7.626  15.053  0.00  0.00    +0.000 A 
ATOM      4  N   UNL     1      49.686   6.866  16.012  0.00  0.00    +0.000 NA
ATOM      5  C   UNL     1      48.622   6.106  15.680  0.00  0.00    +0.000 A 
ATOM      6  N   UNL     1      48.047   5.304  16.640  0.00  0.00    +0.000 N 
ATOM      7  C   UNL     1      48.195   5.622  18.061  0.00  0.00    +0.000 C 
ATOM      8  C   UNL     1      48.721   4.403  18.852  0.00  0.00    +0.000 C 
ATOM      9  N   UNL     1      47.951   3.159  18.619  0.00  0.00    +0.000 NA
ATOM     10  C   UNL     1      47.933   2.887  17.168  0.00  0.00    +0.000 C 
ATOM     11  C   UNL     1      47.364   4.049  16.321  0.00  0.00    +0.000 C 
ATOM     12  C   UNL     1      48.125   6.138  14.380  0.00  0.00    +0.000 A 
ATOM     13  H   UNL     1      46.991   3.322  18.922  0.00  0.00    +0.000 HD
ENDROOT
BRANCH   1  14
ATOM     14  O   UNL     1      48.172   6.827  12.163  0.00  0.00    +0.000 OA
BRANCH  14  15
ATOM     15  C   UNL     1      46.895   7.449  12.020  0.00  0.00    +0.000 C 
BRANCH  15  22
ATOM     16 CL   UNL     1      45.034   4.213   8.392  0.00  0.00    +0.000 Cl
ATOM     17  C   UNL     1      44.988   4.915   9.961  0.00  0.00    +0.000 A 
ATOM     18  C   UNL     1      43.977   4.565  10.841  0.00  0.00    +0.000 A 
ATOM     19  C   UNL     1      43.991   5.175  12.078  0.00  0.00    +0.000 A 
ATOM     20 CL   UNL     1      42.786   4.822  13.245  0.00  0.00    +0.000 Cl
ATOM     21  N   UNL     1      44.905   6.083  12.477  0.00  0.00    +0.000 NA
ATOM     22  C   UNL     1      45.888   6.403  11.599  0.00  0.00    +0.000 A 
ATOM     23  C   UNL     1      45.961   5.838  10.330  0.00  0.00    +0.000 A 
ENDBRANCH  15  22
ENDBRANCH  14  15
ENDBRANCH   1  14
TORSDOF 3
ENDMDL
MODEL 6
REMARK VINA RESULT:    -6.001      4.158      5.923
REMARK INTER + INTRA:          -7.557
REMARK INTER:                  -7.078
REMARK INTRA:                  -0.478
REMARK UNBOUND:                -0.503
REMARK  Name = 
REMARK  3 active torsions:
REMARK  status: ('A' for Active; 'I' for Inactive)
REMARK    1  A    between atoms: C_7  and  C_8
REMARK    2  A    between atoms: C_8  and  O_9
REMARK    3  A    between atoms: O_9  and  C_10
REMARK                            x       y       z     vdW  Elec       q    Type
REMARK                         _______ _______ _______ _____ _____    ______ ____
ROOT
ATOM      1  C   UNL     1      47.068   5.981  13.566  0.00  0.00    +0.000 A 
ATOM      2  C   UNL     1      47.309   4.916  14.413  0.00  0.00    +0.000 A 
ATOM      3  C   UNL     1      46.747   3.700  14.076  0.00  0.00    +0.000 A 
ATOM      4  N   UNL     1      45.979   3.495  12.979  0.00  0.00    +0.000 NA
ATOM      5  C   UNL     1      45.748   4.531  12.146  0.00  0.00    +0.000 A 
ATOM      6  N   UNL     1      44.999   4.322  11.009  0.00  0.00    +0.000 N 
ATOM      7  C   UNL     1      44.048   3.211  10.939  0.00  0.00    +0.000 C 
ATOM      8  C   UNL     1      44.288   2.352   9.677  0.00  0.00    +0.000 C 
ATOM      9  N   UNL     1      44.351   3.135   8.421  0.00  0.00    +0.000 NA
ATOM     10  C   UNL     1      45.392   4.171   8.569  0.00  0.00    +0.000 C 
ATOM     11  C   UNL     1      45.181   5.103   9.785  0.00  0.00    +0.000 C 
ATOM     12  C   UNL     1      46.267   5.788  12.442  0.00  0.00    +0.000 A 
ATOM     13  H   UNL     1      43.454   3.604   8.299  0.00  0.00    +0.000 HD
ENDROOT
BRANCH   1  14
ATOM     14  O   UNL     1      47.534   7.256  13.720  0.00  0.00    +0.000 OA
BRANCH  14  15
ATOM     15  C   UNL     1      48.604   7.641  12.856  0.00  0.00    +0.000 C 
BRANCH  15  22
ATOM     16 CL   UNL     1      45.090  11.325  11.768  0.00  0.00    +0.000 Cl
ATOM     17  C   UNL     1      46.681  10.679  11.684  0.00  0.00    +0.000 A 
ATOM     18  C   UNL     1      47.661  11.354  10.972  0.00  0.00    +0.000 A 
ATOM     19  C   UNL     1      48.911  10.775  10.934  0.00  0.00    +0.000 A 
ATOM     20 CL   UNL     1      50.198  11.519  10.079  0.00  0.00    +0.000 Cl
ATOM     21  N   UNL     1      49.236   9.607  11.526  0.00  0.00    +0.000 NA
ATOM     22  C   UNL     1      48.262   8.970  12.222  0.00  0.00    +0.000 A 
ATOM     23  C   UNL     1      46.970   9.478  12.322  0.00  0.00    +0.000 A 
ENDBRANCH  15  22
ENDBRANCH  14  15
ENDBRANCH   1  14
TORSDOF 3
ENDMDL
MODEL 7
REMARK VINA RESULT:    -5.980      2.992      6.592
REMARK INTER + INTRA:          -7.533
REMARK INTER:                  -7.044
REMARK INTRA:                  -0.489
REMARK UNBOUND:                -0.503
REMARK  Name = 
REMARK  3 active torsions:
REMARK  status: ('A' for Active; 'I' for Inactive)
REMARK    1  A    between atoms: C_7  and  C_8
REMARK    2  A    between atoms: C_8  and  O_9
REMARK    3  A    between atoms: O_9  and  C_10
REMARK                            x       y       z     vdW  Elec       q    Type
REMARK                         _______ _______ _______ _____ _____    ______ ____
ROOT
ATOM      1  C   UNL     1      48.626   6.842  13.717  0.00  0.00    +0.000 A 
ATOM      2  C   UNL     1      49.415   7.900  14.127  0.00  0.00    +0.000 A 
ATOM      3  C   UNL     1      49.691   7.997  15.478  0.00  0.00    +0.000 A 
ATOM      4  N   UNL     1      49.235   7.127  16.411  0.00  0.00    +0.000 NA
ATOM      5  C   UNL     1      48.470   6.090  16.013  0.00  0.00    +0.000 A 
ATOM      6  N   UNL     1      48.034   5.181  16.951  0.00  0.00    +0.000 N 
ATOM      7  C   UNL     1      47.924   5.562  18.361  0.00  0.00    +0.000 C 
ATOM      8  C   UNL     1      48.673   4.560  19.268  0.00  0.00    +0.000 C 
ATOM      9  N   UNL     1      48.311   3.145  19.026  0.00  0.00    +0.000 NA
ATOM     10  C   UNL     1      48.535   2.843  17.598  0.00  0.00    +0.000 C 
ATOM     11  C   UNL     1      47.768   3.777  16.633  0.00  0.00    +0.000 C 
ATOM     12  C   UNL     1      48.137   5.949  14.669  0.00  0.00    +0.000 A 
ATOM     13  H   UNL     1      47.316   3.038  19.218  0.00  0.00    +0.000 HD
ENDROOT
BRANCH   1  14
ATOM     14  O   UNL     1      48.245   6.570  12.434  0.00  0.00    +0.000 OA
BRANCH  14  15
ATOM     15  C   UNL     1      47.157   7.344  11.926  0.00  0.00    +0.000 C 
BRANCH  15  22
ATOM     16 CL   UNL     1      42.772   4.848  13.207  0.00  0.00    +0.000 Cl
ATOM     17  C   UNL     1      44.026   5.231  12.095  0.00  0.00    +0.000 A 
ATOM     18  C   UNL     1      44.045   4.630  10.846  0.00  0.00    +0.000 A 
ATOM     19  C   UNL     1      45.085   4.971  10.008  0.00  0.00    +0.000 A 
ATOM     20 CL   UNL     1      45.211   4.285   8.441  0.00  0.00    +0.000 Cl
ATOM     21  N   UNL     1      46.075   5.831  10.322  0.00  0.00    +0.000 NA
ATOM     22  C   UNL     1      46.031   6.410  11.547  0.00  0.00    +0.000 A 
ATOM     23  C   UNL     1      45.018   6.133  12.461  0.00  0.00    +0.000 A 
ENDBRANCH  15  22
ENDBRANCH  14  15
ENDBRANCH   1  14
TORSDOF 3
ENDMDL
MODEL 8
REMARK VINA RESULT:    -5.951      3.375      7.850
REMARK INTER + INTRA:          -7.498
REMARK INTER:                  -7.224
REMARK INTRA:                  -0.274
REMARK UNBOUND:                -0.503
REMARK  Name = 
REMARK  3 active torsions:
REMARK  status: ('A' for Active; 'I' for Inactive)
REMARK    1  A    between atoms: C_7  and  C_8
REMARK    2  A    between atoms: C_8  and  O_9
REMARK    3  A    between atoms: O_9  and  C_10
REMARK                            x       y       z     vdW  Elec       q    Type
REMARK                         _______ _______ _______ _____ _____    ______ ____
ROOT
ATOM      1  C   UNL     1      47.589   3.729  16.286  0.00  0.00    +0.000 A 
ATOM      2  C   UNL     1      48.415   2.621  16.326  0.00  0.00    +0.000 A 
ATOM      3  C   UNL     1      49.295   2.527  17.387  0.00  0.00    +0.000 A 
ATOM      4  N   UNL     1      49.397   3.448  18.375  0.00  0.00    +0.000 NA
ATOM      5  C   UNL     1      48.588   4.528  18.342  0.00  0.00    +0.000 A 
ATOM      6  N   UNL     1      48.660   5.450  19.362  0.00  0.00    +0.000 N 
ATOM      7  C   UNL     1      49.880   5.580  20.162  0.00  0.00    +0.000 C 
ATOM      8  C   UNL     1      49.566   5.489  21.672  0.00  0.00    +0.000 C 
ATOM      9  N   UNL     1      48.487   6.401  22.118  0.00  0.00    +0.000 NA
ATOM     10  C   UNL     1      47.284   6.131  21.305  0.00  0.00    +0.000 C 
ATOM     11  C   UNL     1      47.516   6.260  19.781  0.00  0.00    +0.000 C 
ATOM     12  C   UNL     1      47.695   4.693  17.287  0.00  0.00    +0.000 A 
ATOM     13  H   UNL     1      48.787   7.357  21.930  0.00  0.00    +0.000 HD
ENDROOT
BRANCH   1  14
ATOM     14  O   UNL     1      46.655   4.003  15.329  0.00  0.00    +0.000 OA
BRANCH  14  15
ATOM     15  C   UNL     1      47.113   4.747  14.200  0.00  0.00    +0.000 C 
BRANCH  15  22
ATOM     16 CL   UNL     1      44.187   7.902  11.270  0.00  0.00    +0.000 Cl
ATOM     17  C   UNL     1      44.578   6.350  11.897  0.00  0.00    +0.000 A 
ATOM     18  C   UNL     1      43.789   5.258  11.571  0.00  0.00    +0.000 A 
ATOM     19  C   UNL     1      44.151   4.045  12.117  0.00  0.00    +0.000 A 
ATOM     20 CL   UNL     1      43.244   2.628  11.786  0.00  0.00    +0.000 Cl
ATOM     21  N   UNL     1      45.200   3.856  12.944  0.00  0.00    +0.000 NA
ATOM     22  C   UNL     1      45.960   4.939  13.242  0.00  0.00    +0.000 A 
ATOM     23  C   UNL     1      45.678   6.204  12.736  0.00  0.00    +0.000 A 
ENDBRANCH  15  22
ENDBRANCH  14  15
ENDBRANCH   1  14
TORSDOF 3
ENDMDL
MODEL 9
REMARK VINA RESULT:    -5.931      4.982      6.798
REMARK INTER + INTRA:          -7.474
REMARK INTER:                  -7.127
REMARK INTRA:                  -0.347
REMARK UNBOUND:                -0.503
REMARK  Name = 
REMARK  3 active torsions:
REMARK  status: ('A' for Active; 'I' for Inactive)
REMARK    1  A    between atoms: C_7  and  C_8
REMARK    2  A    between atoms: C_8  and  O_9
REMARK    3  A    between atoms: O_9  and  C_10
REMARK                            x       y       z     vdW  Elec       q    Type
REMARK                         _______ _______ _______ _____ _____    ______ ____
ROOT
ATOM      1  C   UNL     1      45.051   6.089  12.344  0.00  0.00    +0.000 A 
ATOM      2  C   UNL     1      45.253   5.224  13.403  0.00  0.00    +0.000 A 
ATOM      3  C   UNL     1      45.387   3.881  13.106  0.00  0.00    +0.000 A 
ATOM      4  N   UNL     1      45.328   3.370  11.853  0.00  0.00    +0.000 NA
ATOM      5  C   UNL     1      45.137   4.212  10.816  0.00  0.00    +0.000 A 
ATOM      6  N   UNL     1      45.112   3.705   9.537  0.00  0.00    +0.000 N 
ATOM      7  C   UNL     1      44.770   2.301   9.300  0.00  0.00    +0.000 C 
ATOM      8  C   UNL     1      45.844   1.605   8.434  0.00  0.00    +0.000 C 
ATOM      9  N   UNL     1      46.176   2.333   7.188  0.00  0.00    +0.000 NA
ATOM     10  C   UNL     1      46.584   3.707   7.545  0.00  0.00    +0.000 C 
ATOM     11  C   UNL     1      45.527   4.481   8.367  0.00  0.00    +0.000 C 
ATOM     12  C   UNL     1      44.972   5.575  11.051  0.00  0.00    +0.000 A 
ATOM     13  H   UNL     1      45.328   2.393   6.625  0.00  0.00    +0.000 HD
ENDROOT
BRANCH   1  14
ATOM     14  O   UNL     1      44.900   7.444  12.427  0.00  0.00    +0.000 OA
BRANCH  14  15
ATOM     15  C   UNL     1      46.072   8.186  12.769  0.00  0.00    +0.000 C 
BRANCH  15  22
ATOM     16 CL   UNL     1      43.118  12.087  10.993  0.00  0.00    +0.000 Cl
ATOM     17  C   UNL     1      44.648  11.381  11.334  0.00  0.00    +0.000 A 
ATOM     18  C   UNL     1      45.809  12.064  11.005  0.00  0.00    +0.000 A 
ATOM     19  C   UNL     1      47.002  11.436  11.293  0.00  0.00    +0.000 A 
ATOM     20 CL   UNL     1      48.500  12.185  10.925  0.00  0.00    +0.000 Cl
ATOM     21  N   UNL     1      47.112  10.215  11.856  0.00  0.00    +0.000 NA
ATOM     22  C   UNL     1      45.962   9.571  12.175  0.00  0.00    +0.000 A 
ATOM     23  C   UNL     1      44.709  10.125  11.927  0.00  0.00    +0.000 A 
ENDBRANCH  15  22
ENDBRANCH  14  15
ENDBRANCH   1  14
TORSDOF 3
ENDMDL
