MODEL 1
REMARK VINA RESULT:    -8.419      0.000      0.000
REMARK INTER + INTRA:         -14.762
REMARK INTER:                 -13.094
REMARK INTRA:                  -1.668
REMARK UNBOUND:                -1.668
REMARK  Name = 
REMARK  10 active torsions:
REMARK  status: ('A' for Active; 'I' for Inactive)
REMARK    1  A    between atoms: C_2  and  C_23
REMARK    2  A    between atoms: N_3  and  C_4
REMARK    3  A    between atoms: C_4  and  C_5
REMARK    4  A    between atoms: C_8  and  C_9
REMARK    5  A    between atoms: C_9  and  N_10
REMARK    6  A    between atoms: N_10  and  C_11
REMARK    7  A    between atoms: N_10  and  C_14
REMARK    8  A    between atoms: C_11  and  C_12
REMARK    9  A    between atoms: C_12  and  O_13
REMARK   10  A    between atoms: C_14  and  C_15
REMARK                            x       y       z     vdW  Elec       q    Type
REMARK                         _______ _______ _______ _____ _____    ______ ____
ROOT
ATOM      1  C   UNL     1      46.535   7.765  12.658  0.00  0.00    +0.000 A 
ATOM      2  C   UNL     1      47.067   6.734  11.875  0.00  0.00    +0.000 A 
ATOM      3  C   UNL     1      46.241   5.978  11.045  0.00  0.00    +0.000 A 
ATOM      4  C   UNL     1      44.860   6.211  11.020  0.00  0.00    +0.000 A 
ATOM      5  C   UNL     1      44.346   7.319  11.709  0.00  0.00    +0.000 A 
ATOM      6  C   UNL     1      45.182   8.101  12.510  0.00  0.00    +0.000 A 
ENDROOT
BRANCH   1   7
ATOM      7  C   UNL     1      47.402   8.457  13.675  0.00  0.00    +0.000 C 
BRANCH   7  10
ATOM      8  O   UNL     1      49.953   7.336  14.212  0.00  0.00    +0.000 OA
ATOM      9  C   UNL     1      49.022   7.126  14.984  0.00  0.00    +0.000 C 
ATOM     10  N   UNL     1      47.754   7.596  14.770  0.00  0.00    +0.000 N 
ATOM     11  H   UNL     1      47.061   7.529  15.505  0.00  0.00    +0.000 HD
BRANCH   9  12
ATOM     12  C   UNL     1      49.186   6.302  16.186  0.00  0.00    +0.000 A 
ATOM     13  C   UNL     1      50.061   6.686  17.191  0.00  0.00    +0.000 A 
ATOM     14  S   UNL     1      50.064   5.624  18.528  0.00  0.00    +0.000 S 
ATOM     15  C   UNL     1      48.881   4.628  17.815  0.00  0.00    +0.000 A 
ATOM     16  N   UNL     1      48.378   3.545  18.469  0.00  0.00    +0.000 NA
ATOM     17  C   UNL     1      47.458   2.911  17.825  0.00  0.00    +0.000 A 
ATOM     18  N   UNL     1      47.007   3.246  16.572  0.00  0.00    +0.000 N 
ATOM     19  C   UNL     1      47.544   4.269  15.842  0.00  0.00    +0.000 A 
ATOM     20  O   UNL     1      47.235   4.431  14.665  0.00  0.00    +0.000 OA
ATOM     21  C   UNL     1      48.528   5.068  16.555  0.00  0.00    +0.000 A 
ATOM     22  H   UNL     1      46.321   2.681  16.094  0.00  0.00    +0.000 HD
ENDBRANCH   9  12
ENDBRANCH   7  10
ENDBRANCH   1   7
BRANCH   4  23
ATOM     23  C   UNL     1      43.940   5.234  10.316  0.00  0.00    +0.000 C 
BRANCH  23  24
ATOM     24  N   UNL     1      44.592   3.934   9.983  0.00  0.00    +0.000 NA
BRANCH  24  25
ATOM     25  C   UNL     1      43.922   2.810  10.689  0.00  0.00    +0.000 C 
BRANCH  25  26
ATOM     26  C   UNL     1      43.986   2.856  12.228  0.00  0.00    +0.000 C 
BRANCH  26  27
ATOM     27  O   UNL     1      45.341   2.886  12.673  0.00  0.00    +0.000 OA
ATOM     28  H   UNL     1      45.371   2.447  13.540  0.00  0.00    +0.000 HD
ENDBRANCH  26  27
ENDBRANCH  25  26
ENDBRANCH  24  25
BRANCH  24  29
ATOM     29  C   UNL     1      44.571   3.718   8.521  0.00  0.00    +0.000 C 
BRANCH  29  30
ATOM     30  C   UNL     1      45.749   2.917   8.009  0.00  0.00    +0.000 A 
ATOM     31  C   UNL     1      46.741   3.521   7.230  0.00  0.00    +0.000 A 
ATOM     32  C   UNL     1      47.756   2.729   6.720  0.00  0.00    +0.000 A 
ATOM     33  N   UNL     1      47.853   1.399   6.936  0.00  0.00    +0.000 NA
ATOM     34  C   UNL     1      46.900   0.841   7.711  0.00  0.00    +0.000 A 
ATOM     35  C   UNL     1      45.851   1.550   8.277  0.00  0.00    +0.000 A 
ENDBRANCH  29  30
ENDBRANCH  24  29
ENDBRANCH  23  24
ENDBRANCH   4  23
TORSDOF 10
ENDMDL
MODEL 2
REMARK VINA RESULT:    -7.305      1.473      2.026
REMARK INTER + INTRA:         -13.030
REMARK INTER:                 -11.316
REMARK INTRA:                  -1.714
REMARK UNBOUND:                -1.668
REMARK  Name = 
REMARK  10 active torsions:
REMARK  status: ('A' for Active; 'I' for Inactive)
REMARK    1  A    between atoms: C_2  and  C_23
REMARK    2  A    between atoms: N_3  and  C_4
REMARK    3  A    between atoms: C_4  and  C_5
REMARK    4  A    between atoms: C_8  and  C_9
REMARK    5  A    between atoms: C_9  and  N_10
REMARK    6  A    between atoms: N_10  and  C_11
REMARK    7  A    between atoms: N_10  and  C_14
REMARK    8  A    between atoms: C_11  and  C_12
REMARK    9  A    between atoms: C_12  and  O_13
REMARK   10  A    between atoms: C_14  and  C_15
REMARK                            x       y       z     vdW  Elec       q    Type
REMARK                         _______ _______ _______ _____ _____    ______ ____
ROOT
ATOM      1  C   UNL     1      48.419   8.125  13.441  0.00  0.00    +0.000 A 
ATOM      2  C   UNL     1      48.655   7.335  12.309  0.00  0.00    +0.000 A 
ATOM      3  C   UNL     1      47.599   6.942  11.489  0.00  0.00    +0.000 A 
ATOM      4  C   UNL     1      46.282   7.292  11.814  0.00  0.00    +0.000 A 
ATOM      5  C   UNL     1      46.059   8.181  12.876  0.00  0.00    +0.000 A 
ATOM      6  C   UNL     1      47.124   8.608  13.673  0.00  0.00    +0.000 A 
ENDROOT
BRANCH   1   7
ATOM      7  C   UNL     1      49.537   8.398  14.410  0.00  0.00    +0.000 C 
BRANCH   7  10
ATOM      8  O   UNL     1      48.436   8.646  17.013  0.00  0.00    +0.000 OA
ATOM      9  C   UNL     1      49.000   7.605  16.688  0.00  0.00    +0.000 C 
ATOM     10  N   UNL     1      49.594   7.427  15.467  0.00  0.00    +0.000 N 
ATOM     11  H   UNL     1      49.909   6.506  15.190  0.00  0.00    +0.000 HD
BRANCH   9  12
ATOM     12  C   UNL     1      49.129   6.475  17.614  0.00  0.00    +0.000 A 
ATOM     13  C   UNL     1      49.796   6.623  18.821  0.00  0.00    +0.000 A 
ATOM     14  S   UNL     1      49.785   5.209  19.778  0.00  0.00    +0.000 S 
ATOM     15  C   UNL     1      48.871   4.359  18.618  0.00  0.00    +0.000 A 
ATOM     16  N   UNL     1      48.457   3.081  18.838  0.00  0.00    +0.000 NA
ATOM     17  C   UNL     1      47.737   2.582  17.893  0.00  0.00    +0.000 A 
ATOM     18  N   UNL     1      47.408   3.235  16.730  0.00  0.00    +0.000 N 
ATOM     19  C   UNL     1      47.874   4.484  16.427  0.00  0.00    +0.000 A 
ATOM     20  O   UNL     1      47.701   4.965  15.311  0.00  0.00    +0.000 OA
ATOM     21  C   UNL     1      48.623   5.125  17.496  0.00  0.00    +0.000 A 
ATOM     22  H   UNL     1      46.884   2.775  16.001  0.00  0.00    +0.000 HD
ENDBRANCH   9  12
ENDBRANCH   7  10
ENDBRANCH   1   7
BRANCH   4  23
ATOM     23  C   UNL     1      45.124   6.659  11.070  0.00  0.00    +0.000 C 
BRANCH  23  24
ATOM     24  N   UNL     1      45.126   5.168  11.119  0.00  0.00    +0.000 NA
BRANCH  24  25
ATOM     25  C   UNL     1      44.654   4.681  12.442  0.00  0.00    +0.000 C 
BRANCH  25  26
ATOM     26  C   UNL     1      43.125   4.577  12.608  0.00  0.00    +0.000 C 
BRANCH  26  27
ATOM     27  O   UNL     1      42.625   5.687  13.351  0.00  0.00    +0.000 OA
ATOM     28  H   UNL     1      43.250   5.853  14.078  0.00  0.00    +0.000 HD
ENDBRANCH  26  27
ENDBRANCH  25  26
ENDBRANCH  24  25
BRANCH  24  29
ATOM     29  C   UNL     1      44.285   4.624  10.033  0.00  0.00    +0.000 C 
BRANCH  29  30
ATOM     30  C   UNL     1      45.031   3.707   9.088  0.00  0.00    +0.000 A 
ATOM     31  C   UNL     1      45.026   2.322   9.282  0.00  0.00    +0.000 A 
ATOM     32  C   UNL     1      45.788   1.533   8.437  0.00  0.00    +0.000 A 
ATOM     33  N   UNL     1      46.538   2.020   7.424  0.00  0.00    +0.000 NA
ATOM     34  C   UNL     1      46.508   3.356   7.240  0.00  0.00    +0.000 A 
ATOM     35  C   UNL     1      45.768   4.229   8.023  0.00  0.00    +0.000 A 
ENDBRANCH  29  30
ENDBRANCH  24  29
ENDBRANCH  23  24
ENDBRANCH   4  23
TORSDOF 10
ENDMDL
MODEL 3
REMARK VINA RESULT:    -6.982      1.845      2.329
REMARK INTER + INTRA:         -12.528
REMARK INTER:                 -11.410
REMARK INTRA:                  -1.117
REMARK UNBOUND:                -1.668
REMARK  Name = 
REMARK  10 active torsions:
REMARK  status: ('A' for Active; 'I' for Inactive)
REMARK    1  A    between atoms: C_2  and  C_23
REMARK    2  A    between atoms: N_3  and  C_4
REMARK    3  A    between atoms: C_4  and  C_5
REMARK    4  A    between atoms: C_8  and  C_9
REMARK    5  A    between atoms: C_9  and  N_10
REMARK    6  A    between atoms: N_10  and  C_11
REMARK    7  A    between atoms: N_10  and  C_14
REMARK    8  A    between atoms: C_11  and  C_12
REMARK    9  A    between atoms: C_12  and  O_13
REMARK   10  A    between atoms: C_14  and  C_15
REMARK                            x       y       z     vdW  Elec       q    Type
REMARK                         _______ _______ _______ _____ _____    ______ ____
ROOT
ATOM      1  C   UNL     1      47.412   7.236  13.964  0.00  0.00    +0.000 A 
ATOM      2  C   UNL     1      46.620   8.046  13.141  0.00  0.00    +0.000 A 
ATOM      3  C   UNL     1      46.025   7.522  11.994  0.00  0.00    +0.000 A 
ATOM      4  C   UNL     1      46.251   6.189  11.628  0.00  0.00    +0.000 A 
ATOM      5  C   UNL     1      46.942   5.349  12.513  0.00  0.00    +0.000 A 
ATOM      6  C   UNL     1      47.504   5.866  13.682  0.00  0.00    +0.000 A 
ENDROOT
BRANCH   1   7
ATOM      7  C   UNL     1      48.186   7.852  15.098  0.00  0.00    +0.000 C 
BRANCH   7  10
ATOM      8  O   UNL     1      48.428   6.800  17.723  0.00  0.00    +0.000 OA
ATOM      9  C   UNL     1      49.246   6.484  16.864  0.00  0.00    +0.000 C 
ATOM     10  N   UNL     1      49.220   6.983  15.588  0.00  0.00    +0.000 N 
ATOM     11  H   UNL     1      49.816   6.579  14.878  0.00  0.00    +0.000 HD
BRANCH   9  12
ATOM     12  C   UNL     1      50.358   5.574  17.153  0.00  0.00    +0.000 A 
ATOM     13  C   UNL     1      51.590   6.069  17.553  0.00  0.00    +0.000 A 
ATOM     14  S   UNL     1      52.732   4.847  17.896  0.00  0.00    +0.000 S 
ATOM     15  C   UNL     1      51.610   3.616  17.540  0.00  0.00    +0.000 A 
ATOM     16  N   UNL     1      51.930   2.301  17.689  0.00  0.00    +0.000 NA
ATOM     17  C   UNL     1      50.968   1.484  17.426  0.00  0.00    +0.000 A 
ATOM     18  N   UNL     1      49.716   1.858  17.004  0.00  0.00    +0.000 N 
ATOM     19  C   UNL     1      49.377   3.160  16.756  0.00  0.00    +0.000 A 
ATOM     20  O   UNL     1      48.310   3.440  16.220  0.00  0.00    +0.000 OA
ATOM     21  C   UNL     1      50.401   4.128  17.117  0.00  0.00    +0.000 A 
ATOM     22  H   UNL     1      49.017   1.172  16.762  0.00  0.00    +0.000 HD
ENDBRANCH   9  12
ENDBRANCH   7  10
ENDBRANCH   1   7
BRANCH   4  23
ATOM     23  C   UNL     1      45.815   5.695  10.263  0.00  0.00    +0.000 C 
BRANCH  23  24
ATOM     24  N   UNL     1      45.116   4.377  10.300  0.00  0.00    +0.000 NA
BRANCH  24  25
ATOM     25  C   UNL     1      43.962   4.416  11.235  0.00  0.00    +0.000 C 
BRANCH  25  26
ATOM     26  C   UNL     1      43.818   3.198  12.169  0.00  0.00    +0.000 C 
BRANCH  26  27
ATOM     27  O   UNL     1      42.854   2.282  11.651  0.00  0.00    +0.000 OA
ATOM     28  H   UNL     1      43.000   2.220  10.691  0.00  0.00    +0.000 HD
ENDBRANCH  26  27
ENDBRANCH  25  26
ENDBRANCH  24  25
BRANCH  24  29
ATOM     29  C   UNL     1      44.674   4.001   8.941  0.00  0.00    +0.000 C 
BRANCH  29  30
ATOM     30  C   UNL     1      45.642   3.091   8.217  0.00  0.00    +0.000 A 
ATOM     31  C   UNL     1      45.698   1.725   8.513  0.00  0.00    +0.000 A 
ATOM     32  C   UNL     1      46.655   0.949   7.880  0.00  0.00    +0.000 A 
ATOM     33  N   UNL     1      47.541   1.431   6.982  0.00  0.00    +0.000 NA
ATOM     34  C   UNL     1      47.453   2.746   6.693  0.00  0.00    +0.000 A 
ATOM     35  C   UNL     1      46.524   3.603   7.263  0.00  0.00    +0.000 A 
ENDBRANCH  29  30
ENDBRANCH  24  29
ENDBRANCH  23  24
ENDBRANCH   4  23
TORSDOF 10
ENDMDL
MODEL 4
REMARK VINA RESULT:    -6.838      1.961      2.690
REMARK INTER + INTRA:         -12.304
REMARK INTER:                 -11.072
REMARK INTRA:                  -1.232
REMARK UNBOUND:                -1.668
REMARK  Name = 
REMARK  10 active torsions:
REMARK  status: ('A' for Active; 'I' for Inactive)
REMARK    1  A    between atoms: C_2  and  C_23
REMARK    2  A    between atoms: N_3  and  C_4
REMARK    3  A    between atoms: C_4  and  C_5
REMARK    4  A    between atoms: C_8  and  C_9
REMARK    5  A    between atoms: C_9  and  N_10
REMARK    6  A    between atoms: N_10  and  C_11
REMARK    7  A    between atoms: N_10  and  C_14
REMARK    8  A    between atoms: C_11  and  C_12
REMARK    9  A    between atoms: C_12  and  O_13
REMARK   10  A    between atoms: C_14  and  C_15
REMARK                            x       y       z     vdW  Elec       q    Type
REMARK                         _______ _______ _______ _____ _____    ______ ____
ROOT
ATOM      1  C   UNL     1      47.197   7.568  13.407  0.00  0.00    +0.000 A 
ATOM      2  C   UNL     1      46.113   8.201  12.784  0.00  0.00    +0.000 A 
ATOM      3  C   UNL     1      45.453   7.589  11.720  0.00  0.00    +0.000 A 
ATOM      4  C   UNL     1      45.896   6.354  11.230  0.00  0.00    +0.000 A 
ATOM      5  C   UNL     1      46.899   5.667  11.928  0.00  0.00    +0.000 A 
ATOM      6  C   UNL     1      47.534   6.264  13.020  0.00  0.00    +0.000 A 
ENDROOT
BRANCH   1   7
ATOM      7  C   UNL     1      48.006   8.310  14.435  0.00  0.00    +0.000 C 
BRANCH   7  10
ATOM      8  O   UNL     1      50.128   6.673  15.368  0.00  0.00    +0.000 OA
ATOM      9  C   UNL     1      49.151   6.869  16.085  0.00  0.00    +0.000 C 
ATOM     10  N   UNL     1      48.070   7.610  15.688  0.00  0.00    +0.000 N 
ATOM     11  H   UNL     1      47.363   7.871  16.364  0.00  0.00    +0.000 HD
BRANCH   9  12
ATOM     12  C   UNL     1      49.042   6.275  17.422  0.00  0.00    +0.000 A 
ATOM     13  C   UNL     1      49.023   4.897  17.583  0.00  0.00    +0.000 A 
ATOM     14  S   UNL     1      48.949   4.408  19.217  0.00  0.00    +0.000 S 
ATOM     15  C   UNL     1      48.959   6.021  19.762  0.00  0.00    +0.000 A 
ATOM     16  N   UNL     1      48.969   6.321  21.090  0.00  0.00    +0.000 NA
ATOM     17  C   UNL     1      49.022   7.582  21.354  0.00  0.00    +0.000 A 
ATOM     18  N   UNL     1      49.043   8.579  20.410  0.00  0.00    +0.000 N 
ATOM     19  C   UNL     1      48.944   8.330  19.069  0.00  0.00    +0.000 A 
ATOM     20  O   UNL     1      48.794   9.248  18.269  0.00  0.00    +0.000 OA
ATOM     21  C   UNL     1      48.966   6.920  18.714  0.00  0.00    +0.000 A 
ATOM     22  H   UNL     1      49.031   9.552  20.675  0.00  0.00    +0.000 HD
ENDBRANCH   9  12
ENDBRANCH   7  10
ENDBRANCH   1   7
BRANCH   4  23
ATOM     23  C   UNL     1      45.342   5.814   9.926  0.00  0.00    +0.000 C 
BRANCH  23  24
ATOM     24  N   UNL     1      44.924   4.384  10.002  0.00  0.00    +0.000 NA
BRANCH  24  25
ATOM     25  C   UNL     1      43.729   4.228  10.872  0.00  0.00    +0.000 C 
BRANCH  25  26
ATOM     26  C   UNL     1      43.524   2.826  11.480  0.00  0.00    +0.000 C 
BRANCH  26  27
ATOM     27  O   UNL     1      43.654   2.871  12.900  0.00  0.00    +0.000 OA
ATOM     28  H   UNL     1      44.235   3.622  13.113  0.00  0.00    +0.000 HD
ENDBRANCH  26  27
ENDBRANCH  25  26
ENDBRANCH  24  25
BRANCH  24  29
ATOM     29  C   UNL     1      44.652   3.864   8.646  0.00  0.00    +0.000 C 
BRANCH  29  30
ATOM     30  C   UNL     1      45.767   3.005   8.090  0.00  0.00    +0.000 A 
ATOM     31  C   UNL     1      46.731   3.549   7.235  0.00  0.00    +0.000 A 
ATOM     32  C   UNL     1      47.685   2.704   6.691  0.00  0.00    +0.000 A 
ATOM     33  N   UNL     1      47.747   1.378   6.942  0.00  0.00    +0.000 NA
ATOM     34  C   UNL     1      46.823   0.880   7.789  0.00  0.00    +0.000 A 
ATOM     35  C   UNL     1      45.837   1.643   8.394  0.00  0.00    +0.000 A 
ENDBRANCH  29  30
ENDBRANCH  24  29
ENDBRANCH  23  24
ENDBRANCH   4  23
TORSDOF 10
ENDMDL
MODEL 5
REMARK VINA RESULT:    -6.606      3.302      5.608
REMARK INTER + INTRA:         -11.943
REMARK INTER:                 -10.478
REMARK INTRA:                  -1.465
REMARK UNBOUND:                -1.668
REMARK  Name = 
REMARK  10 active torsions:
REMARK  status: ('A' for Active; 'I' for Inactive)
REMARK    1  A    between atoms: C_2  and  C_23
REMARK    2  A    between atoms: N_3  and  C_4
REMARK    3  A    between atoms: C_4  and  C_5
REMARK    4  A    between atoms: C_8  and  C_9
REMARK    5  A    between atoms: C_9  and  N_10
REMARK    6  A    between atoms: N_10  and  C_11
REMARK    7  A    between atoms: N_10  and  C_14
REMARK    8  A    between atoms: C_11  and  C_12
REMARK    9  A    between atoms: C_12  and  O_13
REMARK   10  A    between atoms: C_14  and  C_15
REMARK                            x       y       z     vdW  Elec       q    Type
REMARK                         _______ _______ _______ _____ _____    ______ ____
ROOT
ATOM      1  C   UNL     1      47.795   4.246  16.624  0.00  0.00    +0.000 A 
ATOM      2  C   UNL     1      48.452   5.478  16.520  0.00  0.00    +0.000 A 
ATOM      3  C   UNL     1      48.385   6.218  15.341  0.00  0.00    +0.000 A 
ATOM      4  C   UNL     1      47.698   5.715  14.229  0.00  0.00    +0.000 A 
ATOM      5  C   UNL     1      46.942   4.543  14.371  0.00  0.00    +0.000 A 
ATOM      6  C   UNL     1      46.978   3.822  15.567  0.00  0.00    +0.000 A 
ENDROOT
BRANCH   1   7
ATOM      7  C   UNL     1      48.016   3.379  17.834  0.00  0.00    +0.000 C 
BRANCH   7  10
ATOM      8  O   UNL     1      49.626   1.726  16.183  0.00  0.00    +0.000 OA
ATOM      9  C   UNL     1      50.123   2.277  17.160  0.00  0.00    +0.000 C 
ATOM     10  N   UNL     1      49.402   3.054  18.027  0.00  0.00    +0.000 N 
ATOM     11  H   UNL     1      49.882   3.608  18.725  0.00  0.00    +0.000 HD
BRANCH   9  12
ATOM     12  C   UNL     1      51.537   2.104  17.508  0.00  0.00    +0.000 A 
ATOM     13  C   UNL     1      52.085   0.836  17.630  0.00  0.00    +0.000 A 
ATOM     14  S   UNL     1      53.755   0.850  17.984  0.00  0.00    +0.000 S 
ATOM     15  C   UNL     1      53.804   2.553  17.966  0.00  0.00    +0.000 A 
ATOM     16  N   UNL     1      54.972   3.230  18.145  0.00  0.00    +0.000 NA
ATOM     17  C   UNL     1      54.864   4.512  18.061  0.00  0.00    +0.000 A 
ATOM     18  N   UNL     1      53.689   5.187  17.838  0.00  0.00    +0.000 N 
ATOM     19  C   UNL     1      52.480   4.554  17.742  0.00  0.00    +0.000 A 
ATOM     20  O   UNL     1      51.435   5.197  17.714  0.00  0.00    +0.000 OA
ATOM     21  C   UNL     1      52.557   3.102  17.746  0.00  0.00    +0.000 A 
ATOM     22  H   UNL     1      53.656   6.195  17.835  0.00  0.00    +0.000 HD
ENDBRANCH   9  12
ENDBRANCH   7  10
ENDBRANCH   1   7
BRANCH   4  23
ATOM     23  C   UNL     1      47.837   6.396  12.882  0.00  0.00    +0.000 C 
BRANCH  23  24
ATOM     24  N   UNL     1      46.549   6.925  12.345  0.00  0.00    +0.000 NA
BRANCH  24  25
ATOM     25  C   UNL     1      46.597   8.405  12.216  0.00  0.00    +0.000 C 
BRANCH  25  26
ATOM     26  C   UNL     1      45.337   9.158  12.687  0.00  0.00    +0.000 C 
BRANCH  26  27
ATOM     27  O   UNL     1      44.243   8.902  11.808  0.00  0.00    +0.000 OA
ATOM     28  H   UNL     1      44.166   7.937  11.715  0.00  0.00    +0.000 HD
ENDBRANCH  26  27
ENDBRANCH  25  26
ENDBRANCH  24  25
BRANCH  24  29
ATOM     29  C   UNL     1      46.249   6.297  11.041  0.00  0.00    +0.000 C 
BRANCH  29  30
ATOM     30  C   UNL     1      45.119   5.293  11.097  0.00  0.00    +0.000 A 
ATOM     31  C   UNL     1      44.138   5.373  12.091  0.00  0.00    +0.000 A 
ATOM     32  C   UNL     1      43.170   4.384  12.147  0.00  0.00    +0.000 A 
ATOM     33  N   UNL     1      43.108   3.341  11.290  0.00  0.00    +0.000 NA
ATOM     34  C   UNL     1      44.049   3.298  10.324  0.00  0.00    +0.000 A 
ATOM     35  C   UNL     1      45.051   4.244  10.177  0.00  0.00    +0.000 A 
ENDBRANCH  29  30
ENDBRANCH  24  29
ENDBRANCH  23  24
ENDBRANCH   4  23
TORSDOF 10
ENDMDL
MODEL 6
REMARK VINA RESULT:    -6.559      2.847      7.865
REMARK INTER + INTRA:         -11.869
REMARK INTER:                  -9.623
REMARK INTRA:                  -2.246
REMARK UNBOUND:                -1.668
REMARK  Name = 
REMARK  10 active torsions:
REMARK  status: ('A' for Active; 'I' for Inactive)
REMARK    1  A    between atoms: C_2  and  C_23
REMARK    2  A    between atoms: N_3  and  C_4
REMARK    3  A    between atoms: C_4  and  C_5
REMARK    4  A    between atoms: C_8  and  C_9
REMARK    5  A    between atoms: C_9  and  N_10
REMARK    6  A    between atoms: N_10  and  C_11
REMARK    7  A    between atoms: N_10  and  C_14
REMARK    8  A    between atoms: C_11  and  C_12
REMARK    9  A    between atoms: C_12  and  O_13
REMARK   10  A    between atoms: C_14  and  C_15
REMARK                            x       y       z     vdW  Elec       q    Type
REMARK                         _______ _______ _______ _____ _____    ______ ____
ROOT
ATOM      1  C   UNL     1      48.466   8.152  13.173  0.00  0.00    +0.000 A 
ATOM      2  C   UNL     1      47.732   8.785  14.184  0.00  0.00    +0.000 A 
ATOM      3  C   UNL     1      48.232   8.856  15.483  0.00  0.00    +0.000 A 
ATOM      4  C   UNL     1      49.455   8.253  15.803  0.00  0.00    +0.000 A 
ATOM      5  C   UNL     1      50.244   7.727  14.771  0.00  0.00    +0.000 A 
ATOM      6  C   UNL     1      49.759   7.693  13.461  0.00  0.00    +0.000 A 
ENDROOT
BRANCH   1   7
ATOM      7  C   UNL     1      47.844   7.930  11.821  0.00  0.00    +0.000 C 
BRANCH   7  10
ATOM      8  O   UNL     1      45.018   7.679  11.894  0.00  0.00    +0.000 OA
ATOM      9  C   UNL     1      45.714   6.677  11.763  0.00  0.00    +0.000 C 
ATOM     10  N   UNL     1      47.084   6.713  11.763  0.00  0.00    +0.000 N 
ATOM     11  H   UNL     1      47.609   5.889  11.500  0.00  0.00    +0.000 HD
BRANCH   9  12
ATOM     12  C   UNL     1      45.127   5.338  11.646  0.00  0.00    +0.000 A 
ATOM     13  C   UNL     1      44.510   4.740  12.735  0.00  0.00    +0.000 A 
ATOM     14  S   UNL     1      43.841   3.210  12.377  0.00  0.00    +0.000 S 
ATOM     15  C   UNL     1      44.338   3.307  10.751  0.00  0.00    +0.000 A 
ATOM     16  N   UNL     1      44.028   2.329   9.855  0.00  0.00    +0.000 NA
ATOM     17  C   UNL     1      44.430   2.559   8.652  0.00  0.00    +0.000 A 
ATOM     18  N   UNL     1      45.137   3.670   8.261  0.00  0.00    +0.000 N 
ATOM     19  C   UNL     1      45.546   4.633   9.141  0.00  0.00    +0.000 A 
ATOM     20  O   UNL     1      46.318   5.520   8.788  0.00  0.00    +0.000 OA
ATOM     21  C   UNL     1      45.047   4.464  10.497  0.00  0.00    +0.000 A 
ATOM     22  H   UNL     1      45.471   3.772   7.315  0.00  0.00    +0.000 HD
ENDBRANCH   9  12
ENDBRANCH   7  10
ENDBRANCH   1   7
BRANCH   4  23
ATOM     23  C   UNL     1      49.873   8.113  17.253  0.00  0.00    +0.000 C 
BRANCH  23  24
ATOM     24  N   UNL     1      50.049   6.698  17.691  0.00  0.00    +0.000 NA
BRANCH  24  25
ATOM     25  C   UNL     1      50.884   6.623  18.918  0.00  0.00    +0.000 C 
BRANCH  25  26
ATOM     26  C   UNL     1      52.190   5.816  18.789  0.00  0.00    +0.000 C 
BRANCH  26  27
ATOM     27  O   UNL     1      52.065   4.818  17.778  0.00  0.00    +0.000 OA
ATOM     28  H   UNL     1      51.264   5.024  17.266  0.00  0.00    +0.000 HD
ENDBRANCH  26  27
ENDBRANCH  25  26
ENDBRANCH  24  25
BRANCH  24  29
ATOM     29  C   UNL     1      48.731   6.070  17.917  0.00  0.00    +0.000 C 
BRANCH  29  30
ATOM     30  C   UNL     1      48.431   4.929  16.970  0.00  0.00    +0.000 A 
ATOM     31  C   UNL     1      47.699   5.145  15.798  0.00  0.00    +0.000 A 
ATOM     32  C   UNL     1      47.382   4.055  15.005  0.00  0.00    +0.000 A 
ATOM     33  N   UNL     1      47.746   2.785  15.290  0.00  0.00    +0.000 NA
ATOM     34  C   UNL     1      48.473   2.604  16.412  0.00  0.00    +0.000 A 
ATOM     35  C   UNL     1      48.850   3.630  17.264  0.00  0.00    +0.000 A 
ENDBRANCH  29  30
ENDBRANCH  24  29
ENDBRANCH  23  24
ENDBRANCH   4  23
TORSDOF 10
ENDMDL
MODEL 7
REMARK VINA RESULT:    -6.553      3.605      5.019
REMARK INTER + INTRA:         -11.860
REMARK INTER:                 -10.567
REMARK INTRA:                  -1.293
REMARK UNBOUND:                -1.668
REMARK  Name = 
REMARK  10 active torsions:
REMARK  status: ('A' for Active; 'I' for Inactive)
REMARK    1  A    between atoms: C_2  and  C_23
REMARK    2  A    between atoms: N_3  and  C_4
REMARK    3  A    between atoms: C_4  and  C_5
REMARK    4  A    between atoms: C_8  and  C_9
REMARK    5  A    between atoms: C_9  and  N_10
REMARK    6  A    between atoms: N_10  and  C_11
REMARK    7  A    between atoms: N_10  and  C_14
REMARK    8  A    between atoms: C_11  and  C_12
REMARK    9  A    between atoms: C_12  and  O_13
REMARK   10  A    between atoms: C_14  and  C_15
REMARK                            x       y       z     vdW  Elec       q    Type
REMARK                         _______ _______ _______ _____ _____    ______ ____
ROOT
ATOM      1  C   UNL     1      46.687   7.894  12.396  0.00  0.00    +0.000 A 
ATOM      2  C   UNL     1      47.176   6.758  11.740  0.00  0.00    +0.000 A 
ATOM      3  C   UNL     1      46.327   5.965  10.970  0.00  0.00    +0.000 A 
ATOM      4  C   UNL     1      44.963   6.270  10.881  0.00  0.00    +0.000 A 
ATOM      5  C   UNL     1      44.498   7.471  11.435  0.00  0.00    +0.000 A 
ATOM      6  C   UNL     1      45.359   8.286  12.174  0.00  0.00    +0.000 A 
ENDROOT
BRANCH   1   7
ATOM      7  C   UNL     1      47.569   8.641  13.359  0.00  0.00    +0.000 C 
BRANCH   7  10
ATOM      8  O   UNL     1      48.016  10.671  11.427  0.00  0.00    +0.000 OA
ATOM      9  C   UNL     1      48.967  10.035  11.872  0.00  0.00    +0.000 C 
ATOM     10  N   UNL     1      48.827   9.013  12.772  0.00  0.00    +0.000 N 
ATOM     11  H   UNL     1      49.645   8.623  13.224  0.00  0.00    +0.000 HD
BRANCH   9  12
ATOM     12  C   UNL     1      50.342  10.290  11.429  0.00  0.00    +0.000 A 
ATOM     13  C   UNL     1      50.824  11.587  11.334  0.00  0.00    +0.000 A 
ATOM     14  S   UNL     1      52.461  11.667  10.857  0.00  0.00    +0.000 S 
ATOM     15  C   UNL     1      52.584   9.970  10.783  0.00  0.00    +0.000 A 
ATOM     16  N   UNL     1      53.763   9.357  10.484  0.00  0.00    +0.000 NA
ATOM     17  C   UNL     1      53.717   8.069  10.508  0.00  0.00    +0.000 A 
ATOM     18  N   UNL     1      52.591   7.330  10.782  0.00  0.00    +0.000 N 
ATOM     19  C   UNL     1      51.368   7.901  11.000  0.00  0.00    +0.000 A 
ATOM     20  O   UNL     1      50.357   7.209  11.072  0.00  0.00    +0.000 OA
ATOM     21  C   UNL     1      51.382   9.353  11.066  0.00  0.00    +0.000 A 
ATOM     22  H   UNL     1      52.602   6.323  10.736  0.00  0.00    +0.000 HD
ENDBRANCH   9  12
ENDBRANCH   7  10
ENDBRANCH   1   7
BRANCH   4  23
ATOM     23  C   UNL     1      44.004   5.276  10.257  0.00  0.00    +0.000 C 
BRANCH  23  24
ATOM     24  N   UNL     1      44.595   3.920  10.058  0.00  0.00    +0.000 NA
BRANCH  24  25
ATOM     25  C   UNL     1      43.942   2.923  10.946  0.00  0.00    +0.000 C 
BRANCH  25  26
ATOM     26  C   UNL     1      44.304   3.023  12.441  0.00  0.00    +0.000 C 
BRANCH  26  27
ATOM     27  O   UNL     1      45.692   2.760  12.639  0.00  0.00    +0.000 OA
ATOM     28  H   UNL     1      46.144   3.619  12.691  0.00  0.00    +0.000 HD
ENDBRANCH  26  27
ENDBRANCH  25  26
ENDBRANCH  24  25
BRANCH  24  29
ATOM     29  C   UNL     1      44.471   3.518   8.641  0.00  0.00    +0.000 C 
BRANCH  29  30
ATOM     30  C   UNL     1      45.692   2.803   8.104  0.00  0.00    +0.000 A 
ATOM     31  C   UNL     1      46.674   3.500   7.393  0.00  0.00    +0.000 A 
ATOM     32  C   UNL     1      47.733   2.787   6.855  0.00  0.00    +0.000 A 
ATOM     33  N   UNL     1      47.881   1.451   6.980  0.00  0.00    +0.000 NA
ATOM     34  C   UNL     1      46.936   0.802   7.692  0.00  0.00    +0.000 A 
ATOM     35  C   UNL     1      45.847   1.426   8.280  0.00  0.00    +0.000 A 
ENDBRANCH  29  30
ENDBRANCH  24  29
ENDBRANCH  23  24
ENDBRANCH   4  23
TORSDOF 10
ENDMDL
MODEL 8
REMARK VINA RESULT:    -6.394      3.547      4.682
REMARK INTER + INTRA:         -11.613
REMARK INTER:                 -10.535
REMARK INTRA:                  -1.078
REMARK UNBOUND:                -1.668
REMARK  Name = 
REMARK  10 active torsions:
REMARK  status: ('A' for Active; 'I' for Inactive)
REMARK    1  A    between atoms: C_2  and  C_23
REMARK    2  A    between atoms: N_3  and  C_4
REMARK    3  A    between atoms: C_4  and  C_5
REMARK    4  A    between atoms: C_8  and  C_9
REMARK    5  A    between atoms: C_9  and  N_10
REMARK    6  A    between atoms: N_10  and  C_11
REMARK    7  A    between atoms: N_10  and  C_14
REMARK    8  A    between atoms: C_11  and  C_12
REMARK    9  A    between atoms: C_12  and  O_13
REMARK   10  A    between atoms: C_14  and  C_15
REMARK                            x       y       z     vdW  Elec       q    Type
REMARK                         _______ _______ _______ _____ _____    ______ ____
ROOT
ATOM      1  C   UNL     1      48.016   4.759  16.355  0.00  0.00    +0.000 A 
ATOM      2  C   UNL     1      48.363   6.013  15.838  0.00  0.00    +0.000 A 
ATOM      3  C   UNL     1      47.916   6.408  14.578  0.00  0.00    +0.000 A 
ATOM      4  C   UNL     1      47.152   5.534  13.794  0.00  0.00    +0.000 A 
ATOM      5  C   UNL     1      46.704   4.332  14.358  0.00  0.00    +0.000 A 
ATOM      6  C   UNL     1      47.120   3.955  15.637  0.00  0.00    +0.000 A 
ENDROOT
BRANCH   1   7
ATOM      7  C   UNL     1      48.643   4.276  17.634  0.00  0.00    +0.000 C 
BRANCH   7  10
ATOM      8  O   UNL     1      50.690   4.633  19.567  0.00  0.00    +0.000 OA
ATOM      9  C   UNL     1      50.963   4.139  18.477  0.00  0.00    +0.000 C 
ATOM     10  N   UNL     1      50.039   3.975  17.479  0.00  0.00    +0.000 N 
ATOM     11  H   UNL     1      50.273   3.427  16.661  0.00  0.00    +0.000 HD
BRANCH   9  12
ATOM     12  C   UNL     1      52.328   3.726  18.136  0.00  0.00    +0.000 A 
ATOM     13  C   UNL     1      53.376   4.633  18.195  0.00  0.00    +0.000 A 
ATOM     14  S   UNL     1      54.890   3.942  17.817  0.00  0.00    +0.000 S 
ATOM     15  C   UNL     1      54.197   2.404  17.580  0.00  0.00    +0.000 A 
ATOM     16  N   UNL     1      54.964   1.319  17.285  0.00  0.00    +0.000 NA
ATOM     17  C   UNL     1      54.308   0.214  17.179  0.00  0.00    +0.000 A 
ATOM     18  N   UNL     1      52.947   0.094  17.318  0.00  0.00    +0.000 N 
ATOM     19  C   UNL     1      52.128   1.170  17.526  0.00  0.00    +0.000 A 
ATOM     20  O   UNL     1      50.908   1.049  17.475  0.00  0.00    +0.000 OA
ATOM     21  C   UNL     1      52.826   2.428  17.736  0.00  0.00    +0.000 A 
ATOM     22  H   UNL     1      52.480  -0.788  17.172  0.00  0.00    +0.000 HD
ENDBRANCH   9  12
ENDBRANCH   7  10
ENDBRANCH   1   7
BRANCH   4  23
ATOM     23  C   UNL     1      46.882   5.863  12.339  0.00  0.00    +0.000 C 
BRANCH  23  24
ATOM     24  N   UNL     1      45.547   5.398  11.860  0.00  0.00    +0.000 NA
BRANCH  24  25
ATOM     25  C   UNL     1      44.454   6.025  12.648  0.00  0.00    +0.000 C 
BRANCH  25  26
ATOM     26  C   UNL     1      43.232   5.127  12.926  0.00  0.00    +0.000 C 
BRANCH  26  27
ATOM     27  O   UNL     1      42.313   5.182  11.836  0.00  0.00    +0.000 OA
ATOM     28  H   UNL     1      41.432   5.361  12.209  0.00  0.00    +0.000 HD
ENDBRANCH  26  27
ENDBRANCH  25  26
ENDBRANCH  24  25
BRANCH  24  29
ATOM     29  C   UNL     1      45.393   5.701  10.422  0.00  0.00    +0.000 C 
BRANCH  29  30
ATOM     30  C   UNL     1      45.420   4.475   9.537  0.00  0.00    +0.000 A 
ATOM     31  C   UNL     1      44.913   3.253   9.990  0.00  0.00    +0.000 A 
ATOM     32  C   UNL     1      45.033   2.142   9.172  0.00  0.00    +0.000 A 
ATOM     33  N   UNL     1      45.608   2.165   7.950  0.00  0.00    +0.000 NA
ATOM     34  C   UNL     1      46.067   3.359   7.522  0.00  0.00    +0.000 A 
ATOM     35  C   UNL     1      45.984   4.530   8.259  0.00  0.00    +0.000 A 
ENDBRANCH  29  30
ENDBRANCH  24  29
ENDBRANCH  23  24
ENDBRANCH   4  23
TORSDOF 10
ENDMDL
MODEL 9
REMARK VINA RESULT:    -6.360      3.715      5.572
REMARK INTER + INTRA:         -11.561
REMARK INTER:                 -10.121
REMARK INTRA:                  -1.440
REMARK UNBOUND:                -1.668
REMARK  Name = 
REMARK  10 active torsions:
REMARK  status: ('A' for Active; 'I' for Inactive)
REMARK    1  A    between atoms: C_2  and  C_23
REMARK    2  A    between atoms: N_3  and  C_4
REMARK    3  A    between atoms: C_4  and  C_5
REMARK    4  A    between atoms: C_8  and  C_9
REMARK    5  A    between atoms: C_9  and  N_10
REMARK    6  A    between atoms: N_10  and  C_11
REMARK    7  A    between atoms: N_10  and  C_14
REMARK    8  A    between atoms: C_11  and  C_12
REMARK    9  A    between atoms: C_12  and  O_13
REMARK   10  A    between atoms: C_14  and  C_15
REMARK                            x       y       z     vdW  Elec       q    Type
REMARK                         _______ _______ _______ _____ _____    ______ ____
ROOT
ATOM      1  C   UNL     1      48.167   4.599  16.495  0.00  0.00    +0.000 A 
ATOM      2  C   UNL     1      48.673   5.864  16.170  0.00  0.00    +0.000 A 
ATOM      3  C   UNL     1      48.250   6.520  15.016  0.00  0.00    +0.000 A 
ATOM      4  C   UNL     1      47.348   5.901  14.141  0.00  0.00    +0.000 A 
ATOM      5  C   UNL     1      46.751   4.693  14.526  0.00  0.00    +0.000 A 
ATOM      6  C   UNL     1      47.145   4.054  15.704  0.00  0.00    +0.000 A 
ENDROOT
BRANCH   1   7
ATOM      7  C   UNL     1      48.755   3.829  17.646  0.00  0.00    +0.000 C 
BRANCH   7  10
ATOM      8  O   UNL     1      50.865   4.697  19.333  0.00  0.00    +0.000 OA
ATOM      9  C   UNL     1      51.117   3.997  18.356  0.00  0.00    +0.000 C 
ATOM     10  N   UNL     1      50.159   3.576  17.472  0.00  0.00    +0.000 N 
ATOM     11  H   UNL     1      50.389   2.879  16.775  0.00  0.00    +0.000 HD
BRANCH   9  12
ATOM     12  C   UNL     1      52.488   3.594  18.027  0.00  0.00    +0.000 A 
ATOM     13  C   UNL     1      53.508   4.533  17.978  0.00  0.00    +0.000 A 
ATOM     14  S   UNL     1      55.036   3.854  17.635  0.00  0.00    +0.000 S 
ATOM     15  C   UNL     1      54.387   2.281  17.560  0.00  0.00    +0.000 A 
ATOM     16  N   UNL     1      55.182   1.195  17.354  0.00  0.00    +0.000 NA
ATOM     17  C   UNL     1      54.559   0.066  17.367  0.00  0.00    +0.000 A 
ATOM     18  N   UNL     1      53.205  -0.079  17.545  0.00  0.00    +0.000 N 
ATOM     19  C   UNL     1      52.357   0.986  17.667  0.00  0.00    +0.000 A 
ATOM     20  O   UNL     1      51.140   0.825  17.654  0.00  0.00    +0.000 OA
ATOM     21  C   UNL     1      53.019   2.279  17.742  0.00  0.00    +0.000 A 
ATOM     22  H   UNL     1      52.764  -0.985  17.493  0.00  0.00    +0.000 HD
ENDBRANCH   9  12
ENDBRANCH   7  10
ENDBRANCH   1   7
BRANCH   4  23
ATOM     23  C   UNL     1      47.086   6.502  12.774  0.00  0.00    +0.000 C 
BRANCH  23  24
ATOM     24  N   UNL     1      45.746   7.148  12.653  0.00  0.00    +0.000 NA
BRANCH  24  25
ATOM     25  C   UNL     1      45.840   8.610  12.902  0.00  0.00    +0.000 C 
BRANCH  25  26
ATOM     26  C   UNL     1      45.001   9.501  11.964  0.00  0.00    +0.000 C 
BRANCH  26  27
ATOM     27  O   UNL     1      45.186  10.879  12.286  0.00  0.00    +0.000 OA
ATOM     28  H   UNL     1      46.040  10.957  12.745  0.00  0.00    +0.000 HD
ENDBRANCH  26  27
ENDBRANCH  25  26
ENDBRANCH  24  25
BRANCH  24  29
ATOM     29  C   UNL     1      45.175   6.881  11.316  0.00  0.00    +0.000 C 
BRANCH  29  30
ATOM     30  C   UNL     1      44.663   5.468  11.146  0.00  0.00    +0.000 A 
ATOM     31  C   UNL     1      45.040   4.698  10.041  0.00  0.00    +0.000 A 
ATOM     32  C   UNL     1      44.482   3.440   9.889  0.00  0.00    +0.000 A 
ATOM     33  N   UNL     1      43.594   2.901  10.752  0.00  0.00    +0.000 NA
ATOM     34  C   UNL     1      43.263   3.651  11.824  0.00  0.00    +0.000 A 
ATOM     35  C   UNL     1      43.775   4.915  12.072  0.00  0.00    +0.000 A 
ENDBRANCH  29  30
ENDBRANCH  24  29
ENDBRANCH  23  24
ENDBRANCH   4  23
TORSDOF 10
ENDMDL
