MODEL 1
REMARK VINA RESULT:    -8.040      0.000      0.000
REMARK INTER + INTRA:         -12.725
REMARK INTER:                 -11.331
REMARK INTRA:                  -1.395
REMARK UNBOUND:                -1.395
REMARK  Name = 
REMARK  9 active torsions:
REMARK  status: ('A' for Active; 'I' for Inactive)
REMARK    1  A    between atoms: C_1  and  C_2
REMARK    2  A    between atoms: C_2  and  N_3
REMARK    3  A    between atoms: C_2  and  C_26
REMARK    4  A    between atoms: N_3  and  C_4
REMARK    5  A    between atoms: C_4  and  C_5
REMARK    6  A    between atoms: C_8  and  C_9
REMARK    7  A    between atoms: C_9  and  N_10
REMARK    8  A    between atoms: N_10  and  C_11
REMARK    9  A    between atoms: C_12  and  C_14
REMARK                            x       y       z     vdW  Elec       q    Type
REMARK                         _______ _______ _______ _____ _____    ______ ____
ROOT
ATOM      1  C   UNL     1      44.936   6.565  11.713  0.00  0.00    +0.000 A 
ATOM      2  C   UNL     1      46.220   6.233  11.292  0.00  0.00    +0.000 A 
ATOM      3  C   UNL     1      47.303   6.985  11.747  0.00  0.00    +0.000 A 
ATOM      4  C   UNL     1      47.092   8.066  12.608  0.00  0.00    +0.000 A 
ATOM      5  C   UNL     1      45.770   8.369  12.918  0.00  0.00    +0.000 A 
ATOM      6  N   UNL     1      44.699   7.652  12.492  0.00  0.00    +0.000 NA
ENDROOT
BRANCH   1   7
ATOM      7  C   UNL     1      43.753   5.669  11.345  0.00  0.00    +0.000 C 
BRANCH   7   8
ATOM      8  N   UNL     1      43.884   5.107   9.991  0.00  0.00    +0.000 NA
ATOM      9  H   UNL     1      43.082   5.392   9.436  0.00  0.00    +0.000 HD
BRANCH   8  11
ATOM     10  C   UNL     1      44.264   2.996  11.291  0.00  0.00    +0.000 C 
ATOM     11  C   UNL     1      43.974   3.642   9.933  0.00  0.00    +0.000 C 
BRANCH  11  12
ATOM     12  C   UNL     1      45.067   3.220   8.950  0.00  0.00    +0.000 A 
ATOM     13  C   UNL     1      45.725   4.182   8.165  0.00  0.00    +0.000 A 
ATOM     14  C   UNL     1      46.694   3.803   7.232  0.00  0.00    +0.000 A 
ATOM     15  C   UNL     1      47.024   2.458   7.070  0.00  0.00    +0.000 A 
ATOM     16  C   UNL     1      46.378   1.493   7.840  0.00  0.00    +0.000 A 
ATOM     17 CL   UNL     1      46.782  -0.167   7.643  0.00  0.00    +0.000 Cl
ATOM     18  C   UNL     1      45.403   1.865   8.766  0.00  0.00    +0.000 A 
ENDBRANCH  11  12
ENDBRANCH   8  11
ENDBRANCH   7   8
ENDBRANCH   1   7
BRANCH   4  19
ATOM     19  C   UNL     1      48.238   8.787  13.277  0.00  0.00    +0.000 C 
BRANCH  19  20
ATOM     20  N   UNL     1      48.591   8.339  14.627  0.00  0.00    +0.000 N 
ATOM     21  C   UNL     1      48.065   9.121  15.740  0.00  0.00    +0.000 C 
ATOM     22  C   UNL     1      49.624   7.389  14.747  0.00  0.00    +0.000 C 
ATOM     23  O   UNL     1      50.154   6.900  13.751  0.00  0.00    +0.000 OA
BRANCH  22  24
ATOM     24  C   UNL     1      50.051   6.939  16.085  0.00  0.00    +0.000 A 
ATOM     25  C   UNL     1      51.065   7.536  16.818  0.00  0.00    +0.000 A 
ATOM     26  S   UNL     1      51.317   6.826  18.348  0.00  0.00    +0.000 S 
ATOM     27  C   UNL     1      49.987   5.784  18.144  0.00  0.00    +0.000 A 
ATOM     28  N   UNL     1      49.595   4.952  19.145  0.00  0.00    +0.000 NA
ATOM     29  C   UNL     1      48.536   4.263  18.877  0.00  0.00    +0.000 A 
ATOM     30  N   UNL     1      47.856   4.310  17.687  0.00  0.00    +0.000 N 
ATOM     31  C   UNL     1      48.291   5.036  16.599  0.00  0.00    +0.000 A 
ATOM     32  O   UNL     1      47.789   4.874  15.495  0.00  0.00    +0.000 OA
ATOM     33  C   UNL     1      49.414   5.916  16.891  0.00  0.00    +0.000 A 
ATOM     34  H   UNL     1      47.070   3.700  17.519  0.00  0.00    +0.000 HD
ENDBRANCH  22  24
ENDBRANCH  19  20
ENDBRANCH   4  19
TORSDOF 7
ENDMDL
MODEL 2
REMARK VINA RESULT:    -8.000      1.616      1.758
REMARK INTER + INTRA:         -12.669
REMARK INTER:                 -11.443
REMARK INTRA:                  -1.225
REMARK UNBOUND:                -1.395
REMARK  Name = 
REMARK  9 active torsions:
REMARK  status: ('A' for Active; 'I' for Inactive)
REMARK    1  A    between atoms: C_1  and  C_2
REMARK    2  A    between atoms: C_2  and  N_3
REMARK    3  A    between atoms: C_2  and  C_26
REMARK    4  A    between atoms: N_3  and  C_4
REMARK    5  A    between atoms: C_4  and  C_5
REMARK    6  A    between atoms: C_8  and  C_9
REMARK    7  A    between atoms: C_9  and  N_10
REMARK    8  A    between atoms: N_10  and  C_11
REMARK    9  A    between atoms: C_12  and  C_14
REMARK                            x       y       z     vdW  Elec       q    Type
REMARK                         _______ _______ _______ _____ _____    ______ ____
ROOT
ATOM      1  C   UNL     1      45.618   5.838  12.227  0.00  0.00    +0.000 A 
ATOM      2  C   UNL     1      46.102   5.189  13.359  0.00  0.00    +0.000 A 
ATOM      3  C   UNL     1      47.309   5.606  13.920  0.00  0.00    +0.000 A 
ATOM      4  C   UNL     1      48.025   6.657  13.340  0.00  0.00    +0.000 A 
ATOM      5  C   UNL     1      47.503   7.198  12.170  0.00  0.00    +0.000 A 
ATOM      6  N   UNL     1      46.329   6.814  11.605  0.00  0.00    +0.000 NA
ENDROOT
BRANCH   1   7
ATOM      7  C   UNL     1      44.231   5.497  11.682  0.00  0.00    +0.000 C 
BRANCH   7   8
ATOM      8  N   UNL     1      44.256   5.223  10.236  0.00  0.00    +0.000 NA
ATOM      9  H   UNL     1      43.552   5.796   9.778  0.00  0.00    +0.000 HD
BRANCH   8  11
ATOM     10  C   UNL     1      43.935   2.878  11.069  0.00  0.00    +0.000 C 
ATOM     11  C   UNL     1      44.007   3.824   9.866  0.00  0.00    +0.000 C 
BRANCH  11  12
ATOM     12  C   UNL     1      45.101   3.325   8.920  0.00  0.00    +0.000 A 
ATOM     13  C   UNL     1      45.814   4.234   8.119  0.00  0.00    +0.000 A 
ATOM     14  C   UNL     1      46.785   3.786   7.219  0.00  0.00    +0.000 A 
ATOM     15  C   UNL     1      47.064   2.424   7.109  0.00  0.00    +0.000 A 
ATOM     16  C   UNL     1      46.364   1.512   7.895  0.00  0.00    +0.000 A 
ATOM     17 CL   UNL     1      46.704  -0.169   7.760  0.00  0.00    +0.000 Cl
ATOM     18  C   UNL     1      45.386   1.953   8.787  0.00  0.00    +0.000 A 
ENDBRANCH  11  12
ENDBRANCH   8  11
ENDBRANCH   7   8
ENDBRANCH   1   7
BRANCH   4  19
ATOM     19  C   UNL     1      49.231   7.267  14.014  0.00  0.00    +0.000 C 
BRANCH  19  20
ATOM     20  N   UNL     1      49.088   7.588  15.437  0.00  0.00    +0.000 N 
ATOM     21  C   UNL     1      48.346   8.799  15.769  0.00  0.00    +0.000 C 
ATOM     22  C   UNL     1      49.905   6.888  16.347  0.00  0.00    +0.000 C 
ATOM     23  O   UNL     1      50.651   5.989  15.965  0.00  0.00    +0.000 OA
BRANCH  22  24
ATOM     24  C   UNL     1      49.835   7.205  17.785  0.00  0.00    +0.000 A 
ATOM     25  C   UNL     1      50.628   8.156  18.409  0.00  0.00    +0.000 A 
ATOM     26  S   UNL     1      50.304   8.335  20.074  0.00  0.00    +0.000 S 
ATOM     27  C   UNL     1      48.998   7.249  19.993  0.00  0.00    +0.000 A 
ATOM     28  N   UNL     1      48.220   7.013  21.082  0.00  0.00    +0.000 NA
ATOM     29  C   UNL     1      47.229   6.215  20.862  0.00  0.00    +0.000 A 
ATOM     30  N   UNL     1      46.967   5.608  19.661  0.00  0.00    +0.000 N 
ATOM     31  C   UNL     1      47.801   5.712  18.568  0.00  0.00    +0.000 A 
ATOM     32  O   UNL     1      47.657   4.981  17.597  0.00  0.00    +0.000 OA
ATOM     33  C   UNL     1      48.866   6.691  18.733  0.00  0.00    +0.000 A 
ATOM     34  H   UNL     1      46.210   4.947  19.571  0.00  0.00    +0.000 HD
ENDBRANCH  22  24
ENDBRANCH  19  20
ENDBRANCH   4  19
TORSDOF 7
ENDMDL
MODEL 3
REMARK VINA RESULT:    -7.310      2.103      2.821
REMARK INTER + INTRA:         -11.697
REMARK INTER:                 -10.806
REMARK INTRA:                  -0.891
REMARK UNBOUND:                -1.395
REMARK  Name = 
REMARK  9 active torsions:
REMARK  status: ('A' for Active; 'I' for Inactive)
REMARK    1  A    between atoms: C_1  and  C_2
REMARK    2  A    between atoms: C_2  and  N_3
REMARK    3  A    between atoms: C_2  and  C_26
REMARK    4  A    between atoms: N_3  and  C_4
REMARK    5  A    between atoms: C_4  and  C_5
REMARK    6  A    between atoms: C_8  and  C_9
REMARK    7  A    between atoms: C_9  and  N_10
REMARK    8  A    between atoms: N_10  and  C_11
REMARK    9  A    between atoms: C_12  and  C_14
REMARK                            x       y       z     vdW  Elec       q    Type
REMARK                         _______ _______ _______ _____ _____    ______ ____
ROOT
ATOM      1  C   UNL     1      45.643   6.144  11.937  0.00  0.00    +0.000 A 
ATOM      2  C   UNL     1      46.042   7.436  12.265  0.00  0.00    +0.000 A 
ATOM      3  C   UNL     1      47.075   7.618  13.185  0.00  0.00    +0.000 A 
ATOM      4  C   UNL     1      47.691   6.511  13.775  0.00  0.00    +0.000 A 
ATOM      5  C   UNL     1      47.178   5.261  13.444  0.00  0.00    +0.000 A 
ATOM      6  N   UNL     1      46.177   5.056  12.550  0.00  0.00    +0.000 NA
ENDROOT
BRANCH   1   7
ATOM      7  C   UNL     1      44.616   5.916  10.828  0.00  0.00    +0.000 C 
BRANCH   7   8
ATOM      8  N   UNL     1      45.177   5.153   9.702  0.00  0.00    +0.000 NA
ATOM      9  H   UNL     1      45.227   5.755   8.885  0.00  0.00    +0.000 HD
BRANCH   8  11
ATOM     10  C   UNL     1      43.925   3.145  10.534  0.00  0.00    +0.000 C 
ATOM     11  C   UNL     1      44.420   3.950   9.329  0.00  0.00    +0.000 C 
BRANCH  11  12
ATOM     12  C   UNL     1      45.279   3.037   8.453  0.00  0.00    +0.000 A 
ATOM     13  C   UNL     1      45.533   1.712   8.846  0.00  0.00    +0.000 A 
ATOM     14  C   UNL     1      46.352   0.881   8.077  0.00  0.00    +0.000 A 
ATOM     15  C   UNL     1      46.928   1.359   6.900  0.00  0.00    +0.000 A 
ATOM     16  C   UNL     1      46.687   2.671   6.500  0.00  0.00    +0.000 A 
ATOM     17 CL   UNL     1      47.396   3.265   5.049  0.00  0.00    +0.000 Cl
ATOM     18  C   UNL     1      45.878   3.508   7.269  0.00  0.00    +0.000 A 
ENDBRANCH  11  12
ENDBRANCH   8  11
ENDBRANCH   7   8
ENDBRANCH   1   7
BRANCH   4  19
ATOM     19  C   UNL     1      48.932   6.648  14.624  0.00  0.00    +0.000 C 
BRANCH  19  20
ATOM     20  N   UNL     1      48.720   6.819  16.065  0.00  0.00    +0.000 N 
ATOM     21  C   UNL     1      48.883   8.165  16.601  0.00  0.00    +0.000 C 
ATOM     22  C   UNL     1      48.666   5.654  16.856  0.00  0.00    +0.000 C 
ATOM     23  O   UNL     1      48.718   4.537  16.344  0.00  0.00    +0.000 OA
BRANCH  22  24
ATOM     24  C   UNL     1      48.502   5.770  18.317  0.00  0.00    +0.000 A 
ATOM     25  C   UNL     1      47.307   6.094  18.941  0.00  0.00    +0.000 A 
ATOM     26  S   UNL     1      47.405   6.121  20.643  0.00  0.00    +0.000 S 
ATOM     27  C   UNL     1      49.012   5.564  20.614  0.00  0.00    +0.000 A 
ATOM     28  N   UNL     1      49.675   5.288  21.768  0.00  0.00    +0.000 NA
ATOM     29  C   UNL     1      50.864   4.815  21.596  0.00  0.00    +0.000 A 
ATOM     30  N   UNL     1      51.459   4.625  20.376  0.00  0.00    +0.000 N 
ATOM     31  C   UNL     1      50.879   5.013  19.187  0.00  0.00    +0.000 A 
ATOM     32  O   UNL     1      51.529   5.036  18.150  0.00  0.00    +0.000 OA
ATOM     33  C   UNL     1      49.494   5.443  19.322  0.00  0.00    +0.000 A 
ATOM     34  H   UNL     1      52.416   4.309  20.312  0.00  0.00    +0.000 HD
ENDBRANCH  22  24
ENDBRANCH  19  20
ENDBRANCH   4  19
TORSDOF 7
ENDMDL
MODEL 4
REMARK VINA RESULT:    -6.984      2.955      4.081
REMARK INTER + INTRA:         -11.237
REMARK INTER:                 -10.283
REMARK INTRA:                  -0.954
REMARK UNBOUND:                -1.395
REMARK  Name = 
REMARK  9 active torsions:
REMARK  status: ('A' for Active; 'I' for Inactive)
REMARK    1  A    between atoms: C_1  and  C_2
REMARK    2  A    between atoms: C_2  and  N_3
REMARK    3  A    between atoms: C_2  and  C_26
REMARK    4  A    between atoms: N_3  and  C_4
REMARK    5  A    between atoms: C_4  and  C_5
REMARK    6  A    between atoms: C_8  and  C_9
REMARK    7  A    between atoms: C_9  and  N_10
REMARK    8  A    between atoms: N_10  and  C_11
REMARK    9  A    between atoms: C_12  and  C_14
REMARK                            x       y       z     vdW  Elec       q    Type
REMARK                         _______ _______ _______ _____ _____    ______ ____
ROOT
ATOM      1  C   UNL     1      47.221   5.250  14.089  0.00  0.00    +0.000 A 
ATOM      2  C   UNL     1      47.893   6.469  14.053  0.00  0.00    +0.000 A 
ATOM      3  C   UNL     1      48.549   6.919  15.199  0.00  0.00    +0.000 A 
ATOM      4  C   UNL     1      48.518   6.156  16.369  0.00  0.00    +0.000 A 
ATOM      5  C   UNL     1      47.762   4.989  16.334  0.00  0.00    +0.000 A 
ATOM      6  N   UNL     1      47.117   4.527  15.233  0.00  0.00    +0.000 NA
ENDROOT
BRANCH   1   7
ATOM      7  C   UNL     1      46.620   4.669  12.809  0.00  0.00    +0.000 C 
BRANCH   7   8
ATOM      8  N   UNL     1      45.169   4.903  12.722  0.00  0.00    +0.000 NA
ATOM      9  H   UNL     1      44.682   4.027  12.890  0.00  0.00    +0.000 HD
BRANCH   8  11
ATOM     10  C   UNL     1      43.252   5.928  11.471  0.00  0.00    +0.000 C 
ATOM     11  C   UNL     1      44.703   5.439  11.437  0.00  0.00    +0.000 C 
BRANCH  11  12
ATOM     12  C   UNL     1      44.832   4.375  10.344  0.00  0.00    +0.000 A 
ATOM     13  C   UNL     1      44.243   3.111  10.513  0.00  0.00    +0.000 A 
ATOM     14  C   UNL     1      44.391   2.116   9.542  0.00  0.00    +0.000 A 
ATOM     15  C   UNL     1      45.127   2.371   8.385  0.00  0.00    +0.000 A 
ATOM     16  C   UNL     1      45.719   3.619   8.206  0.00  0.00    +0.000 A 
ATOM     17 CL   UNL     1      46.628   3.935   6.780  0.00  0.00    +0.000 Cl
ATOM     18  C   UNL     1      45.583   4.611   9.177  0.00  0.00    +0.000 A 
ENDBRANCH  11  12
ENDBRANCH   8  11
ENDBRANCH   7   8
ENDBRANCH   1   7
BRANCH   4  19
ATOM     19  C   UNL     1      49.366   6.503  17.569  0.00  0.00    +0.000 C 
BRANCH  19  20
ATOM     20  N   UNL     1      50.292   5.466  18.035  0.00  0.00    +0.000 N 
ATOM     21  C   UNL     1      50.042   4.903  19.356  0.00  0.00    +0.000 C 
ATOM     22  C   UNL     1      51.496   5.302  17.321  0.00  0.00    +0.000 C 
ATOM     23  O   UNL     1      51.722   5.953  16.302  0.00  0.00    +0.000 OA
BRANCH  22  24
ATOM     24  C   UNL     1      52.484   4.306  17.774  0.00  0.00    +0.000 A 
ATOM     25  C   UNL     1      53.684   4.628  18.390  0.00  0.00    +0.000 A 
ATOM     26  S   UNL     1      54.612   3.269  18.838  0.00  0.00    +0.000 S 
ATOM     27  C   UNL     1      53.381   2.199  18.353  0.00  0.00    +0.000 A 
ATOM     28  N   UNL     1      53.505   0.860  18.548  0.00  0.00    +0.000 NA
ATOM     29  C   UNL     1      52.472   0.174  18.189  0.00  0.00    +0.000 A 
ATOM     30  N   UNL     1      51.341   0.705  17.624  0.00  0.00    +0.000 N 
ATOM     31  C   UNL     1      51.222   2.037  17.287  0.00  0.00    +0.000 A 
ATOM     32  O   UNL     1      50.299   2.426  16.584  0.00  0.00    +0.000 OA
ATOM     33  C   UNL     1      52.314   2.867  17.776  0.00  0.00    +0.000 A 
ATOM     34  H   UNL     1      50.592   0.106  17.310  0.00  0.00    +0.000 HD
ENDBRANCH  22  24
ENDBRANCH  19  20
ENDBRANCH   4  19
TORSDOF 7
ENDMDL
MODEL 5
REMARK VINA RESULT:    -6.445      3.399      8.517
REMARK INTER + INTRA:         -10.477
REMARK INTER:                  -9.088
REMARK INTRA:                  -1.389
REMARK UNBOUND:                -1.395
REMARK  Name = 
REMARK  9 active torsions:
REMARK  status: ('A' for Active; 'I' for Inactive)
REMARK    1  A    between atoms: C_1  and  C_2
REMARK    2  A    between atoms: C_2  and  N_3
REMARK    3  A    between atoms: C_2  and  C_26
REMARK    4  A    between atoms: N_3  and  C_4
REMARK    5  A    between atoms: C_4  and  C_5
REMARK    6  A    between atoms: C_8  and  C_9
REMARK    7  A    between atoms: C_9  and  N_10
REMARK    8  A    between atoms: N_10  and  C_11
REMARK    9  A    between atoms: C_12  and  C_14
REMARK                            x       y       z     vdW  Elec       q    Type
REMARK                         _______ _______ _______ _____ _____    ______ ____
ROOT
ATOM      1  C   UNL     1      50.348   8.698  15.461  0.00  0.00    +0.000 A 
ATOM      2  C   UNL     1      49.029   8.874  15.871  0.00  0.00    +0.000 A 
ATOM      3  C   UNL     1      48.007   8.815  14.924  0.00  0.00    +0.000 A 
ATOM      4  C   UNL     1      48.311   8.592  13.578  0.00  0.00    +0.000 A 
ATOM      5  C   UNL     1      49.659   8.500  13.249  0.00  0.00    +0.000 A 
ATOM      6  N   UNL     1      50.673   8.551  14.150  0.00  0.00    +0.000 NA
ENDROOT
BRANCH   1   7
ATOM      7  C   UNL     1      51.468   8.614  16.497  0.00  0.00    +0.000 C 
BRANCH   7   8
ATOM      8  N   UNL     1      50.977   8.160  17.808  0.00  0.00    +0.000 NA
ATOM      9  H   UNL     1      51.409   8.723  18.536  0.00  0.00    +0.000 HD
BRANCH   8  11
ATOM     10  C   UNL     1      52.290   6.111  17.199  0.00  0.00    +0.000 C 
ATOM     11  C   UNL     1      51.240   6.748  18.115  0.00  0.00    +0.000 C 
BRANCH  11  12
ATOM     12  C   UNL     1      49.948   5.936  18.011  0.00  0.00    +0.000 A 
ATOM     13  C   UNL     1      48.756   6.427  18.571  0.00  0.00    +0.000 A 
ATOM     14  C   UNL     1      47.578   5.675  18.522  0.00  0.00    +0.000 A 
ATOM     15  C   UNL     1      47.573   4.422  17.910  0.00  0.00    +0.000 A 
ATOM     16  C   UNL     1      48.748   3.921  17.354  0.00  0.00    +0.000 A 
ATOM     17 CL   UNL     1      48.745   2.375  16.599  0.00  0.00    +0.000 Cl
ATOM     18  C   UNL     1      49.928   4.664  17.409  0.00  0.00    +0.000 A 
ENDBRANCH  11  12
ENDBRANCH   8  11
ENDBRANCH   7   8
ENDBRANCH   1   7
BRANCH   4  19
ATOM     19  C   UNL     1      47.235   8.330  12.551  0.00  0.00    +0.000 C 
BRANCH  19  20
ATOM     20  N   UNL     1      46.693   6.968  12.508  0.00  0.00    +0.000 N 
ATOM     21  C   UNL     1      47.600   5.886  12.873  0.00  0.00    +0.000 C 
ATOM     22  C   UNL     1      45.461   6.780  11.851  0.00  0.00    +0.000 C 
ATOM     23  O   UNL     1      44.831   7.735  11.401  0.00  0.00    +0.000 OA
BRANCH  22  24
ATOM     24  C   UNL     1      44.894   5.424  11.737  0.00  0.00    +0.000 A 
ATOM     25  C   UNL     1      44.148   4.808  12.731  0.00  0.00    +0.000 A 
ATOM     26  S   UNL     1      43.591   3.252  12.308  0.00  0.00    +0.000 S 
ATOM     27  C   UNL     1      44.207   3.401  10.729  0.00  0.00    +0.000 A 
ATOM     28  N   UNL     1      43.993   2.430   9.803  0.00  0.00    +0.000 NA
ATOM     29  C   UNL     1      44.463   2.701   8.632  0.00  0.00    +0.000 A 
ATOM     30  N   UNL     1      45.155   3.841   8.313  0.00  0.00    +0.000 N 
ATOM     31  C   UNL     1      45.510   4.791   9.247  0.00  0.00    +0.000 A 
ATOM     32  O   UNL     1      46.314   5.671   8.971  0.00  0.00    +0.000 OA
ATOM     33  C   UNL     1      44.904   4.585  10.555  0.00  0.00    +0.000 A 
ATOM     34  H   UNL     1      45.548   3.965   7.392  0.00  0.00    +0.000 HD
ENDBRANCH  22  24
ENDBRANCH  19  20
ENDBRANCH   4  19
TORSDOF 7
ENDMDL
MODEL 6
REMARK VINA RESULT:    -6.375      1.615      2.391
REMARK INTER + INTRA:         -10.378
REMARK INTER:                  -9.331
REMARK INTRA:                  -1.047
REMARK UNBOUND:                -1.395
REMARK  Name = 
REMARK  9 active torsions:
REMARK  status: ('A' for Active; 'I' for Inactive)
REMARK    1  A    between atoms: C_1  and  C_2
REMARK    2  A    between atoms: C_2  and  N_3
REMARK    3  A    between atoms: C_2  and  C_26
REMARK    4  A    between atoms: N_3  and  C_4
REMARK    5  A    between atoms: C_4  and  C_5
REMARK    6  A    between atoms: C_8  and  C_9
REMARK    7  A    between atoms: C_9  and  N_10
REMARK    8  A    between atoms: N_10  and  C_11
REMARK    9  A    between atoms: C_12  and  C_14
REMARK                            x       y       z     vdW  Elec       q    Type
REMARK                         _______ _______ _______ _____ _____    ______ ____
ROOT
ATOM      1  C   UNL     1      46.615   8.015  12.098  0.00  0.00    +0.000 A 
ATOM      2  C   UNL     1      47.740   7.197  12.134  0.00  0.00    +0.000 A 
ATOM      3  C   UNL     1      48.839   7.583  12.902  0.00  0.00    +0.000 A 
ATOM      4  C   UNL     1      48.808   8.785  13.615  0.00  0.00    +0.000 A 
ATOM      5  C   UNL     1      47.672   9.572  13.463  0.00  0.00    +0.000 A 
ATOM      6  N   UNL     1      46.588   9.219  12.725  0.00  0.00    +0.000 NA
ENDROOT
BRANCH   1   7
ATOM      7  C   UNL     1      45.348   7.545  11.384  0.00  0.00    +0.000 C 
BRANCH   7   8
ATOM      8  N   UNL     1      44.938   6.198  11.812  0.00  0.00    +0.000 NA
ATOM      9  H   UNL     1      45.732   5.568  11.730  0.00  0.00    +0.000 HD
BRANCH   8  11
ATOM     10  C   UNL     1      42.676   5.120  11.939  0.00  0.00    +0.000 C 
ATOM     11  C   UNL     1      43.822   5.618  11.053  0.00  0.00    +0.000 C 
BRANCH  11  12
ATOM     12  C   UNL     1      44.317   4.450  10.197  0.00  0.00    +0.000 A 
ATOM     13  C   UNL     1      43.960   3.131  10.523  0.00  0.00    +0.000 A 
ATOM     14  C   UNL     1      44.442   2.052   9.775  0.00  0.00    +0.000 A 
ATOM     15  C   UNL     1      45.286   2.276   8.688  0.00  0.00    +0.000 A 
ATOM     16  C   UNL     1      45.650   3.578   8.355  0.00  0.00    +0.000 A 
ATOM     17 CL   UNL     1      46.692   3.856   7.014  0.00  0.00    +0.000 Cl
ATOM     18  C   UNL     1      45.180   4.657   9.104  0.00  0.00    +0.000 A 
ENDBRANCH  11  12
ENDBRANCH   8  11
ENDBRANCH   7   8
ENDBRANCH   1   7
BRANCH   4  19
ATOM     19  C   UNL     1      49.888   9.151  14.605  0.00  0.00    +0.000 C 
BRANCH  19  20
ATOM     20  N   UNL     1      50.119   8.202  15.699  0.00  0.00    +0.000 N 
ATOM     21  C   UNL     1      51.245   7.288  15.551  0.00  0.00    +0.000 C 
ATOM     22  C   UNL     1      49.091   8.044  16.650  0.00  0.00    +0.000 C 
ATOM     23  O   UNL     1      48.074   8.733  16.604  0.00  0.00    +0.000 OA
BRANCH  22  24
ATOM     24  C   UNL     1      49.252   7.068  17.743  0.00  0.00    +0.000 A 
ATOM     25  C   UNL     1      49.709   7.391  19.012  0.00  0.00    +0.000 A 
ATOM     26  S   UNL     1      49.760   6.065  20.083  0.00  0.00    +0.000 S 
ATOM     27  C   UNL     1      49.039   5.039  18.933  0.00  0.00    +0.000 A 
ATOM     28  N   UNL     1      48.720   3.756  19.249  0.00  0.00    +0.000 NA
ATOM     29  C   UNL     1      48.124   3.111  18.302  0.00  0.00    +0.000 A 
ATOM     30  N   UNL     1      47.849   3.624  17.061  0.00  0.00    +0.000 N 
ATOM     31  C   UNL     1      48.271   4.871  16.651  0.00  0.00    +0.000 A 
ATOM     32  O   UNL     1      48.208   5.200  15.475  0.00  0.00    +0.000 OA
ATOM     33  C   UNL     1      48.845   5.677  17.720  0.00  0.00    +0.000 A 
ATOM     34  H   UNL     1      47.435   3.046  16.344  0.00  0.00    +0.000 HD
ENDBRANCH  22  24
ENDBRANCH  19  20
ENDBRANCH   4  19
TORSDOF 7
ENDMDL
MODEL 7
REMARK VINA RESULT:    -6.313      3.139      5.189
REMARK INTER + INTRA:         -10.291
REMARK INTER:                  -9.341
REMARK INTRA:                  -0.950
REMARK UNBOUND:                -1.395
REMARK  Name = 
REMARK  9 active torsions:
REMARK  status: ('A' for Active; 'I' for Inactive)
REMARK    1  A    between atoms: C_1  and  C_2
REMARK    2  A    between atoms: C_2  and  N_3
REMARK    3  A    between atoms: C_2  and  C_26
REMARK    4  A    between atoms: N_3  and  C_4
REMARK    5  A    between atoms: C_4  and  C_5
REMARK    6  A    between atoms: C_8  and  C_9
REMARK    7  A    between atoms: C_9  and  N_10
REMARK    8  A    between atoms: N_10  and  C_11
REMARK    9  A    between atoms: C_12  and  C_14
REMARK                            x       y       z     vdW  Elec       q    Type
REMARK                         _______ _______ _______ _____ _____    ______ ____
ROOT
ATOM      1  C   UNL     1      45.424   4.379  12.574  0.00  0.00    +0.000 A 
ATOM      2  C   UNL     1      46.515   3.917  13.305  0.00  0.00    +0.000 A 
ATOM      3  C   UNL     1      47.423   4.838  13.830  0.00  0.00    +0.000 A 
ATOM      4  C   UNL     1      47.240   6.206  13.609  0.00  0.00    +0.000 A 
ATOM      5  C   UNL     1      46.164   6.571  12.806  0.00  0.00    +0.000 A 
ATOM      6  N   UNL     1      45.264   5.697  12.287  0.00  0.00    +0.000 NA
ENDROOT
BRANCH   1   7
ATOM      7  C   UNL     1      44.341   3.403  12.115  0.00  0.00    +0.000 C 
BRANCH   7   8
ATOM      8  N   UNL     1      44.658   2.795  10.813  0.00  0.00    +0.000 NA
ATOM      9  H   UNL     1      45.424   2.137  10.933  0.00  0.00    +0.000 HD
BRANCH   8  11
ATOM     10  C   UNL     1      43.852   4.486   9.144  0.00  0.00    +0.000 C 
ATOM     11  C   UNL     1      45.043   3.746   9.762  0.00  0.00    +0.000 C 
BRANCH  11  12
ATOM     12  C   UNL     1      45.797   3.021   8.645  0.00  0.00    +0.000 A 
ATOM     13  C   UNL     1      46.343   3.746   7.572  0.00  0.00    +0.000 A 
ATOM     14  C   UNL     1      46.995   3.090   6.523  0.00  0.00    +0.000 A 
ATOM     15  C   UNL     1      47.116   1.701   6.533  0.00  0.00    +0.000 A 
ATOM     16  C   UNL     1      46.578   0.970   7.589  0.00  0.00    +0.000 A 
ATOM     17 CL   UNL     1      46.724  -0.744   7.602  0.00  0.00    +0.000 Cl
ATOM     18  C   UNL     1      45.917   1.618   8.632  0.00  0.00    +0.000 A 
ENDBRANCH  11  12
ENDBRANCH   8  11
ENDBRANCH   7   8
ENDBRANCH   1   7
BRANCH   4  19
ATOM     19  C   UNL     1      48.080   7.245  14.311  0.00  0.00    +0.000 C 
BRANCH  19  20
ATOM     20  N   UNL     1      48.871   8.132  13.451  0.00  0.00    +0.000 N 
ATOM     21  C   UNL     1      49.626   7.505  12.373  0.00  0.00    +0.000 C 
ATOM     22  C   UNL     1      49.075   9.454  13.895  0.00  0.00    +0.000 C 
ATOM     23  O   UNL     1      48.546   9.865  14.926  0.00  0.00    +0.000 OA
BRANCH  22  24
ATOM     24  C   UNL     1      49.902  10.374  13.093  0.00  0.00    +0.000 A 
ATOM     25  C   UNL     1      51.240  10.636  13.345  0.00  0.00    +0.000 A 
ATOM     26  S   UNL     1      51.951  11.715  12.232  0.00  0.00    +0.000 S 
ATOM     27  C   UNL     1      50.535  11.762  11.290  0.00  0.00    +0.000 A 
ATOM     28  N   UNL     1      50.500  12.453  10.120  0.00  0.00    +0.000 NA
ATOM     29  C   UNL     1      49.383  12.353   9.479  0.00  0.00    +0.000 A 
ATOM     30  N   UNL     1      48.291  11.651   9.920  0.00  0.00    +0.000 N 
ATOM     31  C   UNL     1      48.234  11.046  11.157  0.00  0.00    +0.000 A 
ATOM     32  O   UNL     1      47.174  10.630  11.604  0.00  0.00    +0.000 OA
ATOM     33  C   UNL     1      49.507  11.035  11.865  0.00  0.00    +0.000 A 
ATOM     34  H   UNL     1      47.426  11.663   9.399  0.00  0.00    +0.000 HD
ENDBRANCH  22  24
ENDBRANCH  19  20
ENDBRANCH   4  19
TORSDOF 7
ENDMDL
MODEL 8
REMARK VINA RESULT:    -5.957      3.762      7.776
REMARK INTER + INTRA:          -9.789
REMARK INTER:                  -8.005
REMARK INTRA:                  -1.784
REMARK UNBOUND:                -1.395
REMARK  Name = 
REMARK  9 active torsions:
REMARK  status: ('A' for Active; 'I' for Inactive)
REMARK    1  A    between atoms: C_1  and  C_2
REMARK    2  A    between atoms: C_2  and  N_3
REMARK    3  A    between atoms: C_2  and  C_26
REMARK    4  A    between atoms: N_3  and  C_4
REMARK    5  A    between atoms: C_4  and  C_5
REMARK    6  A    between atoms: C_8  and  C_9
REMARK    7  A    between atoms: C_9  and  N_10
REMARK    8  A    between atoms: N_10  and  C_11
REMARK    9  A    between atoms: C_12  and  C_14
REMARK                            x       y       z     vdW  Elec       q    Type
REMARK                         _______ _______ _______ _____ _____    ______ ____
ROOT
ATOM      1  C   UNL     1      50.978   8.592  16.398  0.00  0.00    +0.000 A 
ATOM      2  C   UNL     1      50.553   9.897  16.164  0.00  0.00    +0.000 A 
ATOM      3  C   UNL     1      49.886  10.194  14.975  0.00  0.00    +0.000 A 
ATOM      4  C   UNL     1      49.661   9.190  14.028  0.00  0.00    +0.000 A 
ATOM      5  C   UNL     1      50.184   7.933  14.314  0.00  0.00    +0.000 A 
ATOM      6  N   UNL     1      50.833   7.617  15.464  0.00  0.00    +0.000 NA
ENDROOT
BRANCH   1   7
ATOM      7  C   UNL     1      51.579   8.213  17.751  0.00  0.00    +0.000 C 
BRANCH   7   8
ATOM      8  N   UNL     1      51.182   6.860  18.174  0.00  0.00    +0.000 NA
ATOM      9  H   UNL     1      51.318   6.218  17.398  0.00  0.00    +0.000 HD
BRANCH   8  11
ATOM     10  C   UNL     1      49.638   6.765  20.149  0.00  0.00    +0.000 C 
ATOM     11  C   UNL     1      49.790   6.734  18.625  0.00  0.00    +0.000 C 
BRANCH  11  12
ATOM     12  C   UNL     1      49.182   5.431  18.102  0.00  0.00    +0.000 A 
ATOM     13  C   UNL     1      47.789   5.299  17.978  0.00  0.00    +0.000 A 
ATOM     14  C   UNL     1      47.219   4.098  17.543  0.00  0.00    +0.000 A 
ATOM     15  C   UNL     1      48.033   3.013  17.222  0.00  0.00    +0.000 A 
ATOM     16  C   UNL     1      49.416   3.129  17.343  0.00  0.00    +0.000 A 
ATOM     17 CL   UNL     1      50.423   1.790  16.949  0.00  0.00    +0.000 Cl
ATOM     18  C   UNL     1      49.989   4.321  17.786  0.00  0.00    +0.000 A 
ENDBRANCH  11  12
ENDBRANCH   8  11
ENDBRANCH   7   8
ENDBRANCH   1   7
BRANCH   4  19
ATOM     19  C   UNL     1      48.782   9.416  12.822  0.00  0.00    +0.000 C 
BRANCH  19  20
ATOM     20  N   UNL     1      47.952   8.283  12.399  0.00  0.00    +0.000 N 
ATOM     21  C   UNL     1      48.427   7.507  11.259  0.00  0.00    +0.000 C 
ATOM     22  C   UNL     1      46.645   8.206  12.919  0.00  0.00    +0.000 C 
ATOM     23  O   UNL     1      46.247   9.015  13.754  0.00  0.00    +0.000 OA
BRANCH  22  24
ATOM     24  C   UNL     1      45.752   7.114  12.491  0.00  0.00    +0.000 A 
ATOM     25  C   UNL     1      44.701   7.274  11.601  0.00  0.00    +0.000 A 
ATOM     26  S   UNL     1      43.860   5.829  11.262  0.00  0.00    +0.000 S 
ATOM     27  C   UNL     1      44.958   4.911  12.181  0.00  0.00    +0.000 A 
ATOM     28  N   UNL     1      44.857   3.557  12.238  0.00  0.00    +0.000 NA
ATOM     29  C   UNL     1      45.790   2.984  12.922  0.00  0.00    +0.000 A 
ATOM     30  N   UNL     1      46.796   3.646  13.578  0.00  0.00    +0.000 N 
ATOM     31  C   UNL     1      46.864   5.021  13.659  0.00  0.00    +0.000 A 
ATOM     32  O   UNL     1      47.636   5.566  14.436  0.00  0.00    +0.000 OA
ATOM     33  C   UNL     1      45.900   5.707  12.810  0.00  0.00    +0.000 A 
ATOM     34  H   UNL     1      47.460   3.141  14.146  0.00  0.00    +0.000 HD
ENDBRANCH  22  24
ENDBRANCH  19  20
ENDBRANCH   4  19
TORSDOF 7
ENDMDL
MODEL 9
REMARK VINA RESULT:    -5.824      3.204      4.718
REMARK INTER + INTRA:          -9.602
REMARK INTER:                  -8.653
REMARK INTRA:                  -0.948
REMARK UNBOUND:                -1.395
REMARK  Name = 
REMARK  9 active torsions:
REMARK  status: ('A' for Active; 'I' for Inactive)
REMARK    1  A    between atoms: C_1  and  C_2
REMARK    2  A    between atoms: C_2  and  N_3
REMARK    3  A    between atoms: C_2  and  C_26
REMARK    4  A    between atoms: N_3  and  C_4
REMARK    5  A    between atoms: C_4  and  C_5
REMARK    6  A    between atoms: C_8  and  C_9
REMARK    7  A    between atoms: C_9  and  N_10
REMARK    8  A    between atoms: N_10  and  C_11
REMARK    9  A    between atoms: C_12  and  C_14
REMARK                            x       y       z     vdW  Elec       q    Type
REMARK                         _______ _______ _______ _____ _____    ______ ____
ROOT
ATOM      1  C   UNL     1      45.465   4.600  12.524  0.00  0.00    +0.000 A 
ATOM      2  C   UNL     1      46.526   4.159  13.310  0.00  0.00    +0.000 A 
ATOM      3  C   UNL     1      47.408   5.095  13.851  0.00  0.00    +0.000 A 
ATOM      4  C   UNL     1      47.229   6.457  13.593  0.00  0.00    +0.000 A 
ATOM      5  C   UNL     1      46.186   6.799  12.738  0.00  0.00    +0.000 A 
ATOM      6  N   UNL     1      45.312   5.910  12.202  0.00  0.00    +0.000 NA
ENDROOT
BRANCH   1   7
ATOM      7  C   UNL     1      44.405   3.609  12.043  0.00  0.00    +0.000 C 
BRANCH   7   8
ATOM      8  N   UNL     1      44.812   2.919  10.808  0.00  0.00    +0.000 NA
ATOM      9  H   UNL     1      45.634   2.353  11.000  0.00  0.00    +0.000 HD
BRANCH   8  11
ATOM     10  C   UNL     1      43.893   4.461   9.055  0.00  0.00    +0.000 C 
ATOM     11  C   UNL     1      45.129   3.803   9.678  0.00  0.00    +0.000 C 
BRANCH  11  12
ATOM     12  C   UNL     1      45.866   3.023   8.588  0.00  0.00    +0.000 A 
ATOM     13  C   UNL     1      46.441   3.699   7.499  0.00  0.00    +0.000 A 
ATOM     14  C   UNL     1      47.078   2.994   6.474  0.00  0.00    +0.000 A 
ATOM     15  C   UNL     1      47.155   1.602   6.524  0.00  0.00    +0.000 A 
ATOM     16  C   UNL     1      46.587   0.919   7.596  0.00  0.00    +0.000 A 
ATOM     17 CL   UNL     1      46.679  -0.798   7.660  0.00  0.00    +0.000 Cl
ATOM     18  C   UNL     1      45.941   1.617   8.616  0.00  0.00    +0.000 A 
ENDBRANCH  11  12
ENDBRANCH   8  11
ENDBRANCH   7   8
ENDBRANCH   1   7
BRANCH   4  19
ATOM     19  C   UNL     1      48.037   7.515  14.305  0.00  0.00    +0.000 C 
BRANCH  19  20
ATOM     20  N   UNL     1      48.962   8.296  13.478  0.00  0.00    +0.000 N 
ATOM     21  C   UNL     1      49.683   7.576  12.435  0.00  0.00    +0.000 C 
ATOM     22  C   UNL     1      49.301   9.588  13.926  0.00  0.00    +0.000 C 
ATOM     23  O   UNL     1      48.780  10.067  14.932  0.00  0.00    +0.000 OA
BRANCH  22  24
ATOM     24  C   UNL     1      50.263  10.399  13.157  0.00  0.00    +0.000 A 
ATOM     25  C   UNL     1      49.900  11.346  12.212  0.00  0.00    +0.000 A 
ATOM     26  S   UNL     1      51.225  12.156  11.506  0.00  0.00    +0.000 S 
ATOM     27  C   UNL     1      52.326  11.370  12.538  0.00  0.00    +0.000 A 
ATOM     28  N   UNL     1      53.648  11.680  12.511  0.00  0.00    +0.000 NA
ATOM     29  C   UNL     1      54.358  11.053  13.389  0.00  0.00    +0.000 A 
ATOM     30  N   UNL     1      53.867  10.121  14.267  0.00  0.00    +0.000 N 
ATOM     31  C   UNL     1      52.562   9.678  14.244  0.00  0.00    +0.000 A 
ATOM     32  O   UNL     1      52.222   8.692  14.883  0.00  0.00    +0.000 OA
ATOM     33  C   UNL     1      51.700  10.439  13.349  0.00  0.00    +0.000 A 
ATOM     34  H   UNL     1      54.486   9.622  14.888  0.00  0.00    +0.000 HD
ENDBRANCH  22  24
ENDBRANCH  19  20
ENDBRANCH   4  19
TORSDOF 7
ENDMDL
