MODEL 1
REMARK VINA RESULT:    -8.075      0.000      0.000
REMARK INTER + INTRA:         -11.468
REMARK INTER:                 -10.436
REMARK INTRA:                  -1.032
REMARK UNBOUND:                -1.032
REMARK  Name = 
REMARK  6 active torsions:
REMARK  status: ('A' for Active; 'I' for Inactive)
REMARK    1  A    between atoms: C_1  and  N_2
REMARK    2  A    between atoms: N_2  and  C_3
REMARK    3  A    between atoms: C_3  and  C_4
REMARK    4  A    between atoms: C_7  and  C_8
REMARK    5  A    between atoms: C_8  and  N_9
REMARK    6  A    between atoms: C_18  and  C_20
REMARK                            x       y       z     vdW  Elec       q    Type
REMARK                         _______ _______ _______ _____ _____    ______ ____
ROOT
ATOM      1  C   UNL     1      47.308   7.414  13.668  0.00  0.00    +0.000 C 
ENDROOT
BRANCH   1   2
ATOM      2  C   UNL     1      46.569   6.472  12.762  0.00  0.00    +0.000 A 
ATOM      3  C   UNL     1      46.230   6.837  11.457  0.00  0.00    +0.000 A 
ATOM      4  C   UNL     1      45.500   5.961  10.656  0.00  0.00    +0.000 A 
ATOM      5  C   UNL     1      45.071   4.730  11.156  0.00  0.00    +0.000 A 
ATOM      6  C   UNL     1      45.452   4.339  12.442  0.00  0.00    +0.000 A 
ATOM      7  C   UNL     1      46.193   5.205  13.240  0.00  0.00    +0.000 A 
BRANCH   5   8
ATOM      8  C   UNL     1      44.180   3.838  10.330  0.00  0.00    +0.000 C 
BRANCH   8   9
ATOM      9  N   UNL     1      44.295   4.165   8.926  0.00  0.00    +0.000 N 
ATOM     10  C   UNL     1      45.236   3.369   8.285  0.00  0.00    +0.000 A 
ATOM     11  N   UNL     1      45.437   2.110   8.699  0.00  0.00    +0.000 NA
ATOM     12  C   UNL     1      46.371   1.386   8.061  0.00  0.00    +0.000 A 
ATOM     13  C   UNL     1      47.113   1.875   7.019  0.00  0.00    +0.000 A 
ATOM     14  C   UNL     1      46.840   3.175   6.667  0.00  0.00    +0.000 A 
ATOM     15  N   UNL     1      45.921   3.941   7.287  0.00  0.00    +0.000 NA
ATOM     16  H   UNL     1      44.531   5.128   8.717  0.00  0.00    +0.000 HD
ENDBRANCH   8   9
ENDBRANCH   5   8
ENDBRANCH   1   2
BRANCH   1  18
ATOM     17  C   UNL     1      49.552   7.592  12.525  0.00  0.00    +0.000 C 
ATOM     18  N   UNL     1      48.762   7.273  13.711  0.00  0.00    +0.000 N 
ATOM     19  C   UNL     1      49.503   7.216  14.909  0.00  0.00    +0.000 C 
ATOM     20  O   UNL     1      50.724   7.068  14.876  0.00  0.00    +0.000 OA
BRANCH  19  21
ATOM     21  C   UNL     1      48.858   7.469  16.211  0.00  0.00    +0.000 A 
ATOM     22  C   UNL     1      48.686   8.710  16.803  0.00  0.00    +0.000 A 
ATOM     23  S   UNL     1      48.211   8.640  18.441  0.00  0.00    +0.000 S 
ATOM     24  C   UNL     1      48.273   6.944  18.432  0.00  0.00    +0.000 A 
ATOM     25  N   UNL     1      48.116   6.233  19.578  0.00  0.00    +0.000 NA
ATOM     26  C   UNL     1      48.186   4.953  19.416  0.00  0.00    +0.000 A 
ATOM     27  N   UNL     1      48.350   4.323  18.207  0.00  0.00    +0.000 N 
ATOM     28  C   UNL     1      48.419   5.003  17.010  0.00  0.00    +0.000 A 
ATOM     29  O   UNL     1      48.315   4.418  15.937  0.00  0.00    +0.000 OA
ATOM     30  C   UNL     1      48.501   6.444  17.163  0.00  0.00    +0.000 A 
ATOM     31  H   UNL     1      48.272   3.319  18.139  0.00  0.00    +0.000 HD
ENDBRANCH  19  21
ENDBRANCH   1  18
TORSDOF 5
ENDMDL
MODEL 2
REMARK VINA RESULT:    -7.795      2.044      2.673
REMARK INTER + INTRA:         -11.105
REMARK INTER:                 -10.098
REMARK INTRA:                  -1.008
REMARK UNBOUND:                -1.032
REMARK  Name = 
REMARK  6 active torsions:
REMARK  status: ('A' for Active; 'I' for Inactive)
REMARK    1  A    between atoms: C_1  and  N_2
REMARK    2  A    between atoms: N_2  and  C_3
REMARK    3  A    between atoms: C_3  and  C_4
REMARK    4  A    between atoms: C_7  and  C_8
REMARK    5  A    between atoms: C_8  and  N_9
REMARK    6  A    between atoms: C_18  and  C_20
REMARK                            x       y       z     vdW  Elec       q    Type
REMARK                         _______ _______ _______ _____ _____    ______ ____
ROOT
ATOM      1  C   UNL     1      48.782   6.653  13.704  0.00  0.00    +0.000 C 
ENDROOT
BRANCH   1   2
ATOM      2  C   UNL     1      47.565   6.121  13.003  0.00  0.00    +0.000 A 
ATOM      3  C   UNL     1      46.842   5.044  13.522  0.00  0.00    +0.000 A 
ATOM      4  C   UNL     1      45.747   4.540  12.825  0.00  0.00    +0.000 A 
ATOM      5  C   UNL     1      45.382   5.078  11.589  0.00  0.00    +0.000 A 
ATOM      6  C   UNL     1      46.070   6.187  11.091  0.00  0.00    +0.000 A 
ATOM      7  C   UNL     1      47.156   6.702  11.792  0.00  0.00    +0.000 A 
BRANCH   5   8
ATOM      8  C   UNL     1      44.274   4.452  10.780  0.00  0.00    +0.000 C 
BRANCH   8   9
ATOM      9  N   UNL     1      44.417   4.784   9.380  0.00  0.00    +0.000 N 
ATOM     10  C   UNL     1      45.195   3.852   8.704  0.00  0.00    +0.000 A 
ATOM     11  N   UNL     1      45.182   2.568   9.091  0.00  0.00    +0.000 NA
ATOM     12  C   UNL     1      45.964   1.708   8.419  0.00  0.00    +0.000 A 
ATOM     13  C   UNL     1      46.760   2.083   7.370  0.00  0.00    +0.000 A 
ATOM     14  C   UNL     1      46.710   3.418   7.048  0.00  0.00    +0.000 A 
ATOM     15  N   UNL     1      45.949   4.318   7.701  0.00  0.00    +0.000 NA
ATOM     16  H   UNL     1      44.812   5.696   9.183  0.00  0.00    +0.000 HD
ENDBRANCH   8   9
ENDBRANCH   5   8
ENDBRANCH   1   2
BRANCH   1  18
ATOM     17  C   UNL     1      47.702   8.785  14.515  0.00  0.00    +0.000 C 
ATOM     18  N   UNL     1      48.549   7.623  14.771  0.00  0.00    +0.000 N 
ATOM     19  C   UNL     1      48.764   7.345  16.136  0.00  0.00    +0.000 C 
ATOM     20  O   UNL     1      48.574   8.217  16.984  0.00  0.00    +0.000 OA
BRANCH  19  21
ATOM     21  C   UNL     1      49.082   5.978  16.589  0.00  0.00    +0.000 A 
ATOM     22  C   UNL     1      48.161   5.014  16.967  0.00  0.00    +0.000 A 
ATOM     23  S   UNL     1      48.849   3.663  17.751  0.00  0.00    +0.000 S 
ATOM     24  C   UNL     1      50.399   4.346  17.662  0.00  0.00    +0.000 A 
ATOM     25  N   UNL     1      51.456   3.765  18.287  0.00  0.00    +0.000 NA
ATOM     26  C   UNL     1      52.571   4.397  18.130  0.00  0.00    +0.000 A 
ATOM     27  N   UNL     1      52.733   5.526  17.366  0.00  0.00    +0.000 N 
ATOM     28  C   UNL     1      51.708   6.095  16.640  0.00  0.00    +0.000 A 
ATOM     29  O   UNL     1      51.927   6.942  15.782  0.00  0.00    +0.000 OA
ATOM     30  C   UNL     1      50.408   5.508  16.913  0.00  0.00    +0.000 A 
ATOM     31  H   UNL     1      53.655   5.897  17.188  0.00  0.00    +0.000 HD
ENDBRANCH  19  21
ENDBRANCH   1  18
TORSDOF 5
ENDMDL
MODEL 3
REMARK VINA RESULT:    -7.563      1.931      2.589
REMARK INTER + INTRA:         -10.806
REMARK INTER:                  -9.632
REMARK INTRA:                  -1.174
REMARK UNBOUND:                -1.032
REMARK  Name = 
REMARK  6 active torsions:
REMARK  status: ('A' for Active; 'I' for Inactive)
REMARK    1  A    between atoms: C_1  and  N_2
REMARK    2  A    between atoms: N_2  and  C_3
REMARK    3  A    between atoms: C_3  and  C_4
REMARK    4  A    between atoms: C_7  and  C_8
REMARK    5  A    between atoms: C_8  and  N_9
REMARK    6  A    between atoms: C_18  and  C_20
REMARK                            x       y       z     vdW  Elec       q    Type
REMARK                         _______ _______ _______ _____ _____    ______ ____
ROOT
ATOM      1  C   UNL     1      49.331   7.108  14.515  0.00  0.00    +0.000 C 
ENDROOT
BRANCH   1   2
ATOM      2  C   UNL     1      48.134   6.569  13.786  0.00  0.00    +0.000 A 
ATOM      3  C   UNL     1      47.336   5.567  14.343  0.00  0.00    +0.000 A 
ATOM      4  C   UNL     1      46.261   5.052  13.622  0.00  0.00    +0.000 A 
ATOM      5  C   UNL     1      45.991   5.502  12.329  0.00  0.00    +0.000 A 
ATOM      6  C   UNL     1      46.755   6.540  11.788  0.00  0.00    +0.000 A 
ATOM      7  C   UNL     1      47.820   7.067  12.510  0.00  0.00    +0.000 A 
BRANCH   5   8
ATOM      8  C   UNL     1      44.904   4.857  11.506  0.00  0.00    +0.000 C 
BRANCH   8   9
ATOM      9  N   UNL     1      44.951   5.333  10.142  0.00  0.00    +0.000 N 
ATOM     10  C   UNL     1      45.384   4.348   9.263  0.00  0.00    +0.000 A 
ATOM     11  N   UNL     1      45.104   3.061   9.515  0.00  0.00    +0.000 NA
ATOM     12  C   UNL     1      45.560   2.143   8.648  0.00  0.00    +0.000 A 
ATOM     13  C   UNL     1      46.287   2.464   7.534  0.00  0.00    +0.000 A 
ATOM     14  C   UNL     1      46.528   3.805   7.360  0.00  0.00    +0.000 A 
ATOM     15  N   UNL     1      46.100   4.759   8.210  0.00  0.00    +0.000 NA
ATOM     16  H   UNL     1      45.530   6.148   9.980  0.00  0.00    +0.000 HD
ENDBRANCH   8   9
ENDBRANCH   5   8
ENDBRANCH   1   2
BRANCH   1  18
ATOM     17  C   UNL     1      48.067   9.079  15.459  0.00  0.00    +0.000 C 
ATOM     18  N   UNL     1      49.064   8.024  15.622  0.00  0.00    +0.000 N 
ATOM     19  C   UNL     1      49.412   7.751  16.960  0.00  0.00    +0.000 C 
ATOM     20  O   UNL     1      49.183   8.578  17.842  0.00  0.00    +0.000 OA
BRANCH  19  21
ATOM     21  C   UNL     1      49.925   6.425  17.353  0.00  0.00    +0.000 A 
ATOM     22  C   UNL     1      51.237   5.996  17.236  0.00  0.00    +0.000 A 
ATOM     23  S   UNL     1      51.444   4.316  17.462  0.00  0.00    +0.000 S 
ATOM     24  C   UNL     1      49.775   4.095  17.671  0.00  0.00    +0.000 A 
ATOM     25  N   UNL     1      49.241   2.850  17.764  0.00  0.00    +0.000 NA
ATOM     26  C   UNL     1      47.958   2.839  17.921  0.00  0.00    +0.000 A 
ATOM     27  N   UNL     1      47.173   3.958  18.044  0.00  0.00    +0.000 N 
ATOM     28  C   UNL     1      47.685   5.238  18.050  0.00  0.00    +0.000 A 
ATOM     29  O   UNL     1      47.007   6.195  18.405  0.00  0.00    +0.000 OA
ATOM     30  C   UNL     1      49.097   5.300  17.719  0.00  0.00    +0.000 A 
ATOM     31  H   UNL     1      46.197   3.874  18.288  0.00  0.00    +0.000 HD
ENDBRANCH  19  21
ENDBRANCH   1  18
TORSDOF 5
ENDMDL
MODEL 4
REMARK VINA RESULT:    -7.445      1.776      2.649
REMARK INTER + INTRA:         -10.653
REMARK INTER:                  -9.607
REMARK INTRA:                  -1.046
REMARK UNBOUND:                -1.032
REMARK  Name = 
REMARK  6 active torsions:
REMARK  status: ('A' for Active; 'I' for Inactive)
REMARK    1  A    between atoms: C_1  and  N_2
REMARK    2  A    between atoms: N_2  and  C_3
REMARK    3  A    between atoms: C_3  and  C_4
REMARK    4  A    between atoms: C_7  and  C_8
REMARK    5  A    between atoms: C_8  and  N_9
REMARK    6  A    between atoms: C_18  and  C_20
REMARK                            x       y       z     vdW  Elec       q    Type
REMARK                         _______ _______ _______ _____ _____    ______ ____
ROOT
ATOM      1  C   UNL     1      46.939   7.456  13.484  0.00  0.00    +0.000 C 
ENDROOT
BRANCH   1   2
ATOM      2  C   UNL     1      46.139   6.403  12.774  0.00  0.00    +0.000 A 
ATOM      3  C   UNL     1      46.289   5.048  13.081  0.00  0.00    +0.000 A 
ATOM      4  C   UNL     1      45.570   4.090  12.371  0.00  0.00    +0.000 A 
ATOM      5  C   UNL     1      44.724   4.465  11.326  0.00  0.00    +0.000 A 
ATOM      6  C   UNL     1      44.532   5.821  11.049  0.00  0.00    +0.000 A 
ATOM      7  C   UNL     1      45.237   6.782  11.766  0.00  0.00    +0.000 A 
BRANCH   5   8
ATOM      8  C   UNL     1      44.042   3.418  10.481  0.00  0.00    +0.000 C 
BRANCH   8   9
ATOM      9  N   UNL     1      44.054   3.805   9.088  0.00  0.00    +0.000 N 
ATOM     10  C   UNL     1      45.071   3.172   8.383  0.00  0.00    +0.000 A 
ATOM     11  N   UNL     1      45.463   1.941   8.741  0.00  0.00    +0.000 NA
ATOM     12  C   UNL     1      46.462   1.378   8.042  0.00  0.00    +0.000 A 
ATOM     13  C   UNL     1      47.086   2.002   6.995  0.00  0.00    +0.000 A 
ATOM     14  C   UNL     1      46.620   3.261   6.704  0.00  0.00    +0.000 A 
ATOM     15  N   UNL     1      45.628   3.869   7.384  0.00  0.00    +0.000 NA
ATOM     16  H   UNL     1      44.144   4.798   8.908  0.00  0.00    +0.000 HD
ENDBRANCH   8   9
ENDBRANCH   5   8
ENDBRANCH   1   2
BRANCH   1  18
ATOM     17  C   UNL     1      48.572   8.284  11.745  0.00  0.00    +0.000 C 
ATOM     18  N   UNL     1      48.317   7.645  13.034  0.00  0.00    +0.000 N 
ATOM     19  C   UNL     1      49.430   7.605  13.897  0.00  0.00    +0.000 C 
ATOM     20  O   UNL     1      50.568   7.745  13.449  0.00  0.00    +0.000 OA
BRANCH  19  21
ATOM     21  C   UNL     1      49.252   7.536  15.360  0.00  0.00    +0.000 A 
ATOM     22  C   UNL     1      49.201   6.376  16.117  0.00  0.00    +0.000 A 
ATOM     23  S   UNL     1      48.656   6.612  17.717  0.00  0.00    +0.000 S 
ATOM     24  C   UNL     1      48.416   8.268  17.438  0.00  0.00    +0.000 A 
ATOM     25  N   UNL     1      47.817   9.055  18.368  0.00  0.00    +0.000 NA
ATOM     26  C   UNL     1      47.704  10.292  18.016  0.00  0.00    +0.000 A 
ATOM     27  N   UNL     1      48.180  10.821  16.842  0.00  0.00    +0.000 N 
ATOM     28  C   UNL     1      48.877  10.078  15.913  0.00  0.00    +0.000 A 
ATOM     29  O   UNL     1      49.499  10.616  15.003  0.00  0.00    +0.000 OA
ATOM     30  C   UNL     1      48.888   8.655  16.197  0.00  0.00    +0.000 A 
ATOM     31  H   UNL     1      48.166  11.818  16.687  0.00  0.00    +0.000 HD
ENDBRANCH  19  21
ENDBRANCH   1  18
TORSDOF 5
ENDMDL
MODEL 5
REMARK VINA RESULT:    -7.136      3.363      8.074
REMARK INTER + INTRA:         -10.254
REMARK INTER:                  -9.304
REMARK INTRA:                  -0.950
REMARK UNBOUND:                -1.032
REMARK  Name = 
REMARK  6 active torsions:
REMARK  status: ('A' for Active; 'I' for Inactive)
REMARK    1  A    between atoms: C_1  and  N_2
REMARK    2  A    between atoms: N_2  and  C_3
REMARK    3  A    between atoms: C_3  and  C_4
REMARK    4  A    between atoms: C_7  and  C_8
REMARK    5  A    between atoms: C_8  and  N_9
REMARK    6  A    between atoms: C_18  and  C_20
REMARK                            x       y       z     vdW  Elec       q    Type
REMARK                         _______ _______ _______ _____ _____    ______ ____
ROOT
ATOM      1  C   UNL     1      47.719   6.903  12.330  0.00  0.00    +0.000 C 
ENDROOT
BRANCH   1   2
ATOM      2  C   UNL     1      47.968   6.367  13.711  0.00  0.00    +0.000 A 
ATOM      3  C   UNL     1      47.352   5.195  14.156  0.00  0.00    +0.000 A 
ATOM      4  C   UNL     1      47.563   4.749  15.458  0.00  0.00    +0.000 A 
ATOM      5  C   UNL     1      48.360   5.482  16.340  0.00  0.00    +0.000 A 
ATOM      6  C   UNL     1      49.020   6.626  15.884  0.00  0.00    +0.000 A 
ATOM      7  C   UNL     1      48.822   7.066  14.579  0.00  0.00    +0.000 A 
BRANCH   5   8
ATOM      8  C   UNL     1      48.488   5.063  17.783  0.00  0.00    +0.000 C 
BRANCH   8   9
ATOM      9  N   UNL     1      48.598   3.625  17.886  0.00  0.00    +0.000 N 
ATOM     10  C   UNL     1      49.922   3.205  17.898  0.00  0.00    +0.000 A 
ATOM     11  N   UNL     1      50.864   3.990  18.441  0.00  0.00    +0.000 NA
ATOM     12  C   UNL     1      52.133   3.551  18.412  0.00  0.00    +0.000 A 
ATOM     13  C   UNL     1      52.497   2.352  17.860  0.00  0.00    +0.000 A 
ATOM     14  C   UNL     1      51.465   1.618  17.326  0.00  0.00    +0.000 A 
ATOM     15  N   UNL     1      50.180   2.024  17.322  0.00  0.00    +0.000 NA
ATOM     16  H   UNL     1      48.127   3.095  17.162  0.00  0.00    +0.000 HD
ENDBRANCH   8   9
ENDBRANCH   5   8
ENDBRANCH   1   2
BRANCH   1  18
ATOM     17  C   UNL     1      46.527   9.127  12.232  0.00  0.00    +0.000 C 
ATOM     18  N   UNL     1      46.489   7.670  12.140  0.00  0.00    +0.000 N 
ATOM     19  C   UNL     1      45.341   7.154  11.505  0.00  0.00    +0.000 C 
ATOM     20  O   UNL     1      44.327   7.844  11.401  0.00  0.00    +0.000 OA
BRANCH  19  21
ATOM     21  C   UNL     1      45.372   5.842  10.833  0.00  0.00    +0.000 A 
ATOM     22  C   UNL     1      45.824   5.600   9.545  0.00  0.00    +0.000 A 
ATOM     23  S   UNL     1      45.424   4.053   8.946  0.00  0.00    +0.000 S 
ATOM     24  C   UNL     1      44.583   3.670  10.369  0.00  0.00    +0.000 A 
ATOM     25  N   UNL     1      43.859   2.526  10.467  0.00  0.00    +0.000 NA
ATOM     26  C   UNL     1      43.275   2.370  11.609  0.00  0.00    +0.000 A 
ATOM     27  N   UNL     1      43.392   3.229  12.674  0.00  0.00    +0.000 N 
ATOM     28  C   UNL     1      44.192   4.352  12.649  0.00  0.00    +0.000 A 
ATOM     29  O   UNL     1      44.473   4.958  13.676  0.00  0.00    +0.000 OA
ATOM     30  C   UNL     1      44.739   4.646  11.336  0.00  0.00    +0.000 A 
ATOM     31  H   UNL     1      43.009   2.982  13.575  0.00  0.00    +0.000 HD
ENDBRANCH  19  21
ENDBRANCH   1  18
TORSDOF 5
ENDMDL
MODEL 6
REMARK VINA RESULT:    -6.791      3.134      4.550
REMARK INTER + INTRA:          -9.808
REMARK INTER:                  -8.536
REMARK INTRA:                  -1.272
REMARK UNBOUND:                -1.032
REMARK  Name = 
REMARK  6 active torsions:
REMARK  status: ('A' for Active; 'I' for Inactive)
REMARK    1  A    between atoms: C_1  and  N_2
REMARK    2  A    between atoms: N_2  and  C_3
REMARK    3  A    between atoms: C_3  and  C_4
REMARK    4  A    between atoms: C_7  and  C_8
REMARK    5  A    between atoms: C_8  and  N_9
REMARK    6  A    between atoms: C_18  and  C_20
REMARK                            x       y       z     vdW  Elec       q    Type
REMARK                         _______ _______ _______ _____ _____    ______ ____
ROOT
ATOM      1  C   UNL     1      49.848   8.010  16.984  0.00  0.00    +0.000 C 
ENDROOT
BRANCH   1   2
ATOM      2  C   UNL     1      48.999   7.854  15.755  0.00  0.00    +0.000 A 
ATOM      3  C   UNL     1      48.429   8.962  15.123  0.00  0.00    +0.000 A 
ATOM      4  C   UNL     1      47.605   8.783  14.014  0.00  0.00    +0.000 A 
ATOM      5  C   UNL     1      47.312   7.501  13.545  0.00  0.00    +0.000 A 
ATOM      6  C   UNL     1      47.921   6.394  14.142  0.00  0.00    +0.000 A 
ATOM      7  C   UNL     1      48.755   6.570  15.241  0.00  0.00    +0.000 A 
BRANCH   5   8
ATOM      8  C   UNL     1      46.325   7.304  12.422  0.00  0.00    +0.000 C 
BRANCH   8   9
ATOM      9  N   UNL     1      45.012   7.004  12.948  0.00  0.00    +0.000 N 
ATOM     10  C   UNL     1      44.532   5.786  12.479  0.00  0.00    +0.000 A 
ATOM     11  N   UNL     1      45.390   4.792  12.209  0.00  0.00    +0.000 NA
ATOM     12  C   UNL     1      44.881   3.641  11.740  0.00  0.00    +0.000 A 
ATOM     13  C   UNL     1      43.542   3.446  11.532  0.00  0.00    +0.000 A 
ATOM     14  C   UNL     1      42.741   4.521  11.833  0.00  0.00    +0.000 A 
ATOM     15  N   UNL     1      43.209   5.697  12.295  0.00  0.00    +0.000 NA
ATOM     16  H   UNL     1      44.295   7.695  12.762  0.00  0.00    +0.000 HD
ENDBRANCH   8   9
ENDBRANCH   5   8
ENDBRANCH   1   2
BRANCH   1  18
ATOM     17  C   UNL     1      48.125   9.069  18.496  0.00  0.00    +0.000 C 
ATOM     18  N   UNL     1      49.143   8.048  18.264  0.00  0.00    +0.000 N 
ATOM     19  C   UNL     1      49.092   6.958  19.156  0.00  0.00    +0.000 C 
ATOM     20  O   UNL     1      48.503   7.064  20.232  0.00  0.00    +0.000 OA
BRANCH  19  21
ATOM     21  C   UNL     1      49.615   5.635  18.767  0.00  0.00    +0.000 A 
ATOM     22  C   UNL     1      50.943   5.240  18.819  0.00  0.00    +0.000 A 
ATOM     23  S   UNL     1      51.269   3.782  17.995  0.00  0.00    +0.000 S 
ATOM     24  C   UNL     1      49.654   3.654  17.490  0.00  0.00    +0.000 A 
ATOM     25  N   UNL     1      49.270   2.693  16.612  0.00  0.00    +0.000 NA
ATOM     26  C   UNL     1      48.011   2.719  16.322  0.00  0.00    +0.000 A 
ATOM     27  N   UNL     1      47.098   3.587  16.867  0.00  0.00    +0.000 N 
ATOM     28  C   UNL     1      47.428   4.517  17.831  0.00  0.00    +0.000 A 
ATOM     29  O   UNL     1      46.564   5.103  18.474  0.00  0.00    +0.000 OA
ATOM     30  C   UNL     1      48.856   4.624  18.069  0.00  0.00    +0.000 A 
ATOM     31  H   UNL     1      46.111   3.471  16.688  0.00  0.00    +0.000 HD
ENDBRANCH  19  21
ENDBRANCH   1  18
TORSDOF 5
ENDMDL
MODEL 7
REMARK VINA RESULT:    -6.574      3.447      8.785
REMARK INTER + INTRA:          -9.528
REMARK INTER:                  -8.687
REMARK INTRA:                  -0.841
REMARK UNBOUND:                -1.032
REMARK  Name = 
REMARK  6 active torsions:
REMARK  status: ('A' for Active; 'I' for Inactive)
REMARK    1  A    between atoms: C_1  and  N_2
REMARK    2  A    between atoms: N_2  and  C_3
REMARK    3  A    between atoms: C_3  and  C_4
REMARK    4  A    between atoms: C_7  and  C_8
REMARK    5  A    between atoms: C_8  and  N_9
REMARK    6  A    between atoms: C_18  and  C_20
REMARK                            x       y       z     vdW  Elec       q    Type
REMARK                         _______ _______ _______ _____ _____    ______ ____
ROOT
ATOM      1  C   UNL     1      47.162   5.267  12.837  0.00  0.00    +0.000 C 
ENDROOT
BRANCH   1   2
ATOM      2  C   UNL     1      47.478   5.245  14.305  0.00  0.00    +0.000 A 
ATOM      3  C   UNL     1      48.330   6.192  14.878  0.00  0.00    +0.000 A 
ATOM      4  C   UNL     1      48.644   6.116  16.233  0.00  0.00    +0.000 A 
ATOM      5  C   UNL     1      48.144   5.079  17.022  0.00  0.00    +0.000 A 
ATOM      6  C   UNL     1      47.251   4.160  16.465  0.00  0.00    +0.000 A 
ATOM      7  C   UNL     1      46.923   4.241  15.116  0.00  0.00    +0.000 A 
BRANCH   5   8
ATOM      8  C   UNL     1      48.583   4.930  18.457  0.00  0.00    +0.000 C 
BRANCH   8   9
ATOM      9  N   UNL     1      49.429   3.768  18.611  0.00  0.00    +0.000 N 
ATOM     10  C   UNL     1      50.777   4.093  18.520  0.00  0.00    +0.000 A 
ATOM     11  N   UNL     1      51.202   5.293  18.941  0.00  0.00    +0.000 NA
ATOM     12  C   UNL     1      52.510   5.569  18.815  0.00  0.00    +0.000 A 
ATOM     13  C   UNL     1      53.413   4.687  18.284  0.00  0.00    +0.000 A 
ATOM     14  C   UNL     1      52.885   3.485  17.878  0.00  0.00    +0.000 A 
ATOM     15  N   UNL     1      51.579   3.170  17.974  0.00  0.00    +0.000 NA
ATOM     16  H   UNL     1      49.263   3.013  17.956  0.00  0.00    +0.000 HD
ENDBRANCH   8   9
ENDBRANCH   5   8
ENDBRANCH   1   2
BRANCH   1  18
ATOM     17  C   UNL     1      47.295   7.663  12.051  0.00  0.00    +0.000 C 
ATOM     18  N   UNL     1      46.502   6.468  12.330  0.00  0.00    +0.000 N 
ATOM     19  C   UNL     1      45.226   6.461  11.731  0.00  0.00    +0.000 C 
ATOM     20  O   UNL     1      44.713   7.512  11.349  0.00  0.00    +0.000 OA
BRANCH  19  21
ATOM     21  C   UNL     1      44.542   5.191  11.423  0.00  0.00    +0.000 A 
ATOM     22  C   UNL     1      43.676   4.511  12.266  0.00  0.00    +0.000 A 
ATOM     23  S   UNL     1      43.315   2.922  11.758  0.00  0.00    +0.000 S 
ATOM     24  C   UNL     1      44.349   3.067  10.421  0.00  0.00    +0.000 A 
ATOM     25  N   UNL     1      44.623   1.997   9.631  0.00  0.00    +0.000 NA
ATOM     26  C   UNL     1      45.425   2.260   8.652  0.00  0.00    +0.000 A 
ATOM     27  N   UNL     1      45.935   3.502   8.366  0.00  0.00    +0.000 N 
ATOM     28  C   UNL     1      45.608   4.631   9.086  0.00  0.00    +0.000 A 
ATOM     29  O   UNL     1      45.873   5.753   8.669  0.00  0.00    +0.000 OA
ATOM     30  C   UNL     1      44.837   4.353  10.285  0.00  0.00    +0.000 A 
ATOM     31  H   UNL     1      46.456   3.658   7.516  0.00  0.00    +0.000 HD
ENDBRANCH  19  21
ENDBRANCH   1  18
TORSDOF 5
ENDMDL
MODEL 8
REMARK VINA RESULT:    -6.490      3.146      9.356
REMARK INTER + INTRA:          -9.420
REMARK INTER:                  -8.614
REMARK INTRA:                  -0.805
REMARK UNBOUND:                -1.032
REMARK  Name = 
REMARK  6 active torsions:
REMARK  status: ('A' for Active; 'I' for Inactive)
REMARK    1  A    between atoms: C_1  and  N_2
REMARK    2  A    between atoms: N_2  and  C_3
REMARK    3  A    between atoms: C_3  and  C_4
REMARK    4  A    between atoms: C_7  and  C_8
REMARK    5  A    between atoms: C_8  and  N_9
REMARK    6  A    between atoms: C_18  and  C_20
REMARK                            x       y       z     vdW  Elec       q    Type
REMARK                         _______ _______ _______ _____ _____    ______ ____
ROOT
ATOM      1  C   UNL     1      47.210   5.286  12.850  0.00  0.00    +0.000 C 
ENDROOT
BRANCH   1   2
ATOM      2  C   UNL     1      47.516   5.287  14.321  0.00  0.00    +0.000 A 
ATOM      3  C   UNL     1      48.363   6.245  14.883  0.00  0.00    +0.000 A 
ATOM      4  C   UNL     1      48.669   6.191  16.242  0.00  0.00    +0.000 A 
ATOM      5  C   UNL     1      48.164   5.166  17.044  0.00  0.00    +0.000 A 
ATOM      6  C   UNL     1      47.275   4.237  16.497  0.00  0.00    +0.000 A 
ATOM      7  C   UNL     1      46.956   4.296  15.144  0.00  0.00    +0.000 A 
BRANCH   5   8
ATOM      8  C   UNL     1      48.593   5.041  18.484  0.00  0.00    +0.000 C 
BRANCH   8   9
ATOM      9  N   UNL     1      49.328   6.215  18.899  0.00  0.00    +0.000 N 
ATOM     10  C   UNL     1      48.707   6.867  19.958  0.00  0.00    +0.000 A 
ATOM     11  N   UNL     1      48.009   6.159  20.858  0.00  0.00    +0.000 NA
ATOM     12  C   UNL     1      47.412   6.835  21.853  0.00  0.00    +0.000 A 
ATOM     13  C   UNL     1      47.487   8.196  21.983  0.00  0.00    +0.000 A 
ATOM     14  C   UNL     1      48.220   8.835  21.013  0.00  0.00    +0.000 A 
ATOM     15  N   UNL     1      48.827   8.200  19.992  0.00  0.00    +0.000 NA
ATOM     16  H   UNL     1      49.489   6.909  18.180  0.00  0.00    +0.000 HD
ENDBRANCH   8   9
ENDBRANCH   5   8
ENDBRANCH   1   2
BRANCH   1  18
ATOM     17  C   UNL     1      47.406   7.650  11.986  0.00  0.00    +0.000 C 
ATOM     18  N   UNL     1      46.580   6.491  12.313  0.00  0.00    +0.000 N 
ATOM     19  C   UNL     1      45.297   6.505  11.731  0.00  0.00    +0.000 C 
ATOM     20  O   UNL     1      44.812   7.560  11.322  0.00  0.00    +0.000 OA
BRANCH  19  21
ATOM     21  C   UNL     1      44.569   5.248  11.473  0.00  0.00    +0.000 A 
ATOM     22  C   UNL     1      43.702   4.618  12.352  0.00  0.00    +0.000 A 
ATOM     23  S   UNL     1      43.283   3.027  11.897  0.00  0.00    +0.000 S 
ATOM     24  C   UNL     1      44.292   3.104  10.535  0.00  0.00    +0.000 A 
ATOM     25  N   UNL     1      44.517   2.006   9.769  0.00  0.00    +0.000 NA
ATOM     26  C   UNL     1      45.305   2.218   8.767  0.00  0.00    +0.000 A 
ATOM     27  N   UNL     1      45.845   3.436   8.436  0.00  0.00    +0.000 N 
ATOM     28  C   UNL     1      45.567   4.594   9.131  0.00  0.00    +0.000 A 
ATOM     29  O   UNL     1      45.856   5.695   8.677  0.00  0.00    +0.000 OA
ATOM     30  C   UNL     1      44.815   4.372  10.353  0.00  0.00    +0.000 A 
ATOM     31  H   UNL     1      46.352   3.553   7.571  0.00  0.00    +0.000 HD
ENDBRANCH  19  21
ENDBRANCH   1  18
TORSDOF 5
ENDMDL
MODEL 9
REMARK VINA RESULT:    -6.454      3.262      8.908
REMARK INTER + INTRA:          -9.372
REMARK INTER:                  -8.696
REMARK INTRA:                  -0.676
REMARK UNBOUND:                -1.032
REMARK  Name = 
REMARK  6 active torsions:
REMARK  status: ('A' for Active; 'I' for Inactive)
REMARK    1  A    between atoms: C_1  and  N_2
REMARK    2  A    between atoms: N_2  and  C_3
REMARK    3  A    between atoms: C_3  and  C_4
REMARK    4  A    between atoms: C_7  and  C_8
REMARK    5  A    between atoms: C_8  and  N_9
REMARK    6  A    between atoms: C_18  and  C_20
REMARK                            x       y       z     vdW  Elec       q    Type
REMARK                         _______ _______ _______ _____ _____    ______ ____
ROOT
ATOM      1  C   UNL     1      47.741   6.695  12.626  0.00  0.00    +0.000 C 
ENDROOT
BRANCH   1   2
ATOM      2  C   UNL     1      47.874   6.141  14.016  0.00  0.00    +0.000 A 
ATOM      3  C   UNL     1      48.592   6.823  15.001  0.00  0.00    +0.000 A 
ATOM      4  C   UNL     1      48.741   6.261  16.267  0.00  0.00    +0.000 A 
ATOM      5  C   UNL     1      48.209   5.002  16.554  0.00  0.00    +0.000 A 
ATOM      6  C   UNL     1      47.447   4.341  15.588  0.00  0.00    +0.000 A 
ATOM      7  C   UNL     1      47.284   4.905  14.327  0.00  0.00    +0.000 A 
BRANCH   5   8
ATOM      8  C   UNL     1      48.476   4.344  17.884  0.00  0.00    +0.000 C 
BRANCH   8   9
ATOM      9  N   UNL     1      49.776   4.725  18.387  0.00  0.00    +0.000 N 
ATOM     10  C   UNL     1      49.717   5.149  19.709  0.00  0.00    +0.000 A 
ATOM     11  N   UNL     1      48.807   4.619  20.538  0.00  0.00    +0.000 NA
ATOM     12  C   UNL     1      48.775   5.073  21.801  0.00  0.00    +0.000 A 
ATOM     13  C   UNL     1      49.623   6.041  22.269  0.00  0.00    +0.000 A 
ATOM     14  C   UNL     1      50.519   6.527  21.348  0.00  0.00    +0.000 A 
ATOM     15  N   UNL     1      50.579   6.109  20.068  0.00  0.00    +0.000 NA
ATOM     16  H   UNL     1      50.254   5.451  17.866  0.00  0.00    +0.000 HD
ENDBRANCH   8   9
ENDBRANCH   5   8
ENDBRANCH   1   2
BRANCH   1  18
ATOM     17  C   UNL     1      46.753   9.017  12.530  0.00  0.00    +0.000 C 
ATOM     18  N   UNL     1      46.598   7.572  12.379  0.00  0.00    +0.000 N 
ATOM     19  C   UNL     1      45.460   7.180  11.646  0.00  0.00    +0.000 C 
ATOM     20  O   UNL     1      44.519   7.959  11.498  0.00  0.00    +0.000 OA
BRANCH  19  21
ATOM     21  C   UNL     1      45.429   5.892  10.928  0.00  0.00    +0.000 A 
ATOM     22  C   UNL     1      45.846   5.680   9.624  0.00  0.00    +0.000 A 
ATOM     23  S   UNL     1      45.376   4.170   8.979  0.00  0.00    +0.000 S 
ATOM     24  C   UNL     1      44.549   3.769  10.405  0.00  0.00    +0.000 A 
ATOM     25  N   UNL     1      43.783   2.650  10.478  0.00  0.00    +0.000 NA
ATOM     26  C   UNL     1      43.217   2.475  11.626  0.00  0.00    +0.000 A 
ATOM     27  N   UNL     1      43.386   3.290  12.717  0.00  0.00    +0.000 N 
ATOM     28  C   UNL     1      44.227   4.383  12.715  0.00  0.00    +0.000 A 
ATOM     29  O   UNL     1      44.551   4.942  13.757  0.00  0.00    +0.000 OA
ATOM     30  C   UNL     1      44.760   4.704  11.403  0.00  0.00    +0.000 A 
ATOM     31  H   UNL     1      43.011   3.026  13.617  0.00  0.00    +0.000 HD
ENDBRANCH  19  21
ENDBRANCH   1  18
TORSDOF 5
ENDMDL
