MODEL 1
REMARK VINA RESULT:    -7.407      0.000      0.000
REMARK INTER + INTRA:         -11.889
REMARK INTER:                 -10.438
REMARK INTRA:                  -1.451
REMARK UNBOUND:                -1.451
REMARK  Name = 
REMARK  9 active torsions:
REMARK  status: ('A' for Active; 'I' for Inactive)
REMARK    1  A    between atoms: C_1  and  C_2
REMARK    2  A    between atoms: C_2  and  C_3
REMARK    3  A    between atoms: C_2  and  N_9
REMARK    4  A    between atoms: N_9  and  C_10
REMARK    5  A    between atoms: N_9  and  C_11
REMARK    6  A    between atoms: C_11  and  C_12
REMARK    7  A    between atoms: C_15  and  C_16
REMARK    8  A    between atoms: C_16  and  N_17
REMARK    9  A    between atoms: C_18  and  C_20
REMARK                            x       y       z     vdW  Elec       q    Type
REMARK                         _______ _______ _______ _____ _____    ______ ____
ROOT
ATOM      1  C   UNL     1      50.065   7.013  16.060  0.00  0.00    +0.000 A 
ATOM      2  C   UNL     1      50.809   7.651  15.064  0.00  0.00    +0.000 A 
ATOM      3  C   UNL     1      50.283   7.973  13.826  0.00  0.00    +0.000 A 
ATOM      4  C   UNL     1      49.004   7.560  13.492  0.00  0.00    +0.000 A 
ATOM      5  C   UNL     1      48.288   6.777  14.404  0.00  0.00    +0.000 A 
ATOM      6  C   UNL     1      48.808   6.520  15.683  0.00  0.00    +0.000 A 
ENDROOT
BRANCH   1   7
ATOM      7  C   UNL     1      50.590   6.766  17.468  0.00  0.00    +0.000 C 
BRANCH   7   8
ATOM      8  N   UNL     1      49.637   6.362  18.545  0.00  0.00    +0.000 NA
ATOM      9  C   UNL     1      49.517   7.431  19.538  0.00  0.00    +0.000 C 
BRANCH   8  11
ATOM     10  C   UNL     1      49.027   4.664  20.371  0.00  0.00    +0.000 C 
ATOM     11  C   UNL     1      49.858   5.018  19.129  0.00  0.00    +0.000 C 
BRANCH  11  12
ATOM     12  C   UNL     1      49.717   3.895  18.105  0.00  0.00    +0.000 A 
ATOM     13  C   UNL     1      50.799   3.072  17.774  0.00  0.00    +0.000 A 
ATOM     14  C   UNL     1      50.600   2.028  16.884  0.00  0.00    +0.000 A 
ATOM     15  N   UNL     1      49.419   1.762  16.287  0.00  0.00    +0.000 NA
ATOM     16  C   UNL     1      48.388   2.572  16.605  0.00  0.00    +0.000 A 
ATOM     17  C   UNL     1      48.485   3.634  17.492  0.00  0.00    +0.000 A 
ENDBRANCH  11  12
ENDBRANCH   8  11
ENDBRANCH   7   8
ENDBRANCH   1   7
BRANCH   4  18
ATOM     18  C   UNL     1      48.486   7.909  12.131  0.00  0.00    +0.000 C 
BRANCH  18  19
ATOM     19  N   UNL     1      47.732   6.815  11.580  0.00  0.00    +0.000 N 
ATOM     20  C   UNL     1      46.370   6.887  11.474  0.00  0.00    +0.000 C 
ATOM     21  O   UNL     1      45.739   7.886  11.811  0.00  0.00    +0.000 OA
ATOM     22  H   UNL     1      48.186   5.907  11.544  0.00  0.00    +0.000 HD
BRANCH  20  23
ATOM     23  C   UNL     1      45.704   5.740  10.851  0.00  0.00    +0.000 A 
ATOM     24  C   UNL     1      45.825   5.565   9.480  0.00  0.00    +0.000 A 
ATOM     25  S   UNL     1      45.046   4.171   8.894  0.00  0.00    +0.000 S 
ATOM     26  C   UNL     1      44.463   3.778  10.451  0.00  0.00    +0.000 A 
ATOM     27  N   UNL     1      43.689   2.680  10.646  0.00  0.00    +0.000 NA
ATOM     28  C   UNL     1      43.296   2.521  11.863  0.00  0.00    +0.000 A 
ATOM     29  N   UNL     1      43.622   3.350  12.907  0.00  0.00    +0.000 N 
ATOM     30  C   UNL     1      44.462   4.433  12.770  0.00  0.00    +0.000 A 
ATOM     31  O   UNL     1      44.823   5.090  13.742  0.00  0.00    +0.000 OA
ATOM     32  C   UNL     1      44.895   4.679  11.409  0.00  0.00    +0.000 A 
ATOM     33  H   UNL     1      43.299   3.147  13.841  0.00  0.00    +0.000 HD
ENDBRANCH  20  23
ENDBRANCH  18  19
ENDBRANCH   4  18
TORSDOF 7
ENDMDL
MODEL 2
REMARK VINA RESULT:    -7.171      1.745      2.615
REMARK INTER + INTRA:         -11.557
REMARK INTER:                  -9.823
REMARK INTRA:                  -1.734
REMARK UNBOUND:                -1.451
REMARK  Name = 
REMARK  9 active torsions:
REMARK  status: ('A' for Active; 'I' for Inactive)
REMARK    1  A    between atoms: C_1  and  C_2
REMARK    2  A    between atoms: C_2  and  C_3
REMARK    3  A    between atoms: C_2  and  N_9
REMARK    4  A    between atoms: N_9  and  C_10
REMARK    5  A    between atoms: N_9  and  C_11
REMARK    6  A    between atoms: C_11  and  C_12
REMARK    7  A    between atoms: C_15  and  C_16
REMARK    8  A    between atoms: C_16  and  N_17
REMARK    9  A    between atoms: C_18  and  C_20
REMARK                            x       y       z     vdW  Elec       q    Type
REMARK                         _______ _______ _______ _____ _____    ______ ____
ROOT
ATOM      1  C   UNL     1      49.718   8.217  15.519  0.00  0.00    +0.000 A 
ATOM      2  C   UNL     1      48.390   8.607  15.322  0.00  0.00    +0.000 A 
ATOM      3  C   UNL     1      47.744   8.477  14.106  0.00  0.00    +0.000 A 
ATOM      4  C   UNL     1      48.447   8.049  12.993  0.00  0.00    +0.000 A 
ATOM      5  C   UNL     1      49.820   7.807  13.115  0.00  0.00    +0.000 A 
ATOM      6  C   UNL     1      50.445   7.874  14.370  0.00  0.00    +0.000 A 
ENDROOT
BRANCH   1   7
ATOM      7  C   UNL     1      50.403   8.236  16.878  0.00  0.00    +0.000 C 
BRANCH   7   8
ATOM      8  N   UNL     1      50.317   7.034  17.760  0.00  0.00    +0.000 NA
ATOM      9  C   UNL     1      51.189   7.201  18.924  0.00  0.00    +0.000 C 
BRANCH   8  11
ATOM     10  C   UNL     1      51.675   4.873  17.484  0.00  0.00    +0.000 C 
ATOM     11  C   UNL     1      50.463   5.725  17.080  0.00  0.00    +0.000 C 
BRANCH  11  12
ATOM     12  C   UNL     1      49.204   4.866  17.172  0.00  0.00    +0.000 A 
ATOM     13  C   UNL     1      48.151   5.019  16.263  0.00  0.00    +0.000 A 
ATOM     14  C   UNL     1      47.058   4.172  16.353  0.00  0.00    +0.000 A 
ATOM     15  N   UNL     1      46.929   3.207  17.289  0.00  0.00    +0.000 NA
ATOM     16  C   UNL     1      47.945   3.079  18.167  0.00  0.00    +0.000 A 
ATOM     17  C   UNL     1      49.083   3.872  18.151  0.00  0.00    +0.000 A 
ENDBRANCH  11  12
ENDBRANCH   8  11
ENDBRANCH   7   8
ENDBRANCH   1   7
BRANCH   4  18
ATOM     18  C   UNL     1      47.711   7.949  11.693  0.00  0.00    +0.000 C 
BRANCH  18  19
ATOM     19  N   UNL     1      46.996   6.702  11.611  0.00  0.00    +0.000 N 
ATOM     20  C   UNL     1      45.630   6.675  11.658  0.00  0.00    +0.000 C 
ATOM     21  O   UNL     1      44.957   7.700  11.741  0.00  0.00    +0.000 OA
ATOM     22  H   UNL     1      47.517   5.853  11.805  0.00  0.00    +0.000 HD
BRANCH  20  23
ATOM     23  C   UNL     1      44.999   5.361  11.514  0.00  0.00    +0.000 A 
ATOM     24  C   UNL     1      44.291   4.843  12.589  0.00  0.00    +0.000 A 
ATOM     25  S   UNL     1      43.569   3.334  12.272  0.00  0.00    +0.000 S 
ATOM     26  C   UNL     1      44.229   3.290  10.697  0.00  0.00    +0.000 A 
ATOM     27  N   UNL     1      44.003   2.230   9.880  0.00  0.00    +0.000 NA
ATOM     28  C   UNL     1      44.585   2.315   8.734  0.00  0.00    +0.000 A 
ATOM     29  N   UNL     1      45.358   3.372   8.323  0.00  0.00    +0.000 N 
ATOM     30  C   UNL     1      45.555   4.498   9.089  0.00  0.00    +0.000 A 
ATOM     31  O   UNL     1      46.159   5.474   8.651  0.00  0.00    +0.000 OA
ATOM     32  C   UNL     1      44.956   4.431  10.408  0.00  0.00    +0.000 A 
ATOM     33  H   UNL     1      45.761   3.381   7.398  0.00  0.00    +0.000 HD
ENDBRANCH  20  23
ENDBRANCH  18  19
ENDBRANCH   4  18
TORSDOF 7
ENDMDL
MODEL 3
REMARK VINA RESULT:    -6.772      3.685      8.765
REMARK INTER + INTRA:         -10.995
REMARK INTER:                  -9.905
REMARK INTRA:                  -1.090
REMARK UNBOUND:                -1.451
REMARK  Name = 
REMARK  9 active torsions:
REMARK  status: ('A' for Active; 'I' for Inactive)
REMARK    1  A    between atoms: C_1  and  C_2
REMARK    2  A    between atoms: C_2  and  C_3
REMARK    3  A    between atoms: C_2  and  N_9
REMARK    4  A    between atoms: N_9  and  C_10
REMARK    5  A    between atoms: N_9  and  C_11
REMARK    6  A    between atoms: C_11  and  C_12
REMARK    7  A    between atoms: C_15  and  C_16
REMARK    8  A    between atoms: C_16  and  N_17
REMARK    9  A    between atoms: C_18  and  C_20
REMARK                            x       y       z     vdW  Elec       q    Type
REMARK                         _______ _______ _______ _____ _____    ______ ____
ROOT
ATOM      1  C   UNL     1      47.233   5.437  13.449  0.00  0.00    +0.000 A 
ATOM      2  C   UNL     1      47.591   6.012  14.671  0.00  0.00    +0.000 A 
ATOM      3  C   UNL     1      47.746   5.274  15.831  0.00  0.00    +0.000 A 
ATOM      4  C   UNL     1      47.434   3.925  15.836  0.00  0.00    +0.000 A 
ATOM      5  C   UNL     1      46.915   3.348  14.672  0.00  0.00    +0.000 A 
ATOM      6  C   UNL     1      46.831   4.093  13.485  0.00  0.00    +0.000 A 
ENDROOT
BRANCH   1   7
ATOM      7  C   UNL     1      47.181   6.214  12.141  0.00  0.00    +0.000 C 
BRANCH   7   8
ATOM      8  N   UNL     1      45.864   6.692  11.624  0.00  0.00    +0.000 NA
ATOM      9  C   UNL     1      45.452   7.902  12.338  0.00  0.00    +0.000 C 
BRANCH   8  11
ATOM     10  C   UNL     1      43.358   6.177  11.406  0.00  0.00    +0.000 C 
ATOM     11  C   UNL     1      44.801   5.664  11.519  0.00  0.00    +0.000 C 
BRANCH  11  12
ATOM     12  C   UNL     1      45.056   4.660  10.398  0.00  0.00    +0.000 A 
ATOM     13  C   UNL     1      44.720   3.309  10.540  0.00  0.00    +0.000 A 
ATOM     14  C   UNL     1      44.916   2.452   9.468  0.00  0.00    +0.000 A 
ATOM     15  N   UNL     1      45.440   2.835   8.284  0.00  0.00    +0.000 NA
ATOM     16  C   UNL     1      45.772   4.137   8.166  0.00  0.00    +0.000 A 
ATOM     17  C   UNL     1      45.604   5.072   9.176  0.00  0.00    +0.000 A 
ENDBRANCH  11  12
ENDBRANCH   8  11
ENDBRANCH   7   8
ENDBRANCH   1   7
BRANCH   4  18
ATOM     18  C   UNL     1      47.593   3.172  17.120  0.00  0.00    +0.000 C 
BRANCH  18  19
ATOM     19  N   UNL     1      48.977   3.130  17.514  0.00  0.00    +0.000 N 
ATOM     20  C   UNL     1      49.850   2.268  16.911  0.00  0.00    +0.000 C 
ATOM     21  O   UNL     1      49.507   1.520  15.999  0.00  0.00    +0.000 OA
ATOM     22  H   UNL     1      49.217   3.533  18.415  0.00  0.00    +0.000 HD
BRANCH  20  23
ATOM     23  C   UNL     1      51.246   2.343  17.350  0.00  0.00    +0.000 A 
ATOM     24  C   UNL     1      51.911   1.163  17.654  0.00  0.00    +0.000 A 
ATOM     25  S   UNL     1      53.537   1.388  18.102  0.00  0.00    +0.000 S 
ATOM     26  C   UNL     1      53.397   3.085  17.961  0.00  0.00    +0.000 A 
ATOM     27  N   UNL     1      54.453   3.893  18.231  0.00  0.00    +0.000 NA
ATOM     28  C   UNL     1      54.198   5.150  18.113  0.00  0.00    +0.000 A 
ATOM     29  N   UNL     1      52.988   5.673  17.732  0.00  0.00    +0.000 N 
ATOM     30  C   UNL     1      51.911   4.890  17.380  0.00  0.00    +0.000 A 
ATOM     31  O   UNL     1      50.878   5.384  16.937  0.00  0.00    +0.000 OA
ATOM     32  C   UNL     1      52.135   3.467  17.539  0.00  0.00    +0.000 A 
ATOM     33  H   UNL     1      52.869   6.670  17.635  0.00  0.00    +0.000 HD
ENDBRANCH  20  23
ENDBRANCH  18  19
ENDBRANCH   4  18
TORSDOF 7
ENDMDL
MODEL 4
REMARK VINA RESULT:    -6.719      3.576      8.706
REMARK INTER + INTRA:         -10.920
REMARK INTER:                 -10.238
REMARK INTRA:                  -0.682
REMARK UNBOUND:                -1.451
REMARK  Name = 
REMARK  9 active torsions:
REMARK  status: ('A' for Active; 'I' for Inactive)
REMARK    1  A    between atoms: C_1  and  C_2
REMARK    2  A    between atoms: C_2  and  C_3
REMARK    3  A    between atoms: C_2  and  N_9
REMARK    4  A    between atoms: N_9  and  C_10
REMARK    5  A    between atoms: N_9  and  C_11
REMARK    6  A    between atoms: C_11  and  C_12
REMARK    7  A    between atoms: C_15  and  C_16
REMARK    8  A    between atoms: C_16  and  N_17
REMARK    9  A    between atoms: C_18  and  C_20
REMARK                            x       y       z     vdW  Elec       q    Type
REMARK                         _______ _______ _______ _____ _____    ______ ____
ROOT
ATOM      1  C   UNL     1      46.627   4.628  13.608  0.00  0.00    +0.000 A 
ATOM      2  C   UNL     1      46.973   4.159  14.878  0.00  0.00    +0.000 A 
ATOM      3  C   UNL     1      47.757   4.884  15.757  0.00  0.00    +0.000 A 
ATOM      4  C   UNL     1      48.328   6.078  15.349  0.00  0.00    +0.000 A 
ATOM      5  C   UNL     1      48.138   6.500  14.029  0.00  0.00    +0.000 A 
ATOM      6  C   UNL     1      47.282   5.790  13.171  0.00  0.00    +0.000 A 
ENDROOT
BRANCH   1   7
ATOM      7  C   UNL     1      45.665   3.901  12.680  0.00  0.00    +0.000 C 
BRANCH   7   8
ATOM      8  N   UNL     1      44.307   4.471  12.438  0.00  0.00    +0.000 NA
ATOM      9  C   UNL     1      43.278   3.504  12.826  0.00  0.00    +0.000 C 
BRANCH   8  11
ATOM     10  C   UNL     1      44.531   6.540  10.934  0.00  0.00    +0.000 C 
ATOM     11  C   UNL     1      44.090   5.078  11.104  0.00  0.00    +0.000 C 
BRANCH  11  12
ATOM     12  C   UNL     1      44.689   4.249   9.971  0.00  0.00    +0.000 A 
ATOM     13  C   UNL     1      45.545   4.821   9.023  0.00  0.00    +0.000 A 
ATOM     14  C   UNL     1      46.110   4.010   8.052  0.00  0.00    +0.000 A 
ATOM     15  N   UNL     1      45.867   2.686   7.942  0.00  0.00    +0.000 NA
ATOM     16  C   UNL     1      45.029   2.150   8.854  0.00  0.00    +0.000 A 
ATOM     17  C   UNL     1      44.424   2.877   9.868  0.00  0.00    +0.000 A 
ENDBRANCH  11  12
ENDBRANCH   8  11
ENDBRANCH   7   8
ENDBRANCH   1   7
BRANCH   4  18
ATOM     18  C   UNL     1      49.189   6.815  16.327  0.00  0.00    +0.000 C 
BRANCH  18  19
ATOM     19  N   UNL     1      50.282   5.986  16.764  0.00  0.00    +0.000 N 
ATOM     20  C   UNL     1      50.269   5.408  18.003  0.00  0.00    +0.000 C 
ATOM     21  O   UNL     1      49.325   5.542  18.778  0.00  0.00    +0.000 OA
ATOM     22  H   UNL     1      51.162   6.075  16.265  0.00  0.00    +0.000 HD
BRANCH  20  23
ATOM     23  C   UNL     1      51.405   4.541  18.328  0.00  0.00    +0.000 A 
ATOM     24  C   UNL     1      52.461   5.074  19.053  0.00  0.00    +0.000 A 
ATOM     25  S   UNL     1      53.689   3.949  19.404  0.00  0.00    +0.000 S 
ATOM     26  C   UNL     1      52.878   2.716  18.545  0.00  0.00    +0.000 A 
ATOM     27  N   UNL     1      53.417   1.474  18.440  0.00  0.00    +0.000 NA
ATOM     28  C   UNL     1      52.713   0.652  17.740  0.00  0.00    +0.000 A 
ATOM     29  N   UNL     1      51.511   0.953  17.151  0.00  0.00    +0.000 N 
ATOM     30  C   UNL     1      50.893   2.175  17.291  0.00  0.00    +0.000 A 
ATOM     31  O   UNL     1      49.767   2.379  16.845  0.00  0.00    +0.000 OA
ATOM     32  C   UNL     1      51.667   3.150  18.034  0.00  0.00    +0.000 A 
ATOM     33  H   UNL     1      51.002   0.248  16.639  0.00  0.00    +0.000 HD
ENDBRANCH  20  23
ENDBRANCH  18  19
ENDBRANCH   4  18
TORSDOF 7
ENDMDL
MODEL 5
REMARK VINA RESULT:    -6.713      3.294      8.153
REMARK INTER + INTRA:         -10.911
REMARK INTER:                  -9.366
REMARK INTRA:                  -1.545
REMARK UNBOUND:                -1.451
REMARK  Name = 
REMARK  9 active torsions:
REMARK  status: ('A' for Active; 'I' for Inactive)
REMARK    1  A    between atoms: C_1  and  C_2
REMARK    2  A    between atoms: C_2  and  C_3
REMARK    3  A    between atoms: C_2  and  N_9
REMARK    4  A    between atoms: N_9  and  C_10
REMARK    5  A    between atoms: N_9  and  C_11
REMARK    6  A    between atoms: C_11  and  C_12
REMARK    7  A    between atoms: C_15  and  C_16
REMARK    8  A    between atoms: C_16  and  N_17
REMARK    9  A    between atoms: C_18  and  C_20
REMARK                            x       y       z     vdW  Elec       q    Type
REMARK                         _______ _______ _______ _____ _____    ______ ____
ROOT
ATOM      1  C   UNL     1      45.890   6.541  12.740  0.00  0.00    +0.000 A 
ATOM      2  C   UNL     1      47.044   5.776  12.923  0.00  0.00    +0.000 A 
ATOM      3  C   UNL     1      48.316   6.316  12.884  0.00  0.00    +0.000 A 
ATOM      4  C   UNL     1      48.490   7.647  12.543  0.00  0.00    +0.000 A 
ATOM      5  C   UNL     1      47.368   8.405  12.192  0.00  0.00    +0.000 A 
ATOM      6  C   UNL     1      46.078   7.862  12.306  0.00  0.00    +0.000 A 
ENDROOT
BRANCH   1   7
ATOM      7  C   UNL     1      44.481   5.987  12.904  0.00  0.00    +0.000 C 
BRANCH   7   8
ATOM      8  N   UNL     1      43.844   5.257  11.768  0.00  0.00    +0.000 NA
ATOM      9  C   UNL     1      42.387   5.390  11.839  0.00  0.00    +0.000 C 
BRANCH   8  11
ATOM     10  C   UNL     1      43.284   2.752  11.784  0.00  0.00    +0.000 C 
ATOM     11  C   UNL     1      44.312   3.868  11.551  0.00  0.00    +0.000 C 
BRANCH  11  12
ATOM     12  C   UNL     1      44.955   3.667  10.181  0.00  0.00    +0.000 A 
ATOM     13  C   UNL     1      45.030   2.400   9.591  0.00  0.00    +0.000 A 
ATOM     14  C   UNL     1      45.568   2.283   8.319  0.00  0.00    +0.000 A 
ATOM     15  N   UNL     1      46.055   3.323   7.609  0.00  0.00    +0.000 NA
ATOM     16  C   UNL     1      45.990   4.536   8.195  0.00  0.00    +0.000 A 
ATOM     17  C   UNL     1      45.460   4.755   9.458  0.00  0.00    +0.000 A 
ENDBRANCH  11  12
ENDBRANCH   8  11
ENDBRANCH   7   8
ENDBRANCH   1   7
BRANCH   4  18
ATOM     18  C   UNL     1      49.887   8.182  12.489  0.00  0.00    +0.000 C 
BRANCH  18  19
ATOM     19  N   UNL     1      50.691   7.604  13.534  0.00  0.00    +0.000 N 
ATOM     20  C   UNL     1      50.956   8.302  14.679  0.00  0.00    +0.000 C 
ATOM     21  O   UNL     1      50.502   9.426  14.881  0.00  0.00    +0.000 OA
ATOM     22  H   UNL     1      51.277   6.812  13.288  0.00  0.00    +0.000 HD
BRANCH  20  23
ATOM     23  C   UNL     1      51.739   7.603  15.702  0.00  0.00    +0.000 A 
ATOM     24  C   UNL     1      53.040   8.020  15.942  0.00  0.00    +0.000 A 
ATOM     25  S   UNL     1      53.819   7.157  17.185  0.00  0.00    +0.000 S 
ATOM     26  C   UNL     1      52.458   6.150  17.410  0.00  0.00    +0.000 A 
ATOM     27  N   UNL     1      52.475   5.158  18.337  0.00  0.00    +0.000 NA
ATOM     28  C   UNL     1      51.394   4.458  18.379  0.00  0.00    +0.000 A 
ATOM     29  N   UNL     1      50.291   4.670  17.591  0.00  0.00    +0.000 N 
ATOM     30  C   UNL     1      50.202   5.706  16.689  0.00  0.00    +0.000 A 
ATOM     31  O   UNL     1      49.162   5.938  16.079  0.00  0.00    +0.000 OA
ATOM     32  C   UNL     1      51.412   6.497  16.574  0.00  0.00    +0.000 A 
ATOM     33  H   UNL     1      49.468   4.096  17.699  0.00  0.00    +0.000 HD
ENDBRANCH  20  23
ENDBRANCH  18  19
ENDBRANCH   4  18
TORSDOF 7
ENDMDL
MODEL 6
REMARK VINA RESULT:    -6.356      5.506      8.444
REMARK INTER + INTRA:         -10.409
REMARK INTER:                  -8.960
REMARK INTRA:                  -1.449
REMARK UNBOUND:                -1.451
REMARK  Name = 
REMARK  9 active torsions:
REMARK  status: ('A' for Active; 'I' for Inactive)
REMARK    1  A    between atoms: C_1  and  C_2
REMARK    2  A    between atoms: C_2  and  C_3
REMARK    3  A    between atoms: C_2  and  N_9
REMARK    4  A    between atoms: N_9  and  C_10
REMARK    5  A    between atoms: N_9  and  C_11
REMARK    6  A    between atoms: C_11  and  C_12
REMARK    7  A    between atoms: C_15  and  C_16
REMARK    8  A    between atoms: C_16  and  N_17
REMARK    9  A    between atoms: C_18  and  C_20
REMARK                            x       y       z     vdW  Elec       q    Type
REMARK                         _______ _______ _______ _____ _____    ______ ____
ROOT
ATOM      1  C   UNL     1      45.789   6.925  12.497  0.00  0.00    +0.000 A 
ATOM      2  C   UNL     1      47.070   6.601  12.042  0.00  0.00    +0.000 A 
ATOM      3  C   UNL     1      48.061   7.548  11.855  0.00  0.00    +0.000 A 
ATOM      4  C   UNL     1      47.768   8.893  12.011  0.00  0.00    +0.000 A 
ATOM      5  C   UNL     1      46.453   9.266  12.306  0.00  0.00    +0.000 A 
ATOM      6  C   UNL     1      45.476   8.291  12.563  0.00  0.00    +0.000 A 
ENDROOT
BRANCH   1   7
ATOM      7  C   UNL     1      44.730   5.883  12.827  0.00  0.00    +0.000 C 
BRANCH   7   8
ATOM      8  N   UNL     1      43.995   5.207  11.717  0.00  0.00    +0.000 NA
ATOM      9  C   UNL     1      42.554   5.417  11.866  0.00  0.00    +0.000 C 
BRANCH   8  11
ATOM     10  C   UNL     1      43.291   2.738  11.704  0.00  0.00    +0.000 C 
ATOM     11  C   UNL     1      44.374   3.798  11.456  0.00  0.00    +0.000 C 
BRANCH  11  12
ATOM     12  C   UNL     1      44.959   3.589  10.062  0.00  0.00    +0.000 A 
ATOM     13  C   UNL     1      45.398   4.669   9.287  0.00  0.00    +0.000 A 
ATOM     14  C   UNL     1      45.977   4.418   8.054  0.00  0.00    +0.000 A 
ATOM     15  N   UNL     1      46.128   3.183   7.530  0.00  0.00    +0.000 NA
ATOM     16  C   UNL     1      45.687   2.152   8.281  0.00  0.00    +0.000 A 
ATOM     17  C   UNL     1      45.105   2.301   9.530  0.00  0.00    +0.000 A 
ENDBRANCH  11  12
ENDBRANCH   8  11
ENDBRANCH   7   8
ENDBRANCH   1   7
BRANCH   4  18
ATOM     18  C   UNL     1      48.866   9.883  11.773  0.00  0.00    +0.000 C 
BRANCH  18  19
ATOM     19  N   UNL     1      50.153   9.266  11.961  0.00  0.00    +0.000 N 
ATOM     20  C   UNL     1      51.304   9.984  11.792  0.00  0.00    +0.000 C 
ATOM     21  O   UNL     1      51.294  11.179  11.505  0.00  0.00    +0.000 OA
ATOM     22  H   UNL     1      50.191   8.252  11.937  0.00  0.00    +0.000 HD
BRANCH  20  23
ATOM     23  C   UNL     1      52.559   9.276  12.059  0.00  0.00    +0.000 A 
ATOM     24  C   UNL     1      53.438   9.810  12.990  0.00  0.00    +0.000 A 
ATOM     25  S   UNL     1      54.831   8.865  13.239  0.00  0.00    +0.000 S 
ATOM     26  C   UNL     1      54.336   7.731  12.062  0.00  0.00    +0.000 A 
ATOM     27  N   UNL     1      55.110   6.655  11.767  0.00  0.00    +0.000 NA
ATOM     28  C   UNL     1      54.630   5.899  10.841  0.00  0.00    +0.000 A 
ATOM     29  N   UNL     1      53.437   6.110  10.195  0.00  0.00    +0.000 N 
ATOM     30  C   UNL     1      52.588   7.146  10.511  0.00  0.00    +0.000 A 
ATOM     31  O   UNL     1      51.478   7.246   9.994  0.00  0.00    +0.000 OA
ATOM     32  C   UNL     1      53.105   8.052  11.518  0.00  0.00    +0.000 A 
ATOM     33  H   UNL     1      53.112   5.459   9.496  0.00  0.00    +0.000 HD
ENDBRANCH  20  23
ENDBRANCH  18  19
ENDBRANCH   4  18
TORSDOF 7
ENDMDL
MODEL 7
REMARK VINA RESULT:    -6.349      2.309      4.167
REMARK INTER + INTRA:         -10.398
REMARK INTER:                  -9.177
REMARK INTRA:                  -1.221
REMARK UNBOUND:                -1.451
REMARK  Name = 
REMARK  9 active torsions:
REMARK  status: ('A' for Active; 'I' for Inactive)
REMARK    1  A    between atoms: C_1  and  C_2
REMARK    2  A    between atoms: C_2  and  C_3
REMARK    3  A    between atoms: C_2  and  N_9
REMARK    4  A    between atoms: N_9  and  C_10
REMARK    5  A    between atoms: N_9  and  C_11
REMARK    6  A    between atoms: C_11  and  C_12
REMARK    7  A    between atoms: C_15  and  C_16
REMARK    8  A    between atoms: C_16  and  N_17
REMARK    9  A    between atoms: C_18  and  C_20
REMARK                            x       y       z     vdW  Elec       q    Type
REMARK                         _______ _______ _______ _____ _____    ______ ____
ROOT
ATOM      1  C   UNL     1      49.348   7.996  16.011  0.00  0.00    +0.000 A 
ATOM      2  C   UNL     1      49.216   6.831  15.252  0.00  0.00    +0.000 A 
ATOM      3  C   UNL     1      48.628   6.816  13.999  0.00  0.00    +0.000 A 
ATOM      4  C   UNL     1      48.039   7.965  13.499  0.00  0.00    +0.000 A 
ATOM      5  C   UNL     1      48.008   9.110  14.302  0.00  0.00    +0.000 A 
ATOM      6  C   UNL     1      48.671   9.131  15.539  0.00  0.00    +0.000 A 
ENDROOT
BRANCH   1   7
ATOM      7  C   UNL     1      50.103   8.054  17.332  0.00  0.00    +0.000 C 
BRANCH   7   8
ATOM      8  N   UNL     1      49.602   7.265  18.497  0.00  0.00    +0.000 NA
ATOM      9  C   UNL     1      50.269   5.962  18.547  0.00  0.00    +0.000 C 
BRANCH   8  11
ATOM     10  C   UNL     1      47.526   5.796  18.851  0.00  0.00    +0.000 C 
ATOM     11  C   UNL     1      48.129   7.194  18.642  0.00  0.00    +0.000 C 
BRANCH  11  12
ATOM     12  C   UNL     1      47.593   8.129  19.723  0.00  0.00    +0.000 A 
ATOM     13  C   UNL     1      47.064   9.384  19.402  0.00  0.00    +0.000 A 
ATOM     14  C   UNL     1      46.535  10.168  20.415  0.00  0.00    +0.000 A 
ATOM     15  N   UNL     1      46.515   9.805  21.715  0.00  0.00    +0.000 NA
ATOM     16  C   UNL     1      47.041   8.599  22.012  0.00  0.00    +0.000 A 
ATOM     17  C   UNL     1      47.583   7.740  21.068  0.00  0.00    +0.000 A 
ENDBRANCH  11  12
ENDBRANCH   8  11
ENDBRANCH   7   8
ENDBRANCH   1   7
BRANCH   4  18
ATOM     18  C   UNL     1      47.393   7.893  12.151  0.00  0.00    +0.000 C 
BRANCH  18  19
ATOM     19  N   UNL     1      46.733   6.627  11.972  0.00  0.00    +0.000 N 
ATOM     20  C   UNL     1      45.424   6.570  11.583  0.00  0.00    +0.000 C 
ATOM     21  O   UNL     1      44.768   7.580  11.341  0.00  0.00    +0.000 OA
ATOM     22  H   UNL     1      47.158   5.815  12.408  0.00  0.00    +0.000 HD
BRANCH  20  23
ATOM     23  C   UNL     1      44.862   5.231  11.379  0.00  0.00    +0.000 A 
ATOM     24  C   UNL     1      44.140   4.651  12.411  0.00  0.00    +0.000 A 
ATOM     25  S   UNL     1      43.503   3.120  12.027  0.00  0.00    +0.000 S 
ATOM     26  C   UNL     1      44.225   3.151  10.479  0.00  0.00    +0.000 A 
ATOM     27  N   UNL     1      44.081   2.104   9.626  0.00  0.00    +0.000 NA
ATOM     28  C   UNL     1      44.702   2.249   8.506  0.00  0.00    +0.000 A 
ATOM     29  N   UNL     1      45.438   3.352   8.153  0.00  0.00    +0.000 N 
ATOM     30  C   UNL     1      45.551   4.465   8.956  0.00  0.00    +0.000 A 
ATOM     31  O   UNL     1      46.124   5.479   8.568  0.00  0.00    +0.000 OA
ATOM     32  C   UNL     1      44.906   4.333  10.248  0.00  0.00    +0.000 A 
ATOM     33  H   UNL     1      45.875   3.406   7.246  0.00  0.00    +0.000 HD
ENDBRANCH  20  23
ENDBRANCH  18  19
ENDBRANCH   4  18
TORSDOF 7
ENDMDL
MODEL 8
REMARK VINA RESULT:    -6.306      3.858      8.932
REMARK INTER + INTRA:         -10.338
REMARK INTER:                  -9.897
REMARK INTRA:                  -0.441
REMARK UNBOUND:                -1.451
REMARK  Name = 
REMARK  9 active torsions:
REMARK  status: ('A' for Active; 'I' for Inactive)
REMARK    1  A    between atoms: C_1  and  C_2
REMARK    2  A    between atoms: C_2  and  C_3
REMARK    3  A    between atoms: C_2  and  N_9
REMARK    4  A    between atoms: N_9  and  C_10
REMARK    5  A    between atoms: N_9  and  C_11
REMARK    6  A    between atoms: C_11  and  C_12
REMARK    7  A    between atoms: C_15  and  C_16
REMARK    8  A    between atoms: C_16  and  N_17
REMARK    9  A    between atoms: C_18  and  C_20
REMARK                            x       y       z     vdW  Elec       q    Type
REMARK                         _______ _______ _______ _____ _____    ______ ____
ROOT
ATOM      1  C   UNL     1      46.222   5.508  12.004  0.00  0.00    +0.000 A 
ATOM      2  C   UNL     1      47.065   6.411  12.656  0.00  0.00    +0.000 A 
ATOM      3  C   UNL     1      47.662   6.135  13.873  0.00  0.00    +0.000 A 
ATOM      4  C   UNL     1      47.343   4.969  14.549  0.00  0.00    +0.000 A 
ATOM      5  C   UNL     1      46.376   4.117  14.004  0.00  0.00    +0.000 A 
ATOM      6  C   UNL     1      45.834   4.375  12.735  0.00  0.00    +0.000 A 
ENDROOT
BRANCH   1   7
ATOM      7  C   UNL     1      45.659   5.744  10.609  0.00  0.00    +0.000 C 
BRANCH   7   8
ATOM      8  N   UNL     1      44.644   4.799  10.058  0.00  0.00    +0.000 NA
ATOM      9  C   UNL     1      43.342   5.039  10.683  0.00  0.00    +0.000 C 
BRANCH   8  11
ATOM     10  C   UNL     1      43.956   2.347  10.383  0.00  0.00    +0.000 C 
ATOM     11  C   UNL     1      45.043   3.372  10.026  0.00  0.00    +0.000 C 
BRANCH  11  12
ATOM     12  C   UNL     1      45.687   2.966   8.703  0.00  0.00    +0.000 A 
ATOM     13  C   UNL     1      45.939   3.906   7.698  0.00  0.00    +0.000 A 
ATOM     14  C   UNL     1      46.583   3.495   6.541  0.00  0.00    +0.000 A 
ATOM     15  N   UNL     1      46.969   2.223   6.305  0.00  0.00    +0.000 NA
ATOM     16  C   UNL     1      46.707   1.324   7.277  0.00  0.00    +0.000 A 
ATOM     17  C   UNL     1      46.079   1.641   8.472  0.00  0.00    +0.000 A 
ENDBRANCH  11  12
ENDBRANCH   8  11
ENDBRANCH   7   8
ENDBRANCH   1   7
BRANCH   4  18
ATOM     18  C   UNL     1      47.994   4.725  15.875  0.00  0.00    +0.000 C 
BRANCH  18  19
ATOM     19  N   UNL     1      47.700   5.798  16.788  0.00  0.00    +0.000 N 
ATOM     20  C   UNL     1      48.385   5.922  17.965  0.00  0.00    +0.000 C 
ATOM     21  O   UNL     1      49.289   5.152  18.281  0.00  0.00    +0.000 OA
ATOM     22  H   UNL     1      46.809   6.272  16.679  0.00  0.00    +0.000 HD
BRANCH  20  23
ATOM     23  C   UNL     1      48.045   7.079  18.798  0.00  0.00    +0.000 A 
ATOM     24  C   UNL     1      47.794   6.875  20.147  0.00  0.00    +0.000 A 
ATOM     25  S   UNL     1      47.460   8.306  21.007  0.00  0.00    +0.000 S 
ATOM     26  C   UNL     1      47.581   9.249  19.588  0.00  0.00    +0.000 A 
ATOM     27  N   UNL     1      47.380  10.591  19.628  0.00  0.00    +0.000 NA
ATOM     28  C   UNL     1      47.473  11.172  18.481  0.00  0.00    +0.000 A 
ATOM     29  N   UNL     1      47.765  10.536  17.301  0.00  0.00    +0.000 N 
ATOM     30  C   UNL     1      48.046   9.190  17.225  0.00  0.00    +0.000 A 
ATOM     31  O   UNL     1      48.413   8.671  16.174  0.00  0.00    +0.000 OA
ATOM     32  C   UNL     1      47.911   8.484  18.483  0.00  0.00    +0.000 A 
ATOM     33  H   UNL     1      47.847  11.062  16.444  0.00  0.00    +0.000 HD
ENDBRANCH  20  23
ENDBRANCH  18  19
ENDBRANCH   4  18
TORSDOF 7
ENDMDL
MODEL 9
REMARK VINA RESULT:    -6.226      4.623      6.675
REMARK INTER + INTRA:         -10.225
REMARK INTER:                  -9.223
REMARK INTRA:                  -1.003
REMARK UNBOUND:                -1.451
REMARK  Name = 
REMARK  9 active torsions:
REMARK  status: ('A' for Active; 'I' for Inactive)
REMARK    1  A    between atoms: C_1  and  C_2
REMARK    2  A    between atoms: C_2  and  C_3
REMARK    3  A    between atoms: C_2  and  N_9
REMARK    4  A    between atoms: N_9  and  C_10
REMARK    5  A    between atoms: N_9  and  C_11
REMARK    6  A    between atoms: C_11  and  C_12
REMARK    7  A    between atoms: C_15  and  C_16
REMARK    8  A    between atoms: C_16  and  N_17
REMARK    9  A    between atoms: C_18  and  C_20
REMARK                            x       y       z     vdW  Elec       q    Type
REMARK                         _______ _______ _______ _____ _____    ______ ____
ROOT
ATOM      1  C   UNL     1      50.575   8.849  11.306  0.00  0.00    +0.000 A 
ATOM      2  C   UNL     1      49.646   9.877  11.480  0.00  0.00    +0.000 A 
ATOM      3  C   UNL     1      48.405   9.676  12.059  0.00  0.00    +0.000 A 
ATOM      4  C   UNL     1      47.997   8.394  12.389  0.00  0.00    +0.000 A 
ATOM      5  C   UNL     1      48.836   7.319  12.077  0.00  0.00    +0.000 A 
ATOM      6  C   UNL     1      50.120   7.545  11.556  0.00  0.00    +0.000 A 
ENDROOT
BRANCH   1   7
ATOM      7  C   UNL     1      51.988   9.076  10.788  0.00  0.00    +0.000 C 
BRANCH   7   8
ATOM      8  N   UNL     1      53.128   8.352  11.425  0.00  0.00    +0.000 NA
ATOM      9  C   UNL     1      53.727   9.180  12.474  0.00  0.00    +0.000 C 
BRANCH   8  11
ATOM     10  C   UNL     1      54.705   6.396  10.896  0.00  0.00    +0.000 C 
ATOM     11  C   UNL     1      54.114   7.755  10.493  0.00  0.00    +0.000 C 
BRANCH  11  12
ATOM     12  C   UNL     1      53.594   7.660   9.061  0.00  0.00    +0.000 A 
ATOM     13  C   UNL     1      53.871   8.657   8.118  0.00  0.00    +0.000 A 
ATOM     14  C   UNL     1      53.427   8.491   6.816  0.00  0.00    +0.000 A 
ATOM     15  N   UNL     1      52.714   7.426   6.393  0.00  0.00    +0.000 NA
ATOM     16  C   UNL     1      52.442   6.479   7.315  0.00  0.00    +0.000 A 
ATOM     17  C   UNL     1      52.852   6.550   8.638  0.00  0.00    +0.000 A 
ENDBRANCH  11  12
ENDBRANCH   8  11
ENDBRANCH   7   8
ENDBRANCH   1   7
BRANCH   4  18
ATOM     18  C   UNL     1      46.637   8.223  12.989  0.00  0.00    +0.000 C 
BRANCH  18  19
ATOM     19  N   UNL     1      46.127   6.905  12.719  0.00  0.00    +0.000 N 
ATOM     20  C   UNL     1      45.151   6.711  11.781  0.00  0.00    +0.000 C 
ATOM     21  O   UNL     1      44.692   7.635  11.113  0.00  0.00    +0.000 OA
ATOM     22  H   UNL     1      46.293   6.188  13.419  0.00  0.00    +0.000 HD
BRANCH  20  23
ATOM     23  C   UNL     1      44.740   5.324  11.545  0.00  0.00    +0.000 A 
ATOM     24  C   UNL     1      44.034   4.663  12.540  0.00  0.00    +0.000 A 
ATOM     25  S   UNL     1      43.576   3.079  12.119  0.00  0.00    +0.000 S 
ATOM     26  C   UNL     1      44.360   3.198  10.606  0.00  0.00    +0.000 A 
ATOM     27  N   UNL     1      44.363   2.151   9.743  0.00  0.00    +0.000 NA
ATOM     28  C   UNL     1      45.016   2.369   8.653  0.00  0.00    +0.000 A 
ATOM     29  N   UNL     1      45.650   3.545   8.340  0.00  0.00    +0.000 N 
ATOM     30  C   UNL     1      45.612   4.655   9.153  0.00  0.00    +0.000 A 
ATOM     31  O   UNL     1      46.095   5.727   8.796  0.00  0.00    +0.000 OA
ATOM     32  C   UNL     1      44.927   4.445  10.413  0.00  0.00    +0.000 A 
ATOM     33  H   UNL     1      46.120   3.651   7.454  0.00  0.00    +0.000 HD
ENDBRANCH  20  23
ENDBRANCH  18  19
ENDBRANCH   4  18
TORSDOF 7
ENDMDL
