MODEL 1
REMARK VINA RESULT:    -7.857      0.000      0.000
REMARK INTER + INTRA:         -11.063
REMARK INTER:                 -10.153
REMARK INTRA:                  -0.909
REMARK UNBOUND:                -0.909
REMARK  Name = 
REMARK  5 active torsions:
REMARK  status: ('A' for Active; 'I' for Inactive)
REMARK    1  A    between atoms: C_2  and  C_5
REMARK    2  A    between atoms: C_9  and  C_10
REMARK    3  A    between atoms: C_10  and  C_11
REMARK    4  A    between atoms: C_11  and  C_12
REMARK    5  A    between atoms: C_16  and  C_17
REMARK                            x       y       z     vdW  Elec       q    Type
REMARK                         _______ _______ _______ _____ _____    ______ ____
ROOT
ATOM      1  C   UNL     1      44.492   6.866  11.398  0.00  0.00    +0.000 C 
ENDROOT
BRANCH   1   2
ATOM      2  C   UNL     1      44.351   5.390  11.089  0.00  0.00    +0.000 A 
ATOM      3  C   UNL     1      43.468   4.600  11.833  0.00  0.00    +0.000 A 
ATOM      4  C   UNL     1      43.324   3.242  11.544  0.00  0.00    +0.000 A 
ATOM      5  C   UNL     1      44.050   2.659  10.500  0.00  0.00    +0.000 A 
ATOM      6  C   UNL     1      44.937   3.418   9.722  0.00  0.00    +0.000 A 
ATOM      7  C   UNL     1      45.094   4.773  10.071  0.00  0.00    +0.000 A 
BRANCH   6   8
ATOM      8  C   UNL     1      45.607   2.884   8.511  0.00  0.00    +0.000 A 
ATOM      9  C   UNL     1      45.987   3.736   7.459  0.00  0.00    +0.000 A 
ATOM     10  C   UNL     1      46.761   3.276   6.388  0.00  0.00    +0.000 A 
ATOM     11  C   UNL     1      47.178   1.950   6.347  0.00  0.00    +0.000 A 
ATOM     12  C   UNL     1      46.789   1.075   7.355  0.00  0.00    +0.000 A 
ATOM     13  C   UNL     1      45.999   1.534   8.415  0.00  0.00    +0.000 A 
ENDBRANCH   6   8
ENDBRANCH   1   2
BRANCH   1  14
ATOM     14  C   UNL     1      45.160   7.165  12.747  0.00  0.00    +0.000 C 
BRANCH  14  19
ATOM     15  C   UNL     1      48.603   8.337  12.158  0.00  0.00    +0.000 A 
ATOM     16  C   UNL     1      49.336   7.242  12.587  0.00  0.00    +0.000 A 
ATOM     17  N   UNL     1      48.767   6.104  13.048  0.00  0.00    +0.000 NA
ATOM     18  C   UNL     1      47.415   6.099  13.080  0.00  0.00    +0.000 A 
ATOM     19  C   UNL     1      46.655   7.183  12.662  0.00  0.00    +0.000 A 
ATOM     20  N   UNL     1      47.238   8.312  12.186  0.00  0.00    +0.000 NA
BRANCH  15  22
ATOM     21  F   UNL     1      49.697  10.412  12.681  0.00  0.00    +0.000 F 
ATOM     22  C   UNL     1      49.321   9.574  11.669  0.00  0.00    +0.000 C 
ATOM     23  F   UNL     1      48.565  10.339  10.831  0.00  0.00    +0.000 F 
ATOM     24  F   UNL     1      50.469   9.293  10.989  0.00  0.00    +0.000 F 
ENDBRANCH  15  22
ENDBRANCH  14  19
ENDBRANCH   1  14
TORSDOF 5
ENDMDL
MODEL 2
REMARK VINA RESULT:    -7.674      3.387      4.022
REMARK INTER + INTRA:         -10.827
REMARK INTER:                  -9.986
REMARK INTRA:                  -0.841
REMARK UNBOUND:                -0.909
REMARK  Name = 
REMARK  5 active torsions:
REMARK  status: ('A' for Active; 'I' for Inactive)
REMARK    1  A    between atoms: C_2  and  C_5
REMARK    2  A    between atoms: C_9  and  C_10
REMARK    3  A    between atoms: C_10  and  C_11
REMARK    4  A    between atoms: C_11  and  C_12
REMARK    5  A    between atoms: C_16  and  C_17
REMARK                            x       y       z     vdW  Elec       q    Type
REMARK                         _______ _______ _______ _____ _____    ______ ____
ROOT
ATOM      1  C   UNL     1      46.297   7.317  12.174  0.00  0.00    +0.000 C 
ENDROOT
BRANCH   1   2
ATOM      2  C   UNL     1      45.362   6.333  11.501  0.00  0.00    +0.000 A 
ATOM      3  C   UNL     1      43.990   6.376  11.767  0.00  0.00    +0.000 A 
ATOM      4  C   UNL     1      43.122   5.480  11.141  0.00  0.00    +0.000 A 
ATOM      5  C   UNL     1      43.613   4.540  10.228  0.00  0.00    +0.000 A 
ATOM      6  C   UNL     1      44.981   4.471   9.924  0.00  0.00    +0.000 A 
ATOM      7  C   UNL     1      45.833   5.356  10.610  0.00  0.00    +0.000 A 
BRANCH   6   8
ATOM      8  C   UNL     1      45.525   3.601   8.852  0.00  0.00    +0.000 A 
ATOM      9  C   UNL     1      46.161   4.153   7.726  0.00  0.00    +0.000 A 
ATOM     10  C   UNL     1      46.820   3.348   6.791  0.00  0.00    +0.000 A 
ATOM     11  C   UNL     1      46.862   1.968   6.964  0.00  0.00    +0.000 A 
ATOM     12  C   UNL     1      46.214   1.391   8.050  0.00  0.00    +0.000 A 
ATOM     13  C   UNL     1      45.540   2.198   8.973  0.00  0.00    +0.000 A 
ENDBRANCH   6   8
ENDBRANCH   1   2
BRANCH   1  14
ATOM     14  C   UNL     1      47.719   6.782  12.396  0.00  0.00    +0.000 C 
BRANCH  14  19
ATOM     15  C   UNL     1      48.087   5.240  15.723  0.00  0.00    +0.000 A 
ATOM     16  C   UNL     1      48.718   6.258  16.421  0.00  0.00    +0.000 A 
ATOM     17  N   UNL     1      49.021   7.456  15.871  0.00  0.00    +0.000 NA
ATOM     18  C   UNL     1      48.678   7.606  14.571  0.00  0.00    +0.000 A 
ATOM     19  C   UNL     1      48.050   6.603  13.846  0.00  0.00    +0.000 A 
ATOM     20  N   UNL     1      47.737   5.412  14.413  0.00  0.00    +0.000 NA
BRANCH  15  22
ATOM     21  F   UNL     1      46.582   3.903  17.036  0.00  0.00    +0.000 F 
ATOM     22  C   UNL     1      47.797   3.926  16.412  0.00  0.00    +0.000 C 
ATOM     23  F   UNL     1      48.706   3.616  17.380  0.00  0.00    +0.000 F 
ATOM     24  F   UNL     1      47.783   2.865  15.556  0.00  0.00    +0.000 F 
ENDBRANCH  15  22
ENDBRANCH  14  19
ENDBRANCH   1  14
TORSDOF 5
ENDMDL
MODEL 3
REMARK VINA RESULT:    -7.236      4.327      7.565
REMARK INTER + INTRA:         -10.261
REMARK INTER:                  -9.453
REMARK INTRA:                  -0.808
REMARK UNBOUND:                -0.909
REMARK  Name = 
REMARK  5 active torsions:
REMARK  status: ('A' for Active; 'I' for Inactive)
REMARK    1  A    between atoms: C_2  and  C_5
REMARK    2  A    between atoms: C_9  and  C_10
REMARK    3  A    between atoms: C_10  and  C_11
REMARK    4  A    between atoms: C_11  and  C_12
REMARK    5  A    between atoms: C_16  and  C_17
REMARK                            x       y       z     vdW  Elec       q    Type
REMARK                         _______ _______ _______ _____ _____    ______ ____
ROOT
ATOM      1  C   UNL     1      44.859   5.690  11.623  0.00  0.00    +0.000 C 
ENDROOT
BRANCH   1   2
ATOM      2  C   UNL     1      46.145   5.975  12.372  0.00  0.00    +0.000 A 
ATOM      3  C   UNL     1      47.066   6.893  11.858  0.00  0.00    +0.000 A 
ATOM      4  C   UNL     1      48.247   7.169  12.550  0.00  0.00    +0.000 A 
ATOM      5  C   UNL     1      48.514   6.541  13.771  0.00  0.00    +0.000 A 
ATOM      6  C   UNL     1      47.612   5.622  14.327  0.00  0.00    +0.000 A 
ATOM      7  C   UNL     1      46.455   5.332  13.580  0.00  0.00    +0.000 A 
BRANCH   6   8
ATOM      8  C   UNL     1      47.777   5.052  15.687  0.00  0.00    +0.000 A 
ATOM      9  C   UNL     1      47.218   3.806  16.022  0.00  0.00    +0.000 A 
ATOM     10  C   UNL     1      47.499   3.183  17.241  0.00  0.00    +0.000 A 
ATOM     11  C   UNL     1      48.354   3.790  18.156  0.00  0.00    +0.000 A 
ATOM     12  C   UNL     1      48.895   5.038  17.867  0.00  0.00    +0.000 A 
ATOM     13  C   UNL     1      48.596   5.667  16.654  0.00  0.00    +0.000 A 
ENDBRANCH   6   8
ENDBRANCH   1   2
BRANCH   1  14
ATOM     14  C   UNL     1      45.000   5.722  10.095  0.00  0.00    +0.000 C 
BRANCH  14  19
ATOM     15  C   UNL     1      46.024   2.955   7.888  0.00  0.00    +0.000 A 
ATOM     16  C   UNL     1      45.357   1.888   8.469  0.00  0.00    +0.000 A 
ATOM     17  N   UNL     1      44.554   2.017   9.550  0.00  0.00    +0.000 NA
ATOM     18  C   UNL     1      44.445   3.269  10.052  0.00  0.00    +0.000 A 
ATOM     19  C   UNL     1      45.106   4.354   9.494  0.00  0.00    +0.000 A 
ATOM     20  N   UNL     1      45.896   4.215   8.400  0.00  0.00    +0.000 NA
BRANCH  15  22
ATOM     21  F   UNL     1      48.241   2.887   6.963  0.00  0.00    +0.000 F 
ATOM     22  C   UNL     1      46.913   2.719   6.689  0.00  0.00    +0.000 C 
ATOM     23  F   UNL     1      46.650   3.563   5.651  0.00  0.00    +0.000 F 
ATOM     24  F   UNL     1      46.807   1.457   6.184  0.00  0.00    +0.000 F 
ENDBRANCH  15  22
ENDBRANCH  14  19
ENDBRANCH   1  14
TORSDOF 5
ENDMDL
MODEL 4
REMARK VINA RESULT:    -7.164      4.144      5.513
REMARK INTER + INTRA:         -10.167
REMARK INTER:                  -9.287
REMARK INTRA:                  -0.880
REMARK UNBOUND:                -0.909
REMARK  Name = 
REMARK  5 active torsions:
REMARK  status: ('A' for Active; 'I' for Inactive)
REMARK    1  A    between atoms: C_2  and  C_5
REMARK    2  A    between atoms: C_9  and  C_10
REMARK    3  A    between atoms: C_10  and  C_11
REMARK    4  A    between atoms: C_11  and  C_12
REMARK    5  A    between atoms: C_16  and  C_17
REMARK                            x       y       z     vdW  Elec       q    Type
REMARK                         _______ _______ _______ _____ _____    ______ ____
ROOT
ATOM      1  C   UNL     1      48.779   6.930  13.664  0.00  0.00    +0.000 C 
ENDROOT
BRANCH   1   2
ATOM      2  C   UNL     1      47.426   7.064  12.996  0.00  0.00    +0.000 A 
ATOM      3  C   UNL     1      46.685   8.241  13.143  0.00  0.00    +0.000 A 
ATOM      4  C   UNL     1      45.444   8.375  12.520  0.00  0.00    +0.000 A 
ATOM      5  C   UNL     1      44.933   7.340  11.729  0.00  0.00    +0.000 A 
ATOM      6  C   UNL     1      45.649   6.147  11.547  0.00  0.00    +0.000 A 
ATOM      7  C   UNL     1      46.874   6.027  12.228  0.00  0.00    +0.000 A 
BRANCH   6   8
ATOM      8  C   UNL     1      45.223   5.089  10.597  0.00  0.00    +0.000 A 
ATOM      9  C   UNL     1      45.625   5.122   9.250  0.00  0.00    +0.000 A 
ATOM     10  C   UNL     1      45.369   4.054   8.385  0.00  0.00    +0.000 A 
ATOM     11  C   UNL     1      44.708   2.922   8.849  0.00  0.00    +0.000 A 
ATOM     12  C   UNL     1      44.268   2.874  10.167  0.00  0.00    +0.000 A 
ATOM     13  C   UNL     1      44.509   3.952  11.025  0.00  0.00    +0.000 A 
ENDBRANCH   6   8
ENDBRANCH   1   2
BRANCH   1  14
ATOM     14  C   UNL     1      48.866   7.590  15.047  0.00  0.00    +0.000 C 
BRANCH  14  19
ATOM     15  C   UNL     1      48.511   4.417  16.886  0.00  0.00    +0.000 A 
ATOM     16  C   UNL     1      48.930   4.793  18.153  0.00  0.00    +0.000 A 
ATOM     17  N   UNL     1      49.310   6.054  18.463  0.00  0.00    +0.000 NA
ATOM     18  C   UNL     1      49.270   6.944  17.445  0.00  0.00    +0.000 A 
ATOM     19  C   UNL     1      48.861   6.594  16.166  0.00  0.00    +0.000 A 
ATOM     20  N   UNL     1      48.466   5.330  15.871  0.00  0.00    +0.000 NA
BRANCH  15  22
ATOM     21  F   UNL     1      49.131   2.096  16.847  0.00  0.00    +0.000 F 
ATOM     22  C   UNL     1      48.116   2.982  16.623  0.00  0.00    +0.000 C 
ATOM     23  F   UNL     1      47.721   2.760  15.337  0.00  0.00    +0.000 F 
ATOM     24  F   UNL     1      47.087   2.557  17.411  0.00  0.00    +0.000 F 
ENDBRANCH  15  22
ENDBRANCH  14  19
ENDBRANCH   1  14
TORSDOF 5
ENDMDL
MODEL 5
REMARK VINA RESULT:    -7.133      3.832      7.055
REMARK INTER + INTRA:         -10.127
REMARK INTER:                  -9.278
REMARK INTRA:                  -0.849
REMARK UNBOUND:                -0.909
REMARK  Name = 
REMARK  5 active torsions:
REMARK  status: ('A' for Active; 'I' for Inactive)
REMARK    1  A    between atoms: C_2  and  C_5
REMARK    2  A    between atoms: C_9  and  C_10
REMARK    3  A    between atoms: C_10  and  C_11
REMARK    4  A    between atoms: C_11  and  C_12
REMARK    5  A    between atoms: C_16  and  C_17
REMARK                            x       y       z     vdW  Elec       q    Type
REMARK                         _______ _______ _______ _____ _____    ______ ____
ROOT
ATOM      1  C   UNL     1      44.625   5.546  11.399  0.00  0.00    +0.000 C 
ENDROOT
BRANCH   1   2
ATOM      2  C   UNL     1      45.887   5.872  12.172  0.00  0.00    +0.000 A 
ATOM      3  C   UNL     1      46.190   5.173  13.345  0.00  0.00    +0.000 A 
ATOM      4  C   UNL     1      47.358   5.460  14.054  0.00  0.00    +0.000 A 
ATOM      5  C   UNL     1      48.244   6.439  13.591  0.00  0.00    +0.000 A 
ATOM      6  C   UNL     1      47.983   7.155  12.413  0.00  0.00    +0.000 A 
ATOM      7  C   UNL     1      46.774   6.874  11.750  0.00  0.00    +0.000 A 
BRANCH   6   8
ATOM      8  C   UNL     1      48.963   8.087  11.803  0.00  0.00    +0.000 A 
ATOM      9  C   UNL     1      48.693   9.464  11.712  0.00  0.00    +0.000 A 
ATOM     10  C   UNL     1      49.667  10.374  11.290  0.00  0.00    +0.000 A 
ATOM     11  C   UNL     1      50.940   9.927  10.952  0.00  0.00    +0.000 A 
ATOM     12  C   UNL     1      51.227   8.567  10.998  0.00  0.00    +0.000 A 
ATOM     13  C   UNL     1      50.244   7.658  11.403  0.00  0.00    +0.000 A 
ENDBRANCH   6   8
ENDBRANCH   1   2
BRANCH   1  14
ATOM     14  C   UNL     1      44.806   5.533   9.876  0.00  0.00    +0.000 C 
BRANCH  14  19
ATOM     15  C   UNL     1      46.075   2.768   7.798  0.00  0.00    +0.000 A 
ATOM     16  C   UNL     1      45.471   1.677   8.405  0.00  0.00    +0.000 A 
ATOM     17  N   UNL     1      44.635   1.789   9.463  0.00  0.00    +0.000 NA
ATOM     18  C   UNL     1      44.427   3.046   9.914  0.00  0.00    +0.000 A 
ATOM     19  C   UNL     1      45.022   4.155   9.330  0.00  0.00    +0.000 A 
ATOM     20  N   UNL     1      45.846   4.033   8.259  0.00  0.00    +0.000 NA
BRANCH  15  22
ATOM     21  F   UNL     1      46.609   3.208   5.496  0.00  0.00    +0.000 F 
ATOM     22  C   UNL     1      47.006   2.552   6.627  0.00  0.00    +0.000 C 
ATOM     23  F   UNL     1      47.118   1.243   6.264  0.00  0.00    +0.000 F 
ATOM     24  F   UNL     1      48.276   2.985   6.867  0.00  0.00    +0.000 F 
ENDBRANCH  15  22
ENDBRANCH  14  19
ENDBRANCH   1  14
TORSDOF 5
ENDMDL
MODEL 6
REMARK VINA RESULT:    -6.999      3.563      4.402
REMARK INTER + INTRA:          -9.954
REMARK INTER:                  -9.148
REMARK INTRA:                  -0.806
REMARK UNBOUND:                -0.909
REMARK  Name = 
REMARK  5 active torsions:
REMARK  status: ('A' for Active; 'I' for Inactive)
REMARK    1  A    between atoms: C_2  and  C_5
REMARK    2  A    between atoms: C_9  and  C_10
REMARK    3  A    between atoms: C_10  and  C_11
REMARK    4  A    between atoms: C_11  and  C_12
REMARK    5  A    between atoms: C_16  and  C_17
REMARK                            x       y       z     vdW  Elec       q    Type
REMARK                         _______ _______ _______ _____ _____    ______ ____
ROOT
ATOM      1  C   UNL     1      46.072   7.388  11.465  0.00  0.00    +0.000 C 
ENDROOT
BRANCH   1   2
ATOM      2  C   UNL     1      45.263   6.196  10.996  0.00  0.00    +0.000 A 
ATOM      3  C   UNL     1      43.947   6.025  11.437  0.00  0.00    +0.000 A 
ATOM      4  C   UNL     1      43.193   4.936  10.999  0.00  0.00    +0.000 A 
ATOM      5  C   UNL     1      43.740   4.011  10.103  0.00  0.00    +0.000 A 
ATOM      6  C   UNL     1      45.052   4.151   9.628  0.00  0.00    +0.000 A 
ATOM      7  C   UNL     1      45.800   5.233  10.127  0.00  0.00    +0.000 A 
BRANCH   6   8
ATOM      8  C   UNL     1      45.620   3.288   8.563  0.00  0.00    +0.000 A 
ATOM      9  C   UNL     1      46.170   3.847   7.396  0.00  0.00    +0.000 A 
ATOM     10  C   UNL     1      46.852   3.063   6.460  0.00  0.00    +0.000 A 
ATOM     11  C   UNL     1      47.005   1.696   6.673  0.00  0.00    +0.000 A 
ATOM     12  C   UNL     1      46.442   1.109   7.801  0.00  0.00    +0.000 A 
ATOM     13  C   UNL     1      45.744   1.894   8.725  0.00  0.00    +0.000 A 
ENDBRANCH   6   8
ENDBRANCH   1   2
BRANCH   1  14
ATOM     14  C   UNL     1      45.329   8.307  12.444  0.00  0.00    +0.000 C 
BRANCH  14  19
ATOM     15  C   UNL     1      43.435  10.938  10.692  0.00  0.00    +0.000 A 
ATOM     16  C   UNL     1      44.293  12.019  10.824  0.00  0.00    +0.000 A 
ATOM     17  N   UNL     1      45.494  11.940  11.443  0.00  0.00    +0.000 NA
ATOM     18  C   UNL     1      45.812  10.727  11.949  0.00  0.00    +0.000 A 
ATOM     19  C   UNL     1      44.970   9.629  11.838  0.00  0.00    +0.000 A 
ATOM     20  N   UNL     1      43.776   9.717  11.200  0.00  0.00    +0.000 NA
BRANCH  15  22
ATOM     21  F   UNL     1      41.470  12.277  10.343  0.00  0.00    +0.000 F 
ATOM     22  C   UNL     1      42.105  11.118   9.996  0.00  0.00    +0.000 C 
ATOM     23  F   UNL     1      41.216  10.123  10.272  0.00  0.00    +0.000 F 
ATOM     24  F   UNL     1      42.214  11.159   8.638  0.00  0.00    +0.000 F 
ENDBRANCH  15  22
ENDBRANCH  14  19
ENDBRANCH   1  14
TORSDOF 5
ENDMDL
MODEL 7
REMARK VINA RESULT:    -6.889      4.157      7.555
REMARK INTER + INTRA:          -9.812
REMARK INTER:                  -8.914
REMARK INTRA:                  -0.898
REMARK UNBOUND:                -0.909
REMARK  Name = 
REMARK  5 active torsions:
REMARK  status: ('A' for Active; 'I' for Inactive)
REMARK    1  A    between atoms: C_2  and  C_5
REMARK    2  A    between atoms: C_9  and  C_10
REMARK    3  A    between atoms: C_10  and  C_11
REMARK    4  A    between atoms: C_11  and  C_12
REMARK    5  A    between atoms: C_16  and  C_17
REMARK                            x       y       z     vdW  Elec       q    Type
REMARK                         _______ _______ _______ _____ _____    ______ ____
ROOT
ATOM      1  C   UNL     1      46.174   6.899  11.916  0.00  0.00    +0.000 C 
ENDROOT
BRANCH   1   2
ATOM      2  C   UNL     1      47.303   6.912  12.926  0.00  0.00    +0.000 A 
ATOM      3  C   UNL     1      48.337   7.846  12.810  0.00  0.00    +0.000 A 
ATOM      4  C   UNL     1      49.373   7.871  13.744  0.00  0.00    +0.000 A 
ATOM      5  C   UNL     1      49.380   6.972  14.816  0.00  0.00    +0.000 A 
ATOM      6  C   UNL     1      48.356   6.027  14.977  0.00  0.00    +0.000 A 
ATOM      7  C   UNL     1      47.353   5.998  13.990  0.00  0.00    +0.000 A 
BRANCH   6   8
ATOM      8  C   UNL     1      48.239   5.162  16.177  0.00  0.00    +0.000 A 
ATOM      9  C   UNL     1      47.502   3.964  16.136  0.00  0.00    +0.000 A 
ATOM     10  C   UNL     1      47.515   3.061  17.203  0.00  0.00    +0.000 A 
ATOM     11  C   UNL     1      48.272   3.333  18.339  0.00  0.00    +0.000 A 
ATOM     12  C   UNL     1      48.983   4.525  18.422  0.00  0.00    +0.000 A 
ATOM     13  C   UNL     1      48.952   5.434  17.360  0.00  0.00    +0.000 A 
ENDBRANCH   6   8
ENDBRANCH   1   2
BRANCH   1  14
ATOM     14  C   UNL     1      44.906   6.181  12.399  0.00  0.00    +0.000 C 
BRANCH  14  19
ATOM     15  C   UNL     1      44.912   3.730   9.648  0.00  0.00    +0.000 A 
ATOM     16  C   UNL     1      44.050   2.766  10.146  0.00  0.00    +0.000 A 
ATOM     17  N   UNL     1      43.430   2.875  11.344  0.00  0.00    +0.000 NA
ATOM     18  C   UNL     1      43.713   3.993  12.049  0.00  0.00    +0.000 A 
ATOM     19  C   UNL     1      44.578   4.972  11.578  0.00  0.00    +0.000 A 
ATOM     20  N   UNL     1      45.181   4.859  10.369  0.00  0.00    +0.000 NA
BRANCH  15  22
ATOM     21  F   UNL     1      46.479   4.495   7.995  0.00  0.00    +0.000 F 
ATOM     22  C   UNL     1      45.574   3.521   8.305  0.00  0.00    +0.000 C 
ATOM     23  F   UNL     1      44.689   3.508   7.267  0.00  0.00    +0.000 F 
ATOM     24  F   UNL     1      46.265   2.349   8.225  0.00  0.00    +0.000 F 
ENDBRANCH  15  22
ENDBRANCH  14  19
ENDBRANCH   1  14
TORSDOF 5
ENDMDL
MODEL 8
REMARK VINA RESULT:    -6.682      3.648      7.118
REMARK INTER + INTRA:          -9.544
REMARK INTER:                  -8.727
REMARK INTRA:                  -0.817
REMARK UNBOUND:                -0.909
REMARK  Name = 
REMARK  5 active torsions:
REMARK  status: ('A' for Active; 'I' for Inactive)
REMARK    1  A    between atoms: C_2  and  C_5
REMARK    2  A    between atoms: C_9  and  C_10
REMARK    3  A    between atoms: C_10  and  C_11
REMARK    4  A    between atoms: C_11  and  C_12
REMARK    5  A    between atoms: C_16  and  C_17
REMARK                            x       y       z     vdW  Elec       q    Type
REMARK                         _______ _______ _______ _____ _____    ______ ____
ROOT
ATOM      1  C   UNL     1      45.909   5.497  12.291  0.00  0.00    +0.000 C 
ENDROOT
BRANCH   1   2
ATOM      2  C   UNL     1      46.414   6.925  12.279  0.00  0.00    +0.000 A 
ATOM      3  C   UNL     1      45.597   7.962  12.739  0.00  0.00    +0.000 A 
ATOM      4  C   UNL     1      46.062   9.278  12.742  0.00  0.00    +0.000 A 
ATOM      5  C   UNL     1      47.355   9.572  12.298  0.00  0.00    +0.000 A 
ATOM      6  C   UNL     1      48.212   8.561  11.839  0.00  0.00    +0.000 A 
ATOM      7  C   UNL     1      47.694   7.252  11.805  0.00  0.00    +0.000 A 
BRANCH   6   8
ATOM      8  C   UNL     1      49.638   8.801  11.507  0.00  0.00    +0.000 A 
ATOM      9  C   UNL     1      50.194  10.089  11.597  0.00  0.00    +0.000 A 
ATOM     10  C   UNL     1      51.568  10.305  11.446  0.00  0.00    +0.000 A 
ATOM     11  C   UNL     1      52.421   9.232  11.206  0.00  0.00    +0.000 A 
ATOM     12  C   UNL     1      51.896   7.951  11.078  0.00  0.00    +0.000 A 
ATOM     13  C   UNL     1      50.519   7.742  11.211  0.00  0.00    +0.000 A 
ENDBRANCH   6   8
ENDBRANCH   1   2
BRANCH   1  14
ATOM     14  C   UNL     1      44.586   5.292  11.541  0.00  0.00    +0.000 C 
BRANCH  14  19
ATOM     15  C   UNL     1      45.575   3.264   8.628  0.00  0.00    +0.000 A 
ATOM     16  C   UNL     1      44.820   2.119   8.829  0.00  0.00    +0.000 A 
ATOM     17  N   UNL     1      43.968   1.968   9.869  0.00  0.00    +0.000 NA
ATOM     18  C   UNL     1      43.901   3.011  10.727  0.00  0.00    +0.000 A 
ATOM     19  C   UNL     1      44.649   4.167  10.553  0.00  0.00    +0.000 A 
ATOM     20  N   UNL     1      45.488   4.313   9.497  0.00  0.00    +0.000 NA
BRANCH  15  22
ATOM     21  F   UNL     1      45.883   3.171   6.246  0.00  0.00    +0.000 F 
ATOM     22  C   UNL     1      46.514   3.344   7.445  0.00  0.00    +0.000 C 
ATOM     23  F   UNL     1      47.496   2.399   7.475  0.00  0.00    +0.000 F 
ATOM     24  F   UNL     1      47.150   4.545   7.348  0.00  0.00    +0.000 F 
ENDBRANCH  15  22
ENDBRANCH  14  19
ENDBRANCH   1  14
TORSDOF 5
ENDMDL
MODEL 9
REMARK VINA RESULT:    -6.510      4.048      7.467
REMARK INTER + INTRA:          -9.322
REMARK INTER:                  -8.199
REMARK INTRA:                  -1.123
REMARK UNBOUND:                -0.909
REMARK  Name = 
REMARK  5 active torsions:
REMARK  status: ('A' for Active; 'I' for Inactive)
REMARK    1  A    between atoms: C_2  and  C_5
REMARK    2  A    between atoms: C_9  and  C_10
REMARK    3  A    between atoms: C_10  and  C_11
REMARK    4  A    between atoms: C_11  and  C_12
REMARK    5  A    between atoms: C_16  and  C_17
REMARK                            x       y       z     vdW  Elec       q    Type
REMARK                         _______ _______ _______ _____ _____    ______ ____
ROOT
ATOM      1  C   UNL     1      48.578   6.763  12.605  0.00  0.00    +0.000 C 
ENDROOT
BRANCH   1   2
ATOM      2  C   UNL     1      48.475   8.212  12.174  0.00  0.00    +0.000 A 
ATOM      3  C   UNL     1      49.607   8.885  11.704  0.00  0.00    +0.000 A 
ATOM      4  C   UNL     1      49.516  10.216  11.294  0.00  0.00    +0.000 A 
ATOM      5  C   UNL     1      48.289  10.886  11.335  0.00  0.00    +0.000 A 
ATOM      6  C   UNL     1      47.127  10.245  11.788  0.00  0.00    +0.000 A 
ATOM      7  C   UNL     1      47.264   8.919  12.239  0.00  0.00    +0.000 A 
BRANCH   6   8
ATOM      8  C   UNL     1      45.780  10.861  11.703  0.00  0.00    +0.000 A 
ATOM      9  C   UNL     1      45.629  12.244  11.496  0.00  0.00    +0.000 A 
ATOM     10  C   UNL     1      44.376  12.814  11.252  0.00  0.00    +0.000 A 
ATOM     11  C   UNL     1      43.241  12.012  11.205  0.00  0.00    +0.000 A 
ATOM     12  C   UNL     1      43.353  10.646  11.440  0.00  0.00    +0.000 A 
ATOM     13  C   UNL     1      44.607  10.082  11.702  0.00  0.00    +0.000 A 
ENDBRANCH   6   8
ENDBRANCH   1   2
BRANCH   1  14
ATOM     14  C   UNL     1      47.606   6.370  13.726  0.00  0.00    +0.000 C 
BRANCH  14  19
ATOM     15  C   UNL     1      44.540   5.025  12.186  0.00  0.00    +0.000 A 
ATOM     16  C   UNL     1      44.716   3.664  12.382  0.00  0.00    +0.000 A 
ATOM     17  N   UNL     1      45.788   3.141  13.021  0.00  0.00    +0.000 NA
ATOM     18  C   UNL     1      46.704   4.037  13.457  0.00  0.00    +0.000 A 
ATOM     19  C   UNL     1      46.556   5.404  13.269  0.00  0.00    +0.000 A 
ATOM     20  N   UNL     1      45.469   5.917  12.641  0.00  0.00    +0.000 NA
BRANCH  15  22
ATOM     21  F   UNL     1      43.318   6.876  11.261  0.00  0.00    +0.000 F 
ATOM     22  C   UNL     1      43.318   5.523  11.448  0.00  0.00    +0.000 C 
ATOM     23  F   UNL     1      42.151   5.249  12.096  0.00  0.00    +0.000 F 
ATOM     24  F   UNL     1      43.191   4.988  10.201  0.00  0.00    +0.000 F 
ENDBRANCH  15  22
ENDBRANCH  14  19
ENDBRANCH   1  14
TORSDOF 5
ENDMDL
