MODEL 1
REMARK VINA RESULT:    -7.943      0.000      0.000
REMARK INTER + INTRA:         -10.318
REMARK INTER:                  -9.800
REMARK INTRA:                  -0.518
REMARK UNBOUND:                -0.518
REMARK  Name = 
REMARK  4 active torsions:
REMARK  status: ('A' for Active; 'I' for Inactive)
REMARK    1  A    between atoms: C_2  and  C_5
REMARK    2  A    between atoms: N_11  and  C_12
REMARK    3  A    between atoms: C_12  and  C_13
REMARK    4  A    between atoms: C_17  and  C_18
REMARK                            x       y       z     vdW  Elec       q    Type
REMARK                         _______ _______ _______ _____ _____    ______ ____
ROOT
ATOM      1  C   UNL     1      47.863   4.581  17.745  0.00  0.00    +0.000 A 
ATOM      2  C   UNL     1      48.815   3.586  17.944  0.00  0.00    +0.000 A 
ATOM      3  C   UNL     1      49.042   2.706  16.902  0.00  0.00    +0.000 A 
ATOM      4 CL   UNL     1      50.203   1.454  17.058  0.00  0.00    +0.000 Cl
ATOM      5  N   UNL     1      48.408   2.743  15.713  0.00  0.00    +0.000 NA
ATOM      6  C   UNL     1      47.492   3.708  15.515  0.00  0.00    +0.000 A 
ATOM      7  N   UNL     1      46.898   3.712  14.281  0.00  0.00    +0.000 N 
ATOM      8  C   UNL     1      47.202   4.636  16.509  0.00  0.00    +0.000 A 
ATOM      9  H   UNL     1      47.166   2.941  13.682  0.00  0.00    +0.000 HD
ENDROOT
BRANCH   1  11
ATOM     10  F   UNL     1      47.982   6.835  18.550  0.00  0.00    +0.000 F 
ATOM     11  C   UNL     1      47.531   5.581  18.817  0.00  0.00    +0.000 C 
ATOM     12  F   UNL     1      48.062   5.239  20.023  0.00  0.00    +0.000 F 
ATOM     13  F   UNL     1      46.190   5.697  19.020  0.00  0.00    +0.000 F 
ENDBRANCH   1  11
BRANCH   7  14
ATOM     14  C   UNL     1      45.858   4.620  13.876  0.00  0.00    +0.000 C 
BRANCH  14  15
ATOM     15  C   UNL     1      45.067   4.058  12.724  0.00  0.00    +0.000 A 
ATOM     16  C   UNL     1      43.714   3.747  12.853  0.00  0.00    +0.000 A 
ATOM     17  C   UNL     1      43.036   3.296  11.734  0.00  0.00    +0.000 A 
ATOM     18  N   UNL     1      43.609   3.118  10.521  0.00  0.00    +0.000 NA
ATOM     19  C   UNL     1      44.934   3.376  10.403  0.00  0.00    +0.000 A 
ATOM     20  C   UNL     1      45.682   3.850  11.484  0.00  0.00    +0.000 A 
BRANCH  19  21
ATOM     21  C   UNL     1      45.532   3.148   9.078  0.00  0.00    +0.000 A 
ATOM     22  C   UNL     1      45.923   1.874   8.635  0.00  0.00    +0.000 A 
ATOM     23  C   UNL     1      46.517   1.705   7.386  0.00  0.00    +0.000 A 
ATOM     24  C   UNL     1      46.703   2.822   6.590  0.00  0.00    +0.000 A 
ATOM     25  N   UNL     1      46.332   4.065   6.957  0.00  0.00    +0.000 NA
ATOM     26  C   UNL     1      45.753   4.195   8.179  0.00  0.00    +0.000 A 
ENDBRANCH  19  21
ENDBRANCH  14  15
ENDBRANCH   7  14
TORSDOF 4
ENDMDL
MODEL 2
REMARK VINA RESULT:    -7.886      3.162      3.980
REMARK INTER + INTRA:         -10.248
REMARK INTER:                  -9.592
REMARK INTRA:                  -0.657
REMARK UNBOUND:                -0.518
REMARK  Name = 
REMARK  4 active torsions:
REMARK  status: ('A' for Active; 'I' for Inactive)
REMARK    1  A    between atoms: C_2  and  C_5
REMARK    2  A    between atoms: N_11  and  C_12
REMARK    3  A    between atoms: C_12  and  C_13
REMARK    4  A    between atoms: C_17  and  C_18
REMARK                            x       y       z     vdW  Elec       q    Type
REMARK                         _______ _______ _______ _____ _____    ______ ____
ROOT
ATOM      1  C   UNL     1      47.323   5.525  13.844  0.00  0.00    +0.000 A 
ATOM      2  C   UNL     1      48.451   6.304  13.603  0.00  0.00    +0.000 A 
ATOM      3  C   UNL     1      48.394   7.196  12.549  0.00  0.00    +0.000 A 
ATOM      4 CL   UNL     1      49.735   8.200  12.186  0.00  0.00    +0.000 Cl
ATOM      5  N   UNL     1      47.328   7.364  11.741  0.00  0.00    +0.000 NA
ATOM      6  C   UNL     1      46.234   6.618  11.975  0.00  0.00    +0.000 A 
ATOM      7  N   UNL     1      45.174   6.847  11.139  0.00  0.00    +0.000 N 
ATOM      8  C   UNL     1      46.204   5.696  13.016  0.00  0.00    +0.000 A 
ATOM      9  H   UNL     1      45.361   7.505  10.392  0.00  0.00    +0.000 HD
ENDROOT
BRANCH   1  11
ATOM     10  F   UNL     1      47.430   3.232  14.533  0.00  0.00    +0.000 F 
ATOM     11  C   UNL     1      47.285   4.515  14.957  0.00  0.00    +0.000 C 
ATOM     12  F   UNL     1      46.112   4.553  15.647  0.00  0.00    +0.000 F 
ATOM     13  F   UNL     1      48.266   4.722  15.877  0.00  0.00    +0.000 F 
ENDBRANCH   1  11
BRANCH   7  14
ATOM     14  C   UNL     1      43.929   6.127  11.178  0.00  0.00    +0.000 C 
BRANCH  14  15
ATOM     15  C   UNL     1      44.114   4.698  10.742  0.00  0.00    +0.000 A 
ATOM     16  C   UNL     1      43.468   3.648  11.393  0.00  0.00    +0.000 A 
ATOM     17  C   UNL     1      43.635   2.367  10.896  0.00  0.00    +0.000 A 
ATOM     18  N   UNL     1      44.406   2.064   9.825  0.00  0.00    +0.000 NA
ATOM     19  C   UNL     1      45.072   3.076   9.218  0.00  0.00    +0.000 A 
ATOM     20  C   UNL     1      44.940   4.397   9.652  0.00  0.00    +0.000 A 
BRANCH  19  21
ATOM     21  C   UNL     1      45.921   2.709   8.073  0.00  0.00    +0.000 A 
ATOM     22  C   UNL     1      46.189   3.594   7.017  0.00  0.00    +0.000 A 
ATOM     23  C   UNL     1      46.969   3.197   5.934  0.00  0.00    +0.000 A 
ATOM     24  C   UNL     1      47.480   1.910   5.929  0.00  0.00    +0.000 A 
ATOM     25  N   UNL     1      47.268   1.024   6.922  0.00  0.00    +0.000 NA
ATOM     26  C   UNL     1      46.506   1.444   7.966  0.00  0.00    +0.000 A 
ENDBRANCH  19  21
ENDBRANCH  14  15
ENDBRANCH   7  14
TORSDOF 4
ENDMDL
MODEL 3
REMARK VINA RESULT:    -7.861      4.592      5.613
REMARK INTER + INTRA:         -10.217
REMARK INTER:                  -9.439
REMARK INTRA:                  -0.778
REMARK UNBOUND:                -0.518
REMARK  Name = 
REMARK  4 active torsions:
REMARK  status: ('A' for Active; 'I' for Inactive)
REMARK    1  A    between atoms: C_2  and  C_5
REMARK    2  A    between atoms: N_11  and  C_12
REMARK    3  A    between atoms: C_12  and  C_13
REMARK    4  A    between atoms: C_17  and  C_18
REMARK                            x       y       z     vdW  Elec       q    Type
REMARK                         _______ _______ _______ _____ _____    ______ ____
ROOT
ATOM      1  C   UNL     1      47.701   8.958  12.135  0.00  0.00    +0.000 A 
ATOM      2  C   UNL     1      47.014  10.127  11.824  0.00  0.00    +0.000 A 
ATOM      3  C   UNL     1      45.637  10.105  11.938  0.00  0.00    +0.000 A 
ATOM      4 CL   UNL     1      44.711  11.503  11.582  0.00  0.00    +0.000 Cl
ATOM      5  N   UNL     1      44.915   9.035  12.327  0.00  0.00    +0.000 NA
ATOM      6  C   UNL     1      45.576   7.905  12.636  0.00  0.00    +0.000 A 
ATOM      7  N   UNL     1      44.795   6.858  13.047  0.00  0.00    +0.000 N 
ATOM      8  C   UNL     1      46.963   7.840  12.550  0.00  0.00    +0.000 A 
ATOM      9  H   UNL     1      43.799   7.034  13.004  0.00  0.00    +0.000 HD
ENDROOT
BRANCH   1  11
ATOM     10  F   UNL     1      49.777  10.006  11.556  0.00  0.00    +0.000 F 
ATOM     11  C   UNL     1      49.198   8.871  12.032  0.00  0.00    +0.000 C 
ATOM     12  F   UNL     1      49.601   7.868  11.205  0.00  0.00    +0.000 F 
ATOM     13  F   UNL     1      49.786   8.623  13.235  0.00  0.00    +0.000 F 
ENDBRANCH   1  11
BRANCH   7  14
ATOM     14  C   UNL     1      45.288   5.547  13.376  0.00  0.00    +0.000 C 
BRANCH  14  15
ATOM     15  C   UNL     1      44.773   4.516  12.407  0.00  0.00    +0.000 A 
ATOM     16  C   UNL     1      43.650   3.742  12.696  0.00  0.00    +0.000 A 
ATOM     17  C   UNL     1      43.196   2.860  11.730  0.00  0.00    +0.000 A 
ATOM     18  N   UNL     1      43.787   2.686  10.525  0.00  0.00    +0.000 NA
ATOM     19  C   UNL     1      44.905   3.404  10.258  0.00  0.00    +0.000 A 
ATOM     20  C   UNL     1      45.413   4.325  11.177  0.00  0.00    +0.000 A 
BRANCH  19  21
ATOM     21  C   UNL     1      45.536   3.172   8.949  0.00  0.00    +0.000 A 
ATOM     22  C   UNL     1      45.894   1.892   8.499  0.00  0.00    +0.000 A 
ATOM     23  C   UNL     1      46.521   1.718   7.267  0.00  0.00    +0.000 A 
ATOM     24  C   UNL     1      46.775   2.838   6.496  0.00  0.00    +0.000 A 
ATOM     25  N   UNL     1      46.440   4.089   6.870  0.00  0.00    +0.000 NA
ATOM     26  C   UNL     1      45.826   4.224   8.074  0.00  0.00    +0.000 A 
ENDBRANCH  19  21
ENDBRANCH  14  15
ENDBRANCH   7  14
TORSDOF 4
ENDMDL
MODEL 4
REMARK VINA RESULT:    -7.507      5.113      5.734
REMARK INTER + INTRA:          -9.780
REMARK INTER:                  -9.071
REMARK INTRA:                  -0.708
REMARK UNBOUND:                -0.518
REMARK  Name = 
REMARK  4 active torsions:
REMARK  status: ('A' for Active; 'I' for Inactive)
REMARK    1  A    between atoms: C_2  and  C_5
REMARK    2  A    between atoms: N_11  and  C_12
REMARK    3  A    between atoms: C_12  and  C_13
REMARK    4  A    between atoms: C_17  and  C_18
REMARK                            x       y       z     vdW  Elec       q    Type
REMARK                         _______ _______ _______ _____ _____    ______ ____
ROOT
ATOM      1  C   UNL     1      46.214  10.059  11.856  0.00  0.00    +0.000 A 
ATOM      2  C   UNL     1      47.541  10.188  12.254  0.00  0.00    +0.000 A 
ATOM      3  C   UNL     1      48.119   9.111  12.897  0.00  0.00    +0.000 A 
ATOM      4 CL   UNL     1      49.752   9.181  13.416  0.00  0.00    +0.000 Cl
ATOM      5  N   UNL     1      47.492   7.948  13.166  0.00  0.00    +0.000 NA
ATOM      6  C   UNL     1      46.211   7.817  12.776  0.00  0.00    +0.000 A 
ATOM      7  N   UNL     1      45.632   6.608  13.053  0.00  0.00    +0.000 N 
ATOM      8  C   UNL     1      45.552   8.852  12.120  0.00  0.00    +0.000 A 
ATOM      9  H   UNL     1      46.215   5.973  13.586  0.00  0.00    +0.000 HD
ENDROOT
BRANCH   1  11
ATOM     10  F   UNL     1      45.156  12.206  11.982  0.00  0.00    +0.000 F 
ATOM     11  C   UNL     1      45.487  11.176  11.159  0.00  0.00    +0.000 C 
ATOM     12  F   UNL     1      44.322  10.758  10.593  0.00  0.00    +0.000 F 
ATOM     13  F   UNL     1      46.219  11.720  10.149  0.00  0.00    +0.000 F 
ENDBRANCH   1  11
BRANCH   7  14
ATOM     14  C   UNL     1      44.261   6.272  12.771  0.00  0.00    +0.000 C 
BRANCH  14  15
ATOM     15  C   UNL     1      44.163   4.949  12.058  0.00  0.00    +0.000 A 
ATOM     16  C   UNL     1      43.357   3.920  12.540  0.00  0.00    +0.000 A 
ATOM     17  C   UNL     1      43.266   2.755  11.796  0.00  0.00    +0.000 A 
ATOM     18  N   UNL     1      43.929   2.544  10.636  0.00  0.00    +0.000 NA
ATOM     19  C   UNL     1      44.749   3.525  10.187  0.00  0.00    +0.000 A 
ATOM     20  C   UNL     1      44.880   4.734  10.875  0.00  0.00    +0.000 A 
BRANCH  19  21
ATOM     21  C   UNL     1      45.474   3.252   8.936  0.00  0.00    +0.000 A 
ATOM     22  C   UNL     1      45.856   1.958   8.551  0.00  0.00    +0.000 A 
ATOM     23  C   UNL     1      46.572   1.745   7.375  0.00  0.00    +0.000 A 
ATOM     24  C   UNL     1      46.889   2.841   6.592  0.00  0.00    +0.000 A 
ATOM     25  N   UNL     1      46.534   4.104   6.903  0.00  0.00    +0.000 NA
ATOM     26  C   UNL     1      45.834   4.276   8.055  0.00  0.00    +0.000 A 
ENDBRANCH  19  21
ENDBRANCH  14  15
ENDBRANCH   7  14
TORSDOF 4
ENDMDL
MODEL 5
REMARK VINA RESULT:    -7.505      3.708      4.243
REMARK INTER + INTRA:          -9.777
REMARK INTER:                  -8.999
REMARK INTRA:                  -0.778
REMARK UNBOUND:                -0.518
REMARK  Name = 
REMARK  4 active torsions:
REMARK  status: ('A' for Active; 'I' for Inactive)
REMARK    1  A    between atoms: C_2  and  C_5
REMARK    2  A    between atoms: N_11  and  C_12
REMARK    3  A    between atoms: C_12  and  C_13
REMARK    4  A    between atoms: C_17  and  C_18
REMARK                            x       y       z     vdW  Elec       q    Type
REMARK                         _______ _______ _______ _____ _____    ______ ____
ROOT
ATOM      1  C   UNL     1      48.755   7.524  12.850  0.00  0.00    +0.000 A 
ATOM      2  C   UNL     1      49.446   7.233  14.023  0.00  0.00    +0.000 A 
ATOM      3  C   UNL     1      48.789   6.481  14.978  0.00  0.00    +0.000 A 
ATOM      4 CL   UNL     1      49.568   6.069  16.449  0.00  0.00    +0.000 Cl
ATOM      5  N   UNL     1      47.531   6.013  14.856  0.00  0.00    +0.000 NA
ATOM      6  C   UNL     1      46.862   6.287  13.721  0.00  0.00    +0.000 A 
ATOM      7  N   UNL     1      45.598   5.767  13.642  0.00  0.00    +0.000 N 
ATOM      8  C   UNL     1      47.449   7.036  12.706  0.00  0.00    +0.000 A 
ATOM      9  H   UNL     1      45.284   5.293  14.480  0.00  0.00    +0.000 HD
ENDROOT
BRANCH   1  11
ATOM     10  F   UNL     1      49.664   7.628  10.635  0.00  0.00    +0.000 F 
ATOM     11  C   UNL     1      49.374   8.345  11.753  0.00  0.00    +0.000 C 
ATOM     12  F   UNL     1      50.542   8.927  12.140  0.00  0.00    +0.000 F 
ATOM     13  F   UNL     1      48.565   9.363  11.349  0.00  0.00    +0.000 F 
ENDBRANCH   1  11
BRANCH   7  14
ATOM     14  C   UNL     1      44.692   5.979  12.544  0.00  0.00    +0.000 C 
BRANCH  14  15
ATOM     15  C   UNL     1      44.438   4.697  11.796  0.00  0.00    +0.000 A 
ATOM     16  C   UNL     1      43.491   3.772  12.236  0.00  0.00    +0.000 A 
ATOM     17  C   UNL     1      43.265   2.647  11.461  0.00  0.00    +0.000 A 
ATOM     18  N   UNL     1      43.922   2.376  10.310  0.00  0.00    +0.000 NA
ATOM     19  C   UNL     1      44.875   3.250   9.903  0.00  0.00    +0.000 A 
ATOM     20  C   UNL     1      45.147   4.415  10.623  0.00  0.00    +0.000 A 
BRANCH  19  21
ATOM     21  C   UNL     1      45.587   2.912   8.660  0.00  0.00    +0.000 A 
ATOM     22  C   UNL     1      46.083   1.625   8.399  0.00  0.00    +0.000 A 
ATOM     23  C   UNL     1      46.782   1.354   7.225  0.00  0.00    +0.000 A 
ATOM     24  C   UNL     1      46.968   2.383   6.319  0.00  0.00    +0.000 A 
ATOM     25  N   UNL     1      46.500   3.633   6.509  0.00  0.00    +0.000 NA
ATOM     26  C   UNL     1      45.819   3.863   7.662  0.00  0.00    +0.000 A 
ENDBRANCH  19  21
ENDBRANCH  14  15
ENDBRANCH   7  14
TORSDOF 4
ENDMDL
MODEL 6
REMARK VINA RESULT:    -7.148      3.210      4.061
REMARK INTER + INTRA:          -9.337
REMARK INTER:                  -8.515
REMARK INTRA:                  -0.822
REMARK UNBOUND:                -0.518
REMARK  Name = 
REMARK  4 active torsions:
REMARK  status: ('A' for Active; 'I' for Inactive)
REMARK    1  A    between atoms: C_2  and  C_5
REMARK    2  A    between atoms: N_11  and  C_12
REMARK    3  A    between atoms: C_12  and  C_13
REMARK    4  A    between atoms: C_17  and  C_18
REMARK                            x       y       z     vdW  Elec       q    Type
REMARK                         _______ _______ _______ _____ _____    ______ ____
ROOT
ATOM      1  C   UNL     1      48.168   4.550  17.292  0.00  0.00    +0.000 A 
ATOM      2  C   UNL     1      48.093   5.102  18.568  0.00  0.00    +0.000 A 
ATOM      3  C   UNL     1      48.225   6.473  18.676  0.00  0.00    +0.000 A 
ATOM      4 CL   UNL     1      48.137   7.238  20.208  0.00  0.00    +0.000 Cl
ATOM      5  N   UNL     1      48.422   7.310  17.638  0.00  0.00    +0.000 NA
ATOM      6  C   UNL     1      48.489   6.781  16.403  0.00  0.00    +0.000 A 
ATOM      7  N   UNL     1      48.666   7.680  15.386  0.00  0.00    +0.000 N 
ATOM      8  C   UNL     1      48.364   5.411  16.203  0.00  0.00    +0.000 A 
ATOM      9  H   UNL     1      48.798   8.638  15.688  0.00  0.00    +0.000 HD
ENDROOT
BRANCH   1  11
ATOM     10  F   UNL     1      47.003   2.500  17.720  0.00  0.00    +0.000 F 
ATOM     11  C   UNL     1      48.050   3.069  17.065  0.00  0.00    +0.000 C 
ATOM     12  F   UNL     1      49.160   2.394  17.472  0.00  0.00    +0.000 F 
ATOM     13  F   UNL     1      47.885   2.758  15.750  0.00  0.00    +0.000 F 
ENDBRANCH   1  11
BRANCH   7  14
ATOM     14  C   UNL     1      48.815   7.329  13.998  0.00  0.00    +0.000 C 
BRANCH  14  15
ATOM     15  C   UNL     1      47.490   7.372  13.283  0.00  0.00    +0.000 A 
ATOM     16  C   UNL     1      46.652   8.482  13.367  0.00  0.00    +0.000 A 
ATOM     17  C   UNL     1      45.480   8.476  12.630  0.00  0.00    +0.000 A 
ATOM     18  N   UNL     1      45.085   7.448  11.845  0.00  0.00    +0.000 NA
ATOM     19  C   UNL     1      45.874   6.348  11.796  0.00  0.00    +0.000 A 
ATOM     20  C   UNL     1      47.080   6.287  12.499  0.00  0.00    +0.000 A 
BRANCH  19  21
ATOM     21  C   UNL     1      45.402   5.238  10.952  0.00  0.00    +0.000 A 
ATOM     22  C   UNL     1      45.538   5.241   9.555  0.00  0.00    +0.000 A 
ATOM     23  C   UNL     1      45.047   4.187   8.788  0.00  0.00    +0.000 A 
ATOM     24  C   UNL     1      44.429   3.133   9.440  0.00  0.00    +0.000 A 
ATOM     25  N   UNL     1      44.285   3.070  10.778  0.00  0.00    +0.000 NA
ATOM     26  C   UNL     1      44.779   4.112  11.497  0.00  0.00    +0.000 A 
ENDBRANCH  19  21
ENDBRANCH  14  15
ENDBRANCH   7  14
TORSDOF 4
ENDMDL
MODEL 7
REMARK VINA RESULT:    -6.975      4.673      9.363
REMARK INTER + INTRA:          -9.124
REMARK INTER:                  -8.525
REMARK INTRA:                  -0.599
REMARK UNBOUND:                -0.518
REMARK  Name = 
REMARK  4 active torsions:
REMARK  status: ('A' for Active; 'I' for Inactive)
REMARK    1  A    between atoms: C_2  and  C_5
REMARK    2  A    between atoms: N_11  and  C_12
REMARK    3  A    between atoms: C_12  and  C_13
REMARK    4  A    between atoms: C_17  and  C_18
REMARK                            x       y       z     vdW  Elec       q    Type
REMARK                         _______ _______ _______ _____ _____    ______ ____
ROOT
ATOM      1  C   UNL     1      44.901   4.795  11.365  0.00  0.00    +0.000 A 
ATOM      2  C   UNL     1      44.711   6.143  11.079  0.00  0.00    +0.000 A 
ATOM      3  C   UNL     1      45.229   7.061  11.973  0.00  0.00    +0.000 A 
ATOM      4 CL   UNL     1      45.048   8.744  11.696  0.00  0.00    +0.000 Cl
ATOM      5  N   UNL     1      45.902   6.744  13.097  0.00  0.00    +0.000 NA
ATOM      6  C   UNL     1      46.093   5.442  13.373  0.00  0.00    +0.000 A 
ATOM      7  N   UNL     1      46.803   5.179  14.514  0.00  0.00    +0.000 N 
ATOM      8  C   UNL     1      45.607   4.451  12.526  0.00  0.00    +0.000 A 
ATOM      9  H   UNL     1      47.042   5.998  15.060  0.00  0.00    +0.000 HD
ENDROOT
BRANCH   1  11
ATOM     10  F   UNL     1      45.275   2.743  10.182  0.00  0.00    +0.000 F 
ATOM     11  C   UNL     1      44.367   3.715  10.465  0.00  0.00    +0.000 C 
ATOM     12  F   UNL     1      43.953   4.203   9.264  0.00  0.00    +0.000 F 
ATOM     13  F   UNL     1      43.289   3.080  11.001  0.00  0.00    +0.000 F 
ENDBRANCH   1  11
BRANCH   7  14
ATOM     14  C   UNL     1      47.079   3.861  15.022  0.00  0.00    +0.000 C 
BRANCH  14  15
ATOM     15  C   UNL     1      47.643   3.925  16.417  0.00  0.00    +0.000 A 
ATOM     16  C   UNL     1      48.443   2.904  16.927  0.00  0.00    +0.000 A 
ATOM     17  C   UNL     1      48.981   3.063  18.193  0.00  0.00    +0.000 A 
ATOM     18  N   UNL     1      48.762   4.142  18.978  0.00  0.00    +0.000 NA
ATOM     19  C   UNL     1      47.948   5.117  18.505  0.00  0.00    +0.000 A 
ATOM     20  C   UNL     1      47.383   5.035  17.230  0.00  0.00    +0.000 A 
BRANCH  19  21
ATOM     21  C   UNL     1      47.712   6.264  19.395  0.00  0.00    +0.000 A 
ATOM     22  C   UNL     1      47.675   7.588  18.927  0.00  0.00    +0.000 A 
ATOM     23  C   UNL     1      47.483   8.650  19.807  0.00  0.00    +0.000 A 
ATOM     24  C   UNL     1      47.321   8.368  21.152  0.00  0.00    +0.000 A 
ATOM     25  N   UNL     1      47.332   7.117  21.655  0.00  0.00    +0.000 NA
ATOM     26  C   UNL     1      47.517   6.103  20.770  0.00  0.00    +0.000 A 
ENDBRANCH  19  21
ENDBRANCH  14  15
ENDBRANCH   7  14
TORSDOF 4
ENDMDL
MODEL 8
REMARK VINA RESULT:    -6.935      3.809      4.492
REMARK INTER + INTRA:          -9.075
REMARK INTER:                  -8.865
REMARK INTRA:                  -0.210
REMARK UNBOUND:                -0.518
REMARK  Name = 
REMARK  4 active torsions:
REMARK  status: ('A' for Active; 'I' for Inactive)
REMARK    1  A    between atoms: C_2  and  C_5
REMARK    2  A    between atoms: N_11  and  C_12
REMARK    3  A    between atoms: C_12  and  C_13
REMARK    4  A    between atoms: C_17  and  C_18
REMARK                            x       y       z     vdW  Elec       q    Type
REMARK                         _______ _______ _______ _____ _____    ______ ____
ROOT
ATOM      1  C   UNL     1      46.286   7.631  12.829  0.00  0.00    +0.000 A 
ATOM      2  C   UNL     1      47.554   7.837  13.363  0.00  0.00    +0.000 A 
ATOM      3  C   UNL     1      48.185   6.751  13.941  0.00  0.00    +0.000 A 
ATOM      4 CL   UNL     1      49.752   6.912  14.617  0.00  0.00    +0.000 Cl
ATOM      5  N   UNL     1      47.660   5.512  14.024  0.00  0.00    +0.000 NA
ATOM      6  C   UNL     1      46.437   5.308  13.502  0.00  0.00    +0.000 A 
ATOM      7  N   UNL     1      45.964   4.026  13.593  0.00  0.00    +0.000 N 
ATOM      8  C   UNL     1      45.732   6.345  12.900  0.00  0.00    +0.000 A 
ATOM      9  H   UNL     1      46.562   3.392  14.109  0.00  0.00    +0.000 HD
ENDROOT
BRANCH   1  11
ATOM     10  F   UNL     1      44.707   9.419  13.057  0.00  0.00    +0.000 F 
ATOM     11  C   UNL     1      45.509   8.748  12.189  0.00  0.00    +0.000 C 
ATOM     12  F   UNL     1      44.696   8.304  11.192  0.00  0.00    +0.000 F 
ATOM     13  F   UNL     1      46.319   9.683  11.622  0.00  0.00    +0.000 F 
ENDBRANCH   1  11
BRANCH   7  14
ATOM     14  C   UNL     1      44.664   3.599  13.148  0.00  0.00    +0.000 C 
BRANCH  14  15
ATOM     15  C   UNL     1      44.478   3.870  11.679  0.00  0.00    +0.000 A 
ATOM     16  C   UNL     1      43.558   4.813  11.223  0.00  0.00    +0.000 A 
ATOM     17  C   UNL     1      43.488   5.056   9.861  0.00  0.00    +0.000 A 
ATOM     18  N   UNL     1      44.246   4.419   8.939  0.00  0.00    +0.000 NA
ATOM     19  C   UNL     1      45.109   3.469   9.374  0.00  0.00    +0.000 A 
ATOM     20  C   UNL     1      45.247   3.180  10.734  0.00  0.00    +0.000 A 
BRANCH  19  21
ATOM     21  C   UNL     1      45.899   2.778   8.342  0.00  0.00    +0.000 A 
ATOM     22  C   UNL     1      46.453   3.448   7.241  0.00  0.00    +0.000 A 
ATOM     23  C   UNL     1      47.166   2.753   6.267  0.00  0.00    +0.000 A 
ATOM     24  C   UNL     1      47.321   1.386   6.418  0.00  0.00    +0.000 A 
ATOM     25  N   UNL     1      46.825   0.693   7.462  0.00  0.00    +0.000 NA
ATOM     26  C   UNL     1      46.138   1.402   8.396  0.00  0.00    +0.000 A 
ENDBRANCH  19  21
ENDBRANCH  14  15
ENDBRANCH   7  14
TORSDOF 4
ENDMDL
MODEL 9
REMARK VINA RESULT:    -6.866      4.312      8.079
REMARK INTER + INTRA:          -8.990
REMARK INTER:                  -8.067
REMARK INTRA:                  -0.923
REMARK UNBOUND:                -0.518
REMARK  Name = 
REMARK  4 active torsions:
REMARK  status: ('A' for Active; 'I' for Inactive)
REMARK    1  A    between atoms: C_2  and  C_5
REMARK    2  A    between atoms: N_11  and  C_12
REMARK    3  A    between atoms: C_12  and  C_13
REMARK    4  A    between atoms: C_17  and  C_18
REMARK                            x       y       z     vdW  Elec       q    Type
REMARK                         _______ _______ _______ _____ _____    ______ ____
ROOT
ATOM      1  C   UNL     1      44.423   3.718  10.921  0.00  0.00    +0.000 A 
ATOM      2  C   UNL     1      44.611   3.225   9.633  0.00  0.00    +0.000 A 
ATOM      3  C   UNL     1      45.335   4.006   8.753  0.00  0.00    +0.000 A 
ATOM      4 CL   UNL     1      45.621   3.473   7.149  0.00  0.00    +0.000 Cl
ATOM      5  N   UNL     1      45.869   5.207   9.052  0.00  0.00    +0.000 NA
ATOM      6  C   UNL     1      45.695   5.684  10.298  0.00  0.00    +0.000 A 
ATOM      7  N   UNL     1      46.279   6.896  10.552  0.00  0.00    +0.000 N 
ATOM      8  C   UNL     1      44.981   4.962  11.248  0.00  0.00    +0.000 A 
ATOM      9  H   UNL     1      46.716   7.330   9.748  0.00  0.00    +0.000 HD
ENDROOT
BRANCH   1  11
ATOM     10  F   UNL     1      42.859   1.972  11.426  0.00  0.00    +0.000 F 
ATOM     11  C   UNL     1      43.641   2.953  11.952  0.00  0.00    +0.000 C 
ATOM     12  F   UNL     1      42.806   3.756  12.667  0.00  0.00    +0.000 F 
ATOM     13  F   UNL     1      44.445   2.344  12.866  0.00  0.00    +0.000 F 
ENDBRANCH   1  11
BRANCH   7  14
ATOM     14  C   UNL     1      46.176   7.610  11.797  0.00  0.00    +0.000 C 
BRANCH  14  15
ATOM     15  C   UNL     1      47.357   7.323  12.686  0.00  0.00    +0.000 A 
ATOM     16  C   UNL     1      48.609   7.883  12.437  0.00  0.00    +0.000 A 
ATOM     17  C   UNL     1      49.632   7.626  13.335  0.00  0.00    +0.000 A 
ATOM     18  N   UNL     1      49.498   6.847  14.432  0.00  0.00    +0.000 NA
ATOM     19  C   UNL     1      48.295   6.263  14.653  0.00  0.00    +0.000 A 
ATOM     20  C   UNL     1      47.211   6.489  13.801  0.00  0.00    +0.000 A 
BRANCH  19  21
ATOM     21  C   UNL     1      48.192   5.402  15.841  0.00  0.00    +0.000 A 
ATOM     22  C   UNL     1      47.267   4.350  15.934  0.00  0.00    +0.000 A 
ATOM     23  C   UNL     1      47.176   3.579  17.090  0.00  0.00    +0.000 A 
ATOM     24  C   UNL     1      48.027   3.870  18.142  0.00  0.00    +0.000 A 
ATOM     25  N   UNL     1      48.945   4.857  18.103  0.00  0.00    +0.000 NA
ATOM     26  C   UNL     1      49.010   5.588  16.960  0.00  0.00    +0.000 A 
ENDBRANCH  19  21
ENDBRANCH  14  15
ENDBRANCH   7  14
TORSDOF 4
ENDMDL
