MODEL 1
REMARK VINA RESULT:    -8.458      0.000      0.000
REMARK INTER + INTRA:         -12.106
REMARK INTER:                 -10.930
REMARK INTRA:                  -1.176
REMARK UNBOUND:                -1.176
REMARK  Name = 
REMARK  5 active torsions:
REMARK  status: ('A' for Active; 'I' for Inactive)
REMARK    1  A    between atoms: C_2  and  C_3
REMARK    2  A    between atoms: C_8  and  N_9
REMARK    3  A    between atoms: N_9  and  C_10
REMARK    4  A    between atoms: C_10  and  C_11
REMARK    5  A    between atoms: C_16  and  C_17
REMARK                            x       y       z     vdW  Elec       q    Type
REMARK                         _______ _______ _______ _____ _____    ______ ____
ROOT
ATOM      1  C   UNL     1      44.052   5.100  10.970  0.00  0.00    +0.000 A 
ATOM      2  C   UNL     1      43.428   4.147  11.780  0.00  0.00    +0.000 A 
ATOM      3  C   UNL     1      43.531   2.799  11.460  0.00  0.00    +0.000 A 
ATOM      4  F   UNL     1      42.964   1.888  12.262  0.00  0.00    +0.000 F 
ATOM      5  C   UNL     1      44.236   2.373  10.335  0.00  0.00    +0.000 A 
ATOM      6  C   UNL     1      44.874   3.298   9.494  0.00  0.00    +0.000 A 
ATOM      7  C   UNL     1      44.754   4.663   9.830  0.00  0.00    +0.000 A 
ENDROOT
BRANCH   6   8
ATOM      8  C   UNL     1      45.689   2.870   8.332  0.00  0.00    +0.000 A 
ATOM      9  C   UNL     1      46.001   3.759   7.285  0.00  0.00    +0.000 A 
ATOM     10  C   UNL     1      46.828   3.378   6.224  0.00  0.00    +0.000 A 
ATOM     11  C   UNL     1      47.348   2.090   6.174  0.00  0.00    +0.000 A 
ATOM     12  C   UNL     1      47.038   1.182   7.180  0.00  0.00    +0.000 A 
ATOM     13  C   UNL     1      46.220   1.570   8.248  0.00  0.00    +0.000 A 
ENDBRANCH   6   8
BRANCH   1  14
ATOM     14  C   UNL     1      44.026   6.566  11.328  0.00  0.00    +0.000 C 
BRANCH  14  15
ATOM     15  N   UNL     1      44.799   6.816  12.534  0.00  0.00    +0.000 N 
ATOM     16  H   UNL     1      44.368   7.497  13.156  0.00  0.00    +0.000 HD
BRANCH  15  22
ATOM     17  C   UNL     1      47.090   5.865  13.046  0.00  0.00    +0.000 A 
ATOM     18  N   UNL     1      48.448   6.022  13.113  0.00  0.00    +0.000 NA
ATOM     19  C   UNL     1      48.960   7.200  12.723  0.00  0.00    +0.000 A 
ATOM     20  C   UNL     1      48.184   8.240  12.254  0.00  0.00    +0.000 A 
ATOM     21  C   UNL     1      46.802   8.054  12.183  0.00  0.00    +0.000 A 
ATOM     22  C   UNL     1      46.198   6.843  12.561  0.00  0.00    +0.000 A 
BRANCH  17  24
ATOM     23  N   UNL     1      46.384   3.488  13.828  0.00  0.00    +0.000 NA
ATOM     24  C   UNL     1      46.685   4.559  13.488  0.00  0.00    +0.000 C 
ENDBRANCH  17  24
ENDBRANCH  15  22
ENDBRANCH  14  15
ENDBRANCH   1  14
TORSDOF 5
ENDMDL
MODEL 2
REMARK VINA RESULT:    -7.868      1.593      2.149
REMARK INTER + INTRA:         -11.343
REMARK INTER:                 -10.297
REMARK INTRA:                  -1.046
REMARK UNBOUND:                -1.176
REMARK  Name = 
REMARK  5 active torsions:
REMARK  status: ('A' for Active; 'I' for Inactive)
REMARK    1  A    between atoms: C_2  and  C_3
REMARK    2  A    between atoms: C_8  and  N_9
REMARK    3  A    between atoms: N_9  and  C_10
REMARK    4  A    between atoms: C_10  and  C_11
REMARK    5  A    between atoms: C_16  and  C_17
REMARK                            x       y       z     vdW  Elec       q    Type
REMARK                         _______ _______ _______ _____ _____    ______ ____
ROOT
ATOM      1  C   UNL     1      45.329   6.401  11.310  0.00  0.00    +0.000 A 
ATOM      2  C   UNL     1      43.992   6.284  11.701  0.00  0.00    +0.000 A 
ATOM      3  C   UNL     1      43.189   5.308  11.125  0.00  0.00    +0.000 A 
ATOM      4  F   UNL     1      41.920   5.176  11.532  0.00  0.00    +0.000 F 
ATOM      5  C   UNL     1      43.685   4.444  10.149  0.00  0.00    +0.000 A 
ATOM      6  C   UNL     1      45.021   4.531   9.726  0.00  0.00    +0.000 A 
ATOM      7  C   UNL     1      45.821   5.532  10.318  0.00  0.00    +0.000 A 
ENDROOT
BRANCH   6   8
ATOM      8  C   UNL     1      45.596   3.581   8.743  0.00  0.00    +0.000 A 
ATOM      9  C   UNL     1      46.244   4.032   7.577  0.00  0.00    +0.000 A 
ATOM     10  C   UNL     1      46.848   3.142   6.685  0.00  0.00    +0.000 A 
ATOM     11  C   UNL     1      46.803   1.774   6.928  0.00  0.00    +0.000 A 
ATOM     12  C   UNL     1      46.149   1.296   8.058  0.00  0.00    +0.000 A 
ATOM     13  C   UNL     1      45.556   2.192   8.956  0.00  0.00    +0.000 A 
ENDBRANCH   6   8
BRANCH   1  14
ATOM     14  C   UNL     1      46.250   7.398  11.969  0.00  0.00    +0.000 C 
BRANCH  14  15
ATOM     15  N   UNL     1      47.526   6.784  12.296  0.00  0.00    +0.000 N 
ATOM     16  H   UNL     1      47.889   6.186  11.557  0.00  0.00    +0.000 HD
BRANCH  15  22
ATOM     17  C   UNL     1      47.452   5.182  14.257  0.00  0.00    +0.000 A 
ATOM     18  N   UNL     1      47.766   4.886  15.556  0.00  0.00    +0.000 NA
ATOM     19  C   UNL     1      48.488   5.786  16.243  0.00  0.00    +0.000 A 
ATOM     20  C   UNL     1      48.928   6.974  15.697  0.00  0.00    +0.000 A 
ATOM     21  C   UNL     1      48.605   7.250  14.367  0.00  0.00    +0.000 A 
ATOM     22  C   UNL     1      47.865   6.348  13.582  0.00  0.00    +0.000 A 
BRANCH  17  24
ATOM     23  N   UNL     1      46.050   3.306  13.127  0.00  0.00    +0.000 NA
ATOM     24  C   UNL     1      46.684   4.132  13.645  0.00  0.00    +0.000 C 
ENDBRANCH  17  24
ENDBRANCH  15  22
ENDBRANCH  14  15
ENDBRANCH   1  14
TORSDOF 5
ENDMDL
MODEL 3
REMARK VINA RESULT:    -7.249      1.699      2.868
REMARK INTER + INTRA:         -10.544
REMARK INTER:                  -9.753
REMARK INTRA:                  -0.790
REMARK UNBOUND:                -1.176
REMARK  Name = 
REMARK  5 active torsions:
REMARK  status: ('A' for Active; 'I' for Inactive)
REMARK    1  A    between atoms: C_2  and  C_3
REMARK    2  A    between atoms: C_8  and  N_9
REMARK    3  A    between atoms: N_9  and  C_10
REMARK    4  A    between atoms: C_10  and  C_11
REMARK    5  A    between atoms: C_16  and  C_17
REMARK                            x       y       z     vdW  Elec       q    Type
REMARK                         _______ _______ _______ _____ _____    ______ ____
ROOT
ATOM      1  C   UNL     1      45.340   6.512  11.327  0.00  0.00    +0.000 A 
ATOM      2  C   UNL     1      43.999   6.405  11.708  0.00  0.00    +0.000 A 
ATOM      3  C   UNL     1      43.199   5.423  11.139  0.00  0.00    +0.000 A 
ATOM      4  F   UNL     1      41.925   5.300  11.535  0.00  0.00    +0.000 F 
ATOM      5  C   UNL     1      43.701   4.544  10.180  0.00  0.00    +0.000 A 
ATOM      6  C   UNL     1      45.041   4.621   9.767  0.00  0.00    +0.000 A 
ATOM      7  C   UNL     1      45.838   5.628  10.351  0.00  0.00    +0.000 A 
ENDROOT
BRANCH   6   8
ATOM      8  C   UNL     1      45.622   3.656   8.803  0.00  0.00    +0.000 A 
ATOM      9  C   UNL     1      46.329   4.089   7.665  0.00  0.00    +0.000 A 
ATOM     10  C   UNL     1      46.938   3.182   6.793  0.00  0.00    +0.000 A 
ATOM     11  C   UNL     1      46.837   1.815   7.028  0.00  0.00    +0.000 A 
ATOM     12  C   UNL     1      46.124   1.356   8.129  0.00  0.00    +0.000 A 
ATOM     13  C   UNL     1      45.527   2.268   9.008  0.00  0.00    +0.000 A 
ENDBRANCH   6   8
BRANCH   1  14
ATOM     14  C   UNL     1      46.258   7.517  11.980  0.00  0.00    +0.000 C 
BRANCH  14  15
ATOM     15  N   UNL     1      47.477   6.875  12.446  0.00  0.00    +0.000 N 
ATOM     16  H   UNL     1      47.995   6.404  11.707  0.00  0.00    +0.000 HD
BRANCH  15  22
ATOM     17  C   UNL     1      48.452   6.559  14.763  0.00  0.00    +0.000 A 
ATOM     18  N   UNL     1      48.552   5.826  15.915  0.00  0.00    +0.000 NA
ATOM     19  C   UNL     1      47.803   4.717  16.015  0.00  0.00    +0.000 A 
ATOM     20  C   UNL     1      46.940   4.298  15.023  0.00  0.00    +0.000 A 
ATOM     21  C   UNL     1      46.846   5.067  13.861  0.00  0.00    +0.000 A 
ATOM     22  C   UNL     1      47.589   6.248  13.693  0.00  0.00    +0.000 A 
BRANCH  17  24
ATOM     23  N   UNL     1      49.990   8.654  14.858  0.00  0.00    +0.000 NA
ATOM     24  C   UNL     1      49.303   7.718  14.796  0.00  0.00    +0.000 C 
ENDBRANCH  17  24
ENDBRANCH  15  22
ENDBRANCH  14  15
ENDBRANCH   1  14
TORSDOF 5
ENDMDL
MODEL 4
REMARK VINA RESULT:    -6.858      1.691      2.343
REMARK INTER + INTRA:         -10.039
REMARK INTER:                  -9.238
REMARK INTRA:                  -0.800
REMARK UNBOUND:                -1.176
REMARK  Name = 
REMARK  5 active torsions:
REMARK  status: ('A' for Active; 'I' for Inactive)
REMARK    1  A    between atoms: C_2  and  C_3
REMARK    2  A    between atoms: C_8  and  N_9
REMARK    3  A    between atoms: N_9  and  C_10
REMARK    4  A    between atoms: C_10  and  C_11
REMARK    5  A    between atoms: C_16  and  C_17
REMARK                            x       y       z     vdW  Elec       q    Type
REMARK                         _______ _______ _______ _____ _____    ______ ____
ROOT
ATOM      1  C   UNL     1      45.265   6.523  11.377  0.00  0.00    +0.000 A 
ATOM      2  C   UNL     1      43.958   6.307  11.824  0.00  0.00    +0.000 A 
ATOM      3  C   UNL     1      43.208   5.273  11.280  0.00  0.00    +0.000 A 
ATOM      4  F   UNL     1      41.970   5.047  11.739  0.00  0.00    +0.000 F 
ATOM      5  C   UNL     1      43.726   4.447  10.284  0.00  0.00    +0.000 A 
ATOM      6  C   UNL     1      45.033   4.632   9.805  0.00  0.00    +0.000 A 
ATOM      7  C   UNL     1      45.779   5.692  10.364  0.00  0.00    +0.000 A 
ENDROOT
BRANCH   6   8
ATOM      8  C   UNL     1      45.635   3.727   8.797  0.00  0.00    +0.000 A 
ATOM      9  C   UNL     1      46.301   4.228   7.662  0.00  0.00    +0.000 A 
ATOM     10  C   UNL     1      46.931   3.379   6.748  0.00  0.00    +0.000 A 
ATOM     11  C   UNL     1      46.893   2.001   6.937  0.00  0.00    +0.000 A 
ATOM     12  C   UNL     1      46.222   1.475   8.035  0.00  0.00    +0.000 A 
ATOM     13  C   UNL     1      45.604   2.329   8.956  0.00  0.00    +0.000 A 
ENDBRANCH   6   8
BRANCH   1  14
ATOM     14  C   UNL     1      46.136   7.587  11.998  0.00  0.00    +0.000 C 
BRANCH  14  15
ATOM     15  N   UNL     1      47.134   6.993  12.873  0.00  0.00    +0.000 N 
ATOM     16  H   UNL     1      46.771   6.743  13.790  0.00  0.00    +0.000 HD
BRANCH  15  22
ATOM     17  C   UNL     1      49.369   7.426  13.984  0.00  0.00    +0.000 A 
ATOM     18  N   UNL     1      50.645   7.920  13.924  0.00  0.00    +0.000 NA
ATOM     19  C   UNL     1      51.058   8.438  12.756  0.00  0.00    +0.000 A 
ATOM     20  C   UNL     1      50.264   8.482  11.629  0.00  0.00    +0.000 A 
ATOM     21  C   UNL     1      48.971   7.962  11.709  0.00  0.00    +0.000 A 
ATOM     22  C   UNL     1      48.476   7.391  12.894  0.00  0.00    +0.000 A 
BRANCH  17  24
ATOM     23  N   UNL     1      48.846   6.451  16.337  0.00  0.00    +0.000 NA
ATOM     24  C   UNL     1      49.065   6.899  15.287  0.00  0.00    +0.000 C 
ENDBRANCH  17  24
ENDBRANCH  15  22
ENDBRANCH  14  15
ENDBRANCH   1  14
TORSDOF 5
ENDMDL
MODEL 5
REMARK VINA RESULT:    -6.696      1.437      2.210
REMARK INTER + INTRA:          -9.829
REMARK INTER:                  -9.109
REMARK INTRA:                  -0.720
REMARK UNBOUND:                -1.176
REMARK  Name = 
REMARK  5 active torsions:
REMARK  status: ('A' for Active; 'I' for Inactive)
REMARK    1  A    between atoms: C_2  and  C_3
REMARK    2  A    between atoms: C_8  and  N_9
REMARK    3  A    between atoms: N_9  and  C_10
REMARK    4  A    between atoms: C_10  and  C_11
REMARK    5  A    between atoms: C_16  and  C_17
REMARK                            x       y       z     vdW  Elec       q    Type
REMARK                         _______ _______ _______ _____ _____    ______ ____
ROOT
ATOM      1  C   UNL     1      44.399   5.319  11.037  0.00  0.00    +0.000 A 
ATOM      2  C   UNL     1      43.750   4.426  11.894  0.00  0.00    +0.000 A 
ATOM      3  C   UNL     1      43.740   3.070  11.594  0.00  0.00    +0.000 A 
ATOM      4  F   UNL     1      43.149   2.214  12.438  0.00  0.00    +0.000 F 
ATOM      5  C   UNL     1      44.355   2.576  10.444  0.00  0.00    +0.000 A 
ATOM      6  C   UNL     1      45.015   3.441   9.556  0.00  0.00    +0.000 A 
ATOM      7  C   UNL     1      45.010   4.816   9.872  0.00  0.00    +0.000 A 
ENDROOT
BRANCH   6   8
ATOM      8  C   UNL     1      45.738   2.938   8.363  0.00  0.00    +0.000 A 
ATOM      9  C   UNL     1      46.043   3.781   7.278  0.00  0.00    +0.000 A 
ATOM     10  C   UNL     1      46.787   3.327   6.184  0.00  0.00    +0.000 A 
ATOM     11  C   UNL     1      47.227   2.009   6.141  0.00  0.00    +0.000 A 
ATOM     12  C   UNL     1      46.920   1.145   7.186  0.00  0.00    +0.000 A 
ATOM     13  C   UNL     1      46.187   1.607   8.285  0.00  0.00    +0.000 A 
ENDBRANCH   6   8
BRANCH   1  14
ATOM     14  C   UNL     1      44.496   6.788  11.369  0.00  0.00    +0.000 C 
BRANCH  14  15
ATOM     15  N   UNL     1      45.816   7.115  11.884  0.00  0.00    +0.000 N 
ATOM     16  H   UNL     1      46.089   6.549  12.686  0.00  0.00    +0.000 HD
BRANCH  15  22
ATOM     17  C   UNL     1      47.638   8.842  12.226  0.00  0.00    +0.000 A 
ATOM     18  N   UNL     1      48.023  10.152  12.322  0.00  0.00    +0.000 NA
ATOM     19  C   UNL     1      47.082  11.093  12.146  0.00  0.00    +0.000 A 
ATOM     20  C   UNL     1      45.764  10.797  11.866  0.00  0.00    +0.000 A 
ATOM     21  C   UNL     1      45.395   9.455  11.761  0.00  0.00    +0.000 A 
ATOM     22  C   UNL     1      46.329   8.416  11.918  0.00  0.00    +0.000 A 
BRANCH  17  24
ATOM     23  N   UNL     1      49.661   7.246  12.577  0.00  0.00    +0.000 NA
ATOM     24  C   UNL     1      48.744   7.947  12.429  0.00  0.00    +0.000 C 
ENDBRANCH  17  24
ENDBRANCH  15  22
ENDBRANCH  14  15
ENDBRANCH   1  14
TORSDOF 5
ENDMDL
MODEL 6
REMARK VINA RESULT:    -6.585      2.696      4.003
REMARK INTER + INTRA:          -9.686
REMARK INTER:                  -8.832
REMARK INTRA:                  -0.855
REMARK UNBOUND:                -1.176
REMARK  Name = 
REMARK  5 active torsions:
REMARK  status: ('A' for Active; 'I' for Inactive)
REMARK    1  A    between atoms: C_2  and  C_3
REMARK    2  A    between atoms: C_8  and  N_9
REMARK    3  A    between atoms: N_9  and  C_10
REMARK    4  A    between atoms: C_10  and  C_11
REMARK    5  A    between atoms: C_16  and  C_17
REMARK                            x       y       z     vdW  Elec       q    Type
REMARK                         _______ _______ _______ _____ _____    ______ ____
ROOT
ATOM      1  C   UNL     1      45.199   6.517  11.472  0.00  0.00    +0.000 A 
ATOM      2  C   UNL     1      43.868   6.323  11.852  0.00  0.00    +0.000 A 
ATOM      3  C   UNL     1      43.126   5.309  11.262  0.00  0.00    +0.000 A 
ATOM      4  F   UNL     1      41.862   5.103  11.658  0.00  0.00    +0.000 F 
ATOM      5  C   UNL     1      43.676   4.481  10.285  0.00  0.00    +0.000 A 
ATOM      6  C   UNL     1      45.008   4.645   9.873  0.00  0.00    +0.000 A 
ATOM      7  C   UNL     1      45.746   5.684  10.477  0.00  0.00    +0.000 A 
ENDROOT
BRANCH   6   8
ATOM      8  C   UNL     1      45.642   3.736   8.887  0.00  0.00    +0.000 A 
ATOM      9  C   UNL     1      45.622   2.338   9.056  0.00  0.00    +0.000 A 
ATOM     10  C   UNL     1      46.156   1.477   8.093  0.00  0.00    +0.000 A 
ATOM     11  C   UNL     1      46.742   1.995   6.943  0.00  0.00    +0.000 A 
ATOM     12  C   UNL     1      46.798   3.372   6.759  0.00  0.00    +0.000 A 
ATOM     13  C   UNL     1      46.251   4.231   7.720  0.00  0.00    +0.000 A 
ENDBRANCH   6   8
BRANCH   1  14
ATOM     14  C   UNL     1      46.059   7.559  12.144  0.00  0.00    +0.000 C 
BRANCH  14  15
ATOM     15  N   UNL     1      45.271   8.729  12.497  0.00  0.00    +0.000 N 
ATOM     16  H   UNL     1      44.435   8.508  13.035  0.00  0.00    +0.000 HD
BRANCH  15  22
ATOM     17  C   UNL     1      45.962  10.949  11.490  0.00  0.00    +0.000 A 
ATOM     18  N   UNL     1      45.677  12.031  10.702  0.00  0.00    +0.000 NA
ATOM     19  C   UNL     1      44.492  12.047  10.071  0.00  0.00    +0.000 A 
ATOM     20  C   UNL     1      43.569  11.027  10.175  0.00  0.00    +0.000 A 
ATOM     21  C   UNL     1      43.886   9.927  10.975  0.00  0.00    +0.000 A 
ATOM     22  C   UNL     1      45.114   9.835  11.653  0.00  0.00    +0.000 A 
BRANCH  17  24
ATOM     23  N   UNL     1      48.316  11.120  12.582  0.00  0.00    +0.000 NA
ATOM     24  C   UNL     1      47.261  11.063  12.097  0.00  0.00    +0.000 C 
ENDBRANCH  17  24
ENDBRANCH  15  22
ENDBRANCH  14  15
ENDBRANCH   1  14
TORSDOF 5
ENDMDL
MODEL 7
REMARK VINA RESULT:    -6.438      3.375      4.898
REMARK INTER + INTRA:          -9.496
REMARK INTER:                  -8.797
REMARK INTRA:                  -0.698
REMARK UNBOUND:                -1.176
REMARK  Name = 
REMARK  5 active torsions:
REMARK  status: ('A' for Active; 'I' for Inactive)
REMARK    1  A    between atoms: C_2  and  C_3
REMARK    2  A    between atoms: C_8  and  N_9
REMARK    3  A    between atoms: N_9  and  C_10
REMARK    4  A    between atoms: C_10  and  C_11
REMARK    5  A    between atoms: C_16  and  C_17
REMARK                            x       y       z     vdW  Elec       q    Type
REMARK                         _______ _______ _______ _____ _____    ______ ____
ROOT
ATOM      1  C   UNL     1      47.160   7.248  13.230  0.00  0.00    +0.000 A 
ATOM      2  C   UNL     1      46.407   8.424  13.173  0.00  0.00    +0.000 A 
ATOM      3  C   UNL     1      45.342   8.516  12.287  0.00  0.00    +0.000 A 
ATOM      4  F   UNL     1      44.600   9.632  12.263  0.00  0.00    +0.000 F 
ATOM      5  C   UNL     1      45.011   7.461  11.438  0.00  0.00    +0.000 A 
ATOM      6  C   UNL     1      45.744   6.264  11.462  0.00  0.00    +0.000 A 
ATOM      7  C   UNL     1      46.827   6.189  12.364  0.00  0.00    +0.000 A 
ENDROOT
BRANCH   6   8
ATOM      8  C   UNL     1      45.373   5.099  10.622  0.00  0.00    +0.000 A 
ATOM      9  C   UNL     1      44.706   3.984  11.164  0.00  0.00    +0.000 A 
ATOM     10  C   UNL     1      44.292   2.918  10.360  0.00  0.00    +0.000 A 
ATOM     11  C   UNL     1      44.553   2.932   8.994  0.00  0.00    +0.000 A 
ATOM     12  C   UNL     1      45.233   4.008   8.434  0.00  0.00    +0.000 A 
ATOM     13  C   UNL     1      45.634   5.080   9.240  0.00  0.00    +0.000 A 
ENDBRANCH   6   8
BRANCH   1  14
ATOM     14  C   UNL     1      48.275   7.084  14.233  0.00  0.00    +0.000 C 
BRANCH  14  15
ATOM     15  N   UNL     1      47.947   6.055  15.207  0.00  0.00    +0.000 N 
ATOM     16  H   UNL     1      46.945   5.924  15.335  0.00  0.00    +0.000 HD
BRANCH  15  22
ATOM     17  C   UNL     1      48.462   4.891  17.398  0.00  0.00    +0.000 A 
ATOM     18  N   UNL     1      49.201   4.805  18.546  0.00  0.00    +0.000 NA
ATOM     19  C   UNL     1      50.190   5.696  18.719  0.00  0.00    +0.000 A 
ATOM     20  C   UNL     1      50.494   6.674  17.794  0.00  0.00    +0.000 A 
ATOM     21  C   UNL     1      49.734   6.736  16.624  0.00  0.00    +0.000 A 
ATOM     22  C   UNL     1      48.693   5.827  16.369  0.00  0.00    +0.000 A 
BRANCH  17  24
ATOM     23  N   UNL     1      46.600   3.078  17.310  0.00  0.00    +0.000 NA
ATOM     24  C   UNL     1      47.445   3.876  17.343  0.00  0.00    +0.000 C 
ENDBRANCH  17  24
ENDBRANCH  15  22
ENDBRANCH  14  15
ENDBRANCH   1  14
TORSDOF 5
ENDMDL
MODEL 8
REMARK VINA RESULT:    -6.347      3.233      5.064
REMARK INTER + INTRA:          -9.379
REMARK INTER:                  -8.569
REMARK INTRA:                  -0.810
REMARK UNBOUND:                -1.176
REMARK  Name = 
REMARK  5 active torsions:
REMARK  status: ('A' for Active; 'I' for Inactive)
REMARK    1  A    between atoms: C_2  and  C_3
REMARK    2  A    between atoms: C_8  and  N_9
REMARK    3  A    between atoms: N_9  and  C_10
REMARK    4  A    between atoms: C_10  and  C_11
REMARK    5  A    between atoms: C_16  and  C_17
REMARK                            x       y       z     vdW  Elec       q    Type
REMARK                         _______ _______ _______ _____ _____    ______ ____
ROOT
ATOM      1  C   UNL     1      47.351   7.066  13.221  0.00  0.00    +0.000 A 
ATOM      2  C   UNL     1      46.607   8.248  13.295  0.00  0.00    +0.000 A 
ATOM      3  C   UNL     1      45.488   8.408  12.489  0.00  0.00    +0.000 A 
ATOM      4  F   UNL     1      44.758   9.526  12.592  0.00  0.00    +0.000 F 
ATOM      5  C   UNL     1      45.094   7.417  11.591  0.00  0.00    +0.000 A 
ATOM      6  C   UNL     1      45.815   6.217  11.483  0.00  0.00    +0.000 A 
ATOM      7  C   UNL     1      46.953   6.073  12.306  0.00  0.00    +0.000 A 
ENDROOT
BRANCH   6   8
ATOM      8  C   UNL     1      45.379   5.117  10.589  0.00  0.00    +0.000 A 
ATOM      9  C   UNL     1      45.703   5.111   9.219  0.00  0.00    +0.000 A 
ATOM     10  C   UNL     1      45.355   4.041   8.390  0.00  0.00    +0.000 A 
ATOM     11  C   UNL     1      44.656   2.956   8.908  0.00  0.00    +0.000 A 
ATOM     12  C   UNL     1      44.301   2.945  10.252  0.00  0.00    +0.000 A 
ATOM     13  C   UNL     1      44.662   4.012  11.083  0.00  0.00    +0.000 A 
ENDBRANCH   6   8
BRANCH   1  14
ATOM     14  C   UNL     1      48.526   6.826  14.136  0.00  0.00    +0.000 C 
BRANCH  14  15
ATOM     15  N   UNL     1      48.082   6.621  15.505  0.00  0.00    +0.000 N 
ATOM     16  H   UNL     1      48.081   7.473  16.062  0.00  0.00    +0.000 HD
BRANCH  15  22
ATOM     17  C   UNL     1      49.532   5.173  16.994  0.00  0.00    +0.000 A 
ATOM     18  N   UNL     1      49.766   3.976  17.616  0.00  0.00    +0.000 NA
ATOM     19  C   UNL     1      48.845   3.009  17.472  0.00  0.00    +0.000 A 
ATOM     20  C   UNL     1      47.686   3.175  16.744  0.00  0.00    +0.000 A 
ATOM     21  C   UNL     1      47.462   4.408  16.128  0.00  0.00    +0.000 A 
ATOM     22  C   UNL     1      48.375   5.471  16.247  0.00  0.00    +0.000 A 
BRANCH  17  24
ATOM     23  N   UNL     1      51.430   6.899  17.424  0.00  0.00    +0.000 NA
ATOM     24  C   UNL     1      50.593   6.113  17.237  0.00  0.00    +0.000 C 
ENDBRANCH  17  24
ENDBRANCH  15  22
ENDBRANCH  14  15
ENDBRANCH   1  14
TORSDOF 5
ENDMDL
MODEL 9
REMARK VINA RESULT:    -6.270      3.075      6.958
REMARK INTER + INTRA:          -9.279
REMARK INTER:                  -8.341
REMARK INTRA:                  -0.938
REMARK UNBOUND:                -1.176
REMARK  Name = 
REMARK  5 active torsions:
REMARK  status: ('A' for Active; 'I' for Inactive)
REMARK    1  A    between atoms: C_2  and  C_3
REMARK    2  A    between atoms: C_8  and  N_9
REMARK    3  A    between atoms: N_9  and  C_10
REMARK    4  A    between atoms: C_10  and  C_11
REMARK    5  A    between atoms: C_16  and  C_17
REMARK                            x       y       z     vdW  Elec       q    Type
REMARK                         _______ _______ _______ _____ _____    ______ ____
ROOT
ATOM      1  C   UNL     1      46.701   6.974  12.054  0.00  0.00    +0.000 A 
ATOM      2  C   UNL     1      47.866   7.560  11.549  0.00  0.00    +0.000 A 
ATOM      3  C   UNL     1      49.043   7.490  12.282  0.00  0.00    +0.000 A 
ATOM      4  F   UNL     1      50.165   8.020  11.776  0.00  0.00    +0.000 F 
ATOM      5  C   UNL     1      49.089   6.857  13.523  0.00  0.00    +0.000 A 
ATOM      6  C   UNL     1      47.941   6.259  14.067  0.00  0.00    +0.000 A 
ATOM      7  C   UNL     1      46.751   6.344  13.312  0.00  0.00    +0.000 A 
ENDROOT
BRANCH   6   8
ATOM      8  C   UNL     1      47.975   5.518  15.351  0.00  0.00    +0.000 A 
ATOM      9  C   UNL     1      47.267   4.313  15.524  0.00  0.00    +0.000 A 
ATOM     10  C   UNL     1      47.354   3.576  16.709  0.00  0.00    +0.000 A 
ATOM     11  C   UNL     1      48.140   4.038  17.759  0.00  0.00    +0.000 A 
ATOM     12  C   UNL     1      48.832   5.237  17.627  0.00  0.00    +0.000 A 
ATOM     13  C   UNL     1      48.752   5.965  16.435  0.00  0.00    +0.000 A 
ENDBRANCH   6   8
BRANCH   1  14
ATOM     14  C   UNL     1      45.423   6.963  11.252  0.00  0.00    +0.000 C 
BRANCH  14  15
ATOM     15  N   UNL     1      44.751   5.679  11.368  0.00  0.00    +0.000 N 
ATOM     16  H   UNL     1      44.720   5.323  12.322  0.00  0.00    +0.000 HD
BRANCH  15  22
ATOM     17  C   UNL     1      44.499   3.309  10.509  0.00  0.00    +0.000 A 
ATOM     18  N   UNL     1      44.708   2.377   9.529  0.00  0.00    +0.000 NA
ATOM     19  C   UNL     1      45.313   2.784   8.402  0.00  0.00    +0.000 A 
ATOM     20  C   UNL     1      45.716   4.086   8.190  0.00  0.00    +0.000 A 
ATOM     21  C   UNL     1      45.481   5.023   9.199  0.00  0.00    +0.000 A 
ATOM     22  C   UNL     1      44.841   4.672  10.400  0.00  0.00    +0.000 A 
BRANCH  17  24
ATOM     23  N   UNL     1      43.307   2.307  12.592  0.00  0.00    +0.000 NA
ATOM     24  C   UNL     1      43.840   2.737  11.652  0.00  0.00    +0.000 C 
ENDBRANCH  17  24
ENDBRANCH  15  22
ENDBRANCH  14  15
ENDBRANCH   1  14
TORSDOF 5
ENDMDL
