MODEL 1
REMARK VINA RESULT:    -7.084      0.000      0.000
REMARK INTER + INTRA:         -11.950
REMARK INTER:                 -10.190
REMARK INTRA:                  -1.760
REMARK UNBOUND:                -1.760
REMARK  Name = 
REMARK  8 active torsions:
REMARK  status: ('A' for Active; 'I' for Inactive)
REMARK    1  A    between atoms: C_2  and  C_22
REMARK    2  A    between atoms: N_3  and  C_4
REMARK    3  A    between atoms: C_4  and  C_5
REMARK    4  A    between atoms: C_8  and  C_9
REMARK    5  A    between atoms: C_9  and  N_10
REMARK    6  A    between atoms: N_10  and  C_11
REMARK    7  A    between atoms: C_11  and  C_12
REMARK    8  A    between atoms: C_12  and  O_13
REMARK                            x       y       z     vdW  Elec       q    Type
REMARK                         _______ _______ _______ _____ _____    ______ ____
ROOT
ATOM      1  C   UNL     1      48.341   8.382  13.364  0.00  0.00    +0.000 A 
ATOM      2  C   UNL     1      47.021   8.720  13.692  0.00  0.00    +0.000 A 
ATOM      3  C   UNL     1      45.946   8.247  12.931  0.00  0.00    +0.000 A 
ATOM      4  C   UNL     1      46.162   7.379  11.851  0.00  0.00    +0.000 A 
ATOM      5  C   UNL     1      47.486   7.131  11.453  0.00  0.00    +0.000 A 
ATOM      6  C   UNL     1      48.566   7.622  12.206  0.00  0.00    +0.000 A 
ENDROOT
BRANCH   1   7
ATOM      7  C   UNL     1      49.468   8.757  14.298  0.00  0.00    +0.000 C 
BRANCH   7  10
ATOM      8  O   UNL     1      50.994   6.718  15.592  0.00  0.00    +0.000 OA
ATOM      9  C   UNL     1      49.971   7.156  16.110  0.00  0.00    +0.000 C 
ATOM     10  N   UNL     1      49.237   8.210  15.624  0.00  0.00    +0.000 N 
ATOM     11  H   UNL     1      48.322   8.381  16.014  0.00  0.00    +0.000 HD
BRANCH   9  12
ATOM     12  C   UNL     1      49.275   6.461  17.190  0.00  0.00    +0.000 A 
ATOM     13  C   UNL     1      49.439   6.798  18.522  0.00  0.00    +0.000 A 
ATOM     14  S   UNL     1      48.997   5.502  19.560  0.00  0.00    +0.000 S 
ATOM     15  C   UNL     1      48.445   4.568  18.244  0.00  0.00    +0.000 A 
ATOM     16  N   UNL     1      48.061   3.269  18.376  0.00  0.00    +0.000 NA
ATOM     17  C   UNL     1      47.604   2.741  17.286  0.00  0.00    +0.000 A 
ATOM     18  N   UNL     1      47.445   3.412  16.089  0.00  0.00    +0.000 N 
ATOM     19  C   UNL     1      47.806   4.721  15.916  0.00  0.00    +0.000 A 
ATOM     20  O   UNL     1      47.577   5.328  14.881  0.00  0.00    +0.000 OA
ATOM     21  C   UNL     1      48.457   5.296  17.076  0.00  0.00    +0.000 A 
ATOM     22  H   UNL     1      46.983   2.967  15.311  0.00  0.00    +0.000 HD
ENDBRANCH   9  12
ENDBRANCH   7  10
ENDBRANCH   1   7
BRANCH   4  23
ATOM     23  C   UNL     1      45.021   6.514  11.340  0.00  0.00    +0.000 C 
BRANCH  23  24
ATOM     24  N   UNL     1      45.056   5.071  11.516  0.00  0.00    +0.000 N 
ATOM     25  C   UNL     1      45.019   4.422  10.275  0.00  0.00    +0.000 A 
ATOM     26  N   UNL     1      45.798   4.913   9.294  0.00  0.00    +0.000 NA
ATOM     27  C   UNL     1      45.834   4.260   8.120  0.00  0.00    +0.000 A 
ATOM     28  C   UNL     1      45.085   3.146   7.854  0.00  0.00    +0.000 A 
ATOM     29  C   UNL     1      44.291   2.727   8.889  0.00  0.00    +0.000 A 
ATOM     30  N   UNL     1      44.254   3.330  10.098  0.00  0.00    +0.000 NA
BRANCH  24  31
ATOM     31  C   UNL     1      44.438   4.370  12.638  0.00  0.00    +0.000 C 
BRANCH  31  32
ATOM     32  C   UNL     1      43.090   5.034  13.006  0.00  0.00    +0.000 C 
BRANCH  32  33
ATOM     33  O   UNL     1      42.126   4.873  11.962  0.00  0.00    +0.000 OA
ATOM     34  H   UNL     1      42.553   4.336  11.272  0.00  0.00    +0.000 HD
ENDBRANCH  32  33
ENDBRANCH  31  32
ENDBRANCH  24  31
ENDBRANCH  23  24
ENDBRANCH   4  23
TORSDOF 8
ENDMDL
MODEL 2
REMARK VINA RESULT:    -6.622      2.355      3.001
REMARK INTER + INTRA:         -11.286
REMARK INTER:                 -10.686
REMARK INTRA:                  -0.599
REMARK UNBOUND:                -1.760
REMARK  Name = 
REMARK  8 active torsions:
REMARK  status: ('A' for Active; 'I' for Inactive)
REMARK    1  A    between atoms: C_2  and  C_22
REMARK    2  A    between atoms: N_3  and  C_4
REMARK    3  A    between atoms: C_4  and  C_5
REMARK    4  A    between atoms: C_8  and  C_9
REMARK    5  A    between atoms: C_9  and  N_10
REMARK    6  A    between atoms: N_10  and  C_11
REMARK    7  A    between atoms: C_11  and  C_12
REMARK    8  A    between atoms: C_12  and  O_13
REMARK                            x       y       z     vdW  Elec       q    Type
REMARK                         _______ _______ _______ _____ _____    ______ ____
ROOT
ATOM      1  C   UNL     1      47.541   5.515  14.341  0.00  0.00    +0.000 A 
ATOM      2  C   UNL     1      46.978   6.132  13.216  0.00  0.00    +0.000 A 
ATOM      3  C   UNL     1      46.166   5.413  12.331  0.00  0.00    +0.000 A 
ATOM      4  C   UNL     1      45.855   4.068  12.578  0.00  0.00    +0.000 A 
ATOM      5  C   UNL     1      46.507   3.419  13.640  0.00  0.00    +0.000 A 
ATOM      6  C   UNL     1      47.338   4.137  14.517  0.00  0.00    +0.000 A 
ENDROOT
BRANCH   1   7
ATOM      7  C   UNL     1      48.265   6.348  15.372  0.00  0.00    +0.000 C 
BRANCH   7  10
ATOM      8  O   UNL     1      48.616   6.898  18.154  0.00  0.00    +0.000 OA
ATOM      9  C   UNL     1      49.128   5.905  17.643  0.00  0.00    +0.000 C 
ATOM     10  N   UNL     1      48.922   5.497  16.349  0.00  0.00    +0.000 N 
ATOM     11  H   UNL     1      49.520   4.778  15.970  0.00  0.00    +0.000 HD
BRANCH   9  12
ATOM     12  C   UNL     1      50.205   5.157  18.286  0.00  0.00    +0.000 A 
ATOM     13  C   UNL     1      51.164   5.762  19.080  0.00  0.00    +0.000 A 
ATOM     14  S   UNL     1      52.579   4.795  19.207  0.00  0.00    +0.000 S 
ATOM     15  C   UNL     1      51.849   3.520  18.341  0.00  0.00    +0.000 A 
ATOM     16  N   UNL     1      52.536   2.415  17.944  0.00  0.00    +0.000 NA
ATOM     17  C   UNL     1      51.805   1.520  17.362  0.00  0.00    +0.000 A 
ATOM     18  N   UNL     1      50.436   1.607  17.191  0.00  0.00    +0.000 N 
ATOM     19  C   UNL     1      49.704   2.694  17.586  0.00  0.00    +0.000 A 
ATOM     20  O   UNL     1      48.485   2.719  17.512  0.00  0.00    +0.000 OA
ATOM     21  C   UNL     1      50.516   3.774  18.108  0.00  0.00    +0.000 A 
ATOM     22  H   UNL     1      49.917   0.824  16.825  0.00  0.00    +0.000 HD
ENDBRANCH   9  12
ENDBRANCH   7  10
ENDBRANCH   1   7
BRANCH   4  23
ATOM     23  C   UNL     1      44.640   3.442  11.914  0.00  0.00    +0.000 C 
BRANCH  23  24
ATOM     24  N   UNL     1      44.105   3.999  10.681  0.00  0.00    +0.000 N 
ATOM     25  C   UNL     1      44.866   3.584   9.581  0.00  0.00    +0.000 A 
ATOM     26  N   UNL     1      45.230   2.290   9.531  0.00  0.00    +0.000 NA
ATOM     27  C   UNL     1      45.897   1.856   8.447  0.00  0.00    +0.000 A 
ATOM     28  C   UNL     1      46.263   2.672   7.411  0.00  0.00    +0.000 A 
ATOM     29  C   UNL     1      45.887   3.982   7.551  0.00  0.00    +0.000 A 
ATOM     30  N   UNL     1      45.184   4.452   8.604  0.00  0.00    +0.000 NA
BRANCH  24  31
ATOM     31  C   UNL     1      43.480   5.315  10.584  0.00  0.00    +0.000 C 
BRANCH  31  32
ATOM     32  C   UNL     1      42.328   5.437  11.610  0.00  0.00    +0.000 C 
BRANCH  32  33
ATOM     33  O   UNL     1      42.806   5.887  12.880  0.00  0.00    +0.000 OA
ATOM     34  H   UNL     1      43.199   5.113  13.319  0.00  0.00    +0.000 HD
ENDBRANCH  32  33
ENDBRANCH  31  32
ENDBRANCH  24  31
ENDBRANCH  23  24
ENDBRANCH   4  23
TORSDOF 8
ENDMDL
MODEL 3
REMARK VINA RESULT:    -6.422      2.969      7.989
REMARK INTER + INTRA:         -10.997
REMARK INTER:                  -9.992
REMARK INTRA:                  -1.005
REMARK UNBOUND:                -1.760
REMARK  Name = 
REMARK  8 active torsions:
REMARK  status: ('A' for Active; 'I' for Inactive)
REMARK    1  A    between atoms: C_2  and  C_22
REMARK    2  A    between atoms: N_3  and  C_4
REMARK    3  A    between atoms: C_4  and  C_5
REMARK    4  A    between atoms: C_8  and  C_9
REMARK    5  A    between atoms: C_9  and  N_10
REMARK    6  A    between atoms: N_10  and  C_11
REMARK    7  A    between atoms: C_11  and  C_12
REMARK    8  A    between atoms: C_12  and  O_13
REMARK                            x       y       z     vdW  Elec       q    Type
REMARK                         _______ _______ _______ _____ _____    ______ ____
ROOT
ATOM      1  C   UNL     1      48.229   7.686  13.543  0.00  0.00    +0.000 A 
ATOM      2  C   UNL     1      47.794   6.471  14.091  0.00  0.00    +0.000 A 
ATOM      3  C   UNL     1      48.416   5.928  15.221  0.00  0.00    +0.000 A 
ATOM      4  C   UNL     1      49.458   6.612  15.863  0.00  0.00    +0.000 A 
ATOM      5  C   UNL     1      49.968   7.770  15.252  0.00  0.00    +0.000 A 
ATOM      6  C   UNL     1      49.356   8.305  14.106  0.00  0.00    +0.000 A 
ENDROOT
BRANCH   1   7
ATOM      7  C   UNL     1      47.434   8.338  12.436  0.00  0.00    +0.000 C 
BRANCH   7  10
ATOM      8  O   UNL     1      44.743   7.493  11.979  0.00  0.00    +0.000 OA
ATOM      9  C   UNL     1      45.678   6.939  11.407  0.00  0.00    +0.000 C 
ATOM     10  N   UNL     1      46.988   7.345  11.473  0.00  0.00    +0.000 N 
ATOM     11  H   UNL     1      47.703   6.728  11.119  0.00  0.00    +0.000 HD
BRANCH   9  12
ATOM     12  C   UNL     1      45.546   5.634  10.764  0.00  0.00    +0.000 A 
ATOM     13  C   UNL     1      45.854   5.424   9.431  0.00  0.00    +0.000 A 
ATOM     14  S   UNL     1      45.076   4.020   8.818  0.00  0.00    +0.000 S 
ATOM     15  C   UNL     1      44.469   3.619  10.360  0.00  0.00    +0.000 A 
ATOM     16  N   UNL     1      43.583   2.605  10.559  0.00  0.00    +0.000 NA
ATOM     17  C   UNL     1      43.288   2.400  11.802  0.00  0.00    +0.000 A 
ATOM     18  N   UNL     1      43.841   3.081  12.870  0.00  0.00    +0.000 N 
ATOM     19  C   UNL     1      44.743   4.099  12.715  0.00  0.00    +0.000 A 
ATOM     20  O   UNL     1      45.292   4.631  13.667  0.00  0.00    +0.000 OA
ATOM     21  C   UNL     1      44.982   4.449  11.330  0.00  0.00    +0.000 A 
ATOM     22  H   UNL     1      43.643   2.795  13.815  0.00  0.00    +0.000 HD
ENDBRANCH   9  12
ENDBRANCH   7  10
ENDBRANCH   1   7
BRANCH   4  23
ATOM     23  C   UNL     1      49.801   6.280  17.306  0.00  0.00    +0.000 C 
BRANCH  23  24
ATOM     24  N   UNL     1      49.304   5.058  17.919  0.00  0.00    +0.000 N 
ATOM     25  C   UNL     1      48.795   5.319  19.197  0.00  0.00    +0.000 A 
ATOM     26  N   UNL     1      48.020   6.408  19.347  0.00  0.00    +0.000 NA
ATOM     27  C   UNL     1      47.461   6.635  20.548  0.00  0.00    +0.000 A 
ATOM     28  C   UNL     1      47.675   5.839  21.640  0.00  0.00    +0.000 A 
ATOM     29  C   UNL     1      48.503   4.770  21.419  0.00  0.00    +0.000 A 
ATOM     30  N   UNL     1      49.053   4.483  20.219  0.00  0.00    +0.000 NA
BRANCH  24  31
ATOM     31  C   UNL     1      49.895   3.740  17.707  0.00  0.00    +0.000 C 
BRANCH  31  32
ATOM     32  C   UNL     1      48.907   2.828  16.941  0.00  0.00    +0.000 C 
BRANCH  32  33
ATOM     33  O   UNL     1      49.598   1.823  16.195  0.00  0.00    +0.000 OA
ATOM     34  H   UNL     1      48.935   1.396  15.624  0.00  0.00    +0.000 HD
ENDBRANCH  32  33
ENDBRANCH  31  32
ENDBRANCH  24  31
ENDBRANCH  23  24
ENDBRANCH   4  23
TORSDOF 8
ENDMDL
MODEL 4
REMARK VINA RESULT:    -6.364      1.735      2.040
REMARK INTER + INTRA:         -10.914
REMARK INTER:                  -9.098
REMARK INTRA:                  -1.817
REMARK UNBOUND:                -1.760
REMARK  Name = 
REMARK  8 active torsions:
REMARK  status: ('A' for Active; 'I' for Inactive)
REMARK    1  A    between atoms: C_2  and  C_22
REMARK    2  A    between atoms: N_3  and  C_4
REMARK    3  A    between atoms: C_4  and  C_5
REMARK    4  A    between atoms: C_8  and  C_9
REMARK    5  A    between atoms: C_9  and  N_10
REMARK    6  A    between atoms: N_10  and  C_11
REMARK    7  A    between atoms: C_11  and  C_12
REMARK    8  A    between atoms: C_12  and  O_13
REMARK                            x       y       z     vdW  Elec       q    Type
REMARK                         _______ _______ _______ _____ _____    ______ ____
ROOT
ATOM      1  C   UNL     1      47.692   9.321  12.799  0.00  0.00    +0.000 A 
ATOM      2  C   UNL     1      46.336   9.619  12.605  0.00  0.00    +0.000 A 
ATOM      3  C   UNL     1      45.473   8.692  12.009  0.00  0.00    +0.000 A 
ATOM      4  C   UNL     1      45.935   7.421  11.637  0.00  0.00    +0.000 A 
ATOM      5  C   UNL     1      47.313   7.163  11.727  0.00  0.00    +0.000 A 
ATOM      6  C   UNL     1      48.183   8.101  12.307  0.00  0.00    +0.000 A 
ENDROOT
BRANCH   1   7
ATOM      7  C   UNL     1      48.562  10.261  13.600  0.00  0.00    +0.000 C 
BRANCH   7  10
ATOM      8  O   UNL     1      50.515   8.905  15.183  0.00  0.00    +0.000 OA
ATOM      9  C   UNL     1      49.425   9.209  15.660  0.00  0.00    +0.000 C 
ATOM     10  N   UNL     1      48.471   9.959  15.018  0.00  0.00    +0.000 N 
ATOM     11  H   UNL     1      47.545  10.004  15.416  0.00  0.00    +0.000 HD
BRANCH   9  12
ATOM     12  C   UNL     1      48.912   8.615  16.892  0.00  0.00    +0.000 A 
ATOM     13  C   UNL     1      48.573   9.372  18.000  0.00  0.00    +0.000 A 
ATOM     14  S   UNL     1      48.570   8.424  19.434  0.00  0.00    +0.000 S 
ATOM     15  C   UNL     1      48.864   6.994  18.552  0.00  0.00    +0.000 A 
ATOM     16  N   UNL     1      49.128   5.803  19.153  0.00  0.00    +0.000 NA
ATOM     17  C   UNL     1      49.254   4.813  18.329  0.00  0.00    +0.000 A 
ATOM     18  N   UNL     1      49.083   4.897  16.960  0.00  0.00    +0.000 N 
ATOM     19  C   UNL     1      48.805   6.073  16.317  0.00  0.00    +0.000 A 
ATOM     20  O   UNL     1      48.568   6.118  15.119  0.00  0.00    +0.000 OA
ATOM     21  C   UNL     1      48.804   7.224  17.196  0.00  0.00    +0.000 A 
ATOM     22  H   UNL     1      49.091   4.065  16.393  0.00  0.00    +0.000 HD
ENDBRANCH   9  12
ENDBRANCH   7  10
ENDBRANCH   1   7
BRANCH   4  23
ATOM     23  C   UNL     1      44.942   6.287  11.441  0.00  0.00    +0.000 C 
BRANCH  23  24
ATOM     24  N   UNL     1      45.356   4.905  11.630  0.00  0.00    +0.000 N 
ATOM     25  C   UNL     1      45.126   4.159  10.468  0.00  0.00    +0.000 A 
ATOM     26  N   UNL     1      45.464   4.718   9.293  0.00  0.00    +0.000 NA
ATOM     27  C   UNL     1      45.320   3.988   8.173  0.00  0.00    +0.000 A 
ATOM     28  C   UNL     1      44.804   2.721   8.161  0.00  0.00    +0.000 A 
ATOM     29  C   UNL     1      44.450   2.233   9.392  0.00  0.00    +0.000 A 
ATOM     30  N   UNL     1      44.614   2.917  10.545  0.00  0.00    +0.000 NA
BRANCH  24  31
ATOM     31  C   UNL     1      45.256   4.189  12.898  0.00  0.00    +0.000 C 
BRANCH  31  32
ATOM     32  C   UNL     1      46.667   3.841  13.429  0.00  0.00    +0.000 C 
BRANCH  32  33
ATOM     33  O   UNL     1      46.695   3.817  14.859  0.00  0.00    +0.000 OA
ATOM     34  H   UNL     1      47.395   3.191  15.112  0.00  0.00    +0.000 HD
ENDBRANCH  32  33
ENDBRANCH  31  32
ENDBRANCH  24  31
ENDBRANCH  23  24
ENDBRANCH   4  23
TORSDOF 8
ENDMDL
MODEL 5
REMARK VINA RESULT:    -6.275      1.854      2.677
REMARK INTER + INTRA:         -10.787
REMARK INTER:                 -10.089
REMARK INTRA:                  -0.698
REMARK UNBOUND:                -1.760
REMARK  Name = 
REMARK  8 active torsions:
REMARK  status: ('A' for Active; 'I' for Inactive)
REMARK    1  A    between atoms: C_2  and  C_22
REMARK    2  A    between atoms: N_3  and  C_4
REMARK    3  A    between atoms: C_4  and  C_5
REMARK    4  A    between atoms: C_8  and  C_9
REMARK    5  A    between atoms: C_9  and  N_10
REMARK    6  A    between atoms: N_10  and  C_11
REMARK    7  A    between atoms: C_11  and  C_12
REMARK    8  A    between atoms: C_12  and  O_13
REMARK                            x       y       z     vdW  Elec       q    Type
REMARK                         _______ _______ _______ _____ _____    ______ ____
ROOT
ATOM      1  C   UNL     1      47.487   6.438  13.660  0.00  0.00    +0.000 A 
ATOM      2  C   UNL     1      46.990   6.613  12.361  0.00  0.00    +0.000 A 
ATOM      3  C   UNL     1      46.244   5.609  11.733  0.00  0.00    +0.000 A 
ATOM      4  C   UNL     1      45.930   4.422  12.411  0.00  0.00    +0.000 A 
ATOM      5  C   UNL     1      46.519   4.199  13.667  0.00  0.00    +0.000 A 
ATOM      6  C   UNL     1      47.285   5.199  14.289  0.00  0.00    +0.000 A 
ENDROOT
BRANCH   1   7
ATOM      7  C   UNL     1      48.135   7.597  14.380  0.00  0.00    +0.000 C 
BRANCH   7  10
ATOM      8  O   UNL     1      50.781   7.819  15.435  0.00  0.00    +0.000 OA
ATOM      9  C   UNL     1      49.899   7.251  16.073  0.00  0.00    +0.000 C 
ATOM     10  N   UNL     1      48.578   7.194  15.703  0.00  0.00    +0.000 N 
ATOM     11  H   UNL     1      47.967   6.558  16.193  0.00  0.00    +0.000 HD
BRANCH   9  12
ATOM     12  C   UNL     1      50.188   6.363  17.197  0.00  0.00    +0.000 A 
ATOM     13  C   UNL     1      51.131   5.352  17.126  0.00  0.00    +0.000 A 
ATOM     14  S   UNL     1      50.854   4.146  18.318  0.00  0.00    +0.000 S 
ATOM     15  C   UNL     1      49.587   5.050  19.013  0.00  0.00    +0.000 A 
ATOM     16  N   UNL     1      48.787   4.557  19.997  0.00  0.00    +0.000 NA
ATOM     17  C   UNL     1      47.926   5.408  20.453  0.00  0.00    +0.000 A 
ATOM     18  N   UNL     1      47.829   6.727  20.053  0.00  0.00    +0.000 N 
ATOM     19  C   UNL     1      48.621   7.267  19.076  0.00  0.00    +0.000 A 
ATOM     20  O   UNL     1      48.588   8.456  18.795  0.00  0.00    +0.000 OA
ATOM     21  C   UNL     1      49.495   6.300  18.444  0.00  0.00    +0.000 A 
ATOM     22  H   UNL     1      47.206   7.361  20.528  0.00  0.00    +0.000 HD
ENDBRANCH   9  12
ENDBRANCH   7  10
ENDBRANCH   1   7
BRANCH   4  23
ATOM     23  C   UNL     1      44.765   3.569  11.935  0.00  0.00    +0.000 C 
BRANCH  23  24
ATOM     24  N   UNL     1      44.045   3.917  10.720  0.00  0.00    +0.000 N 
ATOM     25  C   UNL     1      44.751   3.488   9.589  0.00  0.00    +0.000 A 
ATOM     26  N   UNL     1      45.286   2.255   9.622  0.00  0.00    +0.000 NA
ATOM     27  C   UNL     1      45.903   1.797   8.518  0.00  0.00    +0.000 A 
ATOM     28  C   UNL     1      46.053   2.537   7.378  0.00  0.00    +0.000 A 
ATOM     29  C   UNL     1      45.513   3.795   7.433  0.00  0.00    +0.000 A 
ATOM     30  N   UNL     1      44.852   4.280   8.506  0.00  0.00    +0.000 NA
BRANCH  24  31
ATOM     31  C   UNL     1      43.237   5.122  10.568  0.00  0.00    +0.000 C 
BRANCH  31  32
ATOM     32  C   UNL     1      42.464   5.418  11.876  0.00  0.00    +0.000 C 
BRANCH  32  33
ATOM     33  O   UNL     1      41.729   6.641  11.782  0.00  0.00    +0.000 OA
ATOM     34  H   UNL     1      40.794   6.414  11.926  0.00  0.00    +0.000 HD
ENDBRANCH  32  33
ENDBRANCH  31  32
ENDBRANCH  24  31
ENDBRANCH  23  24
ENDBRANCH   4  23
TORSDOF 8
ENDMDL
MODEL 6
REMARK VINA RESULT:    -6.101      2.197      2.901
REMARK INTER + INTRA:         -10.536
REMARK INTER:                  -9.744
REMARK INTRA:                  -0.792
REMARK UNBOUND:                -1.760
REMARK  Name = 
REMARK  8 active torsions:
REMARK  status: ('A' for Active; 'I' for Inactive)
REMARK    1  A    between atoms: C_2  and  C_22
REMARK    2  A    between atoms: N_3  and  C_4
REMARK    3  A    between atoms: C_4  and  C_5
REMARK    4  A    between atoms: C_8  and  C_9
REMARK    5  A    between atoms: C_9  and  N_10
REMARK    6  A    between atoms: N_10  and  C_11
REMARK    7  A    between atoms: C_11  and  C_12
REMARK    8  A    between atoms: C_12  and  O_13
REMARK                            x       y       z     vdW  Elec       q    Type
REMARK                         _______ _______ _______ _____ _____    ______ ____
ROOT
ATOM      1  C   UNL     1      48.264   6.375  14.329  0.00  0.00    +0.000 A 
ATOM      2  C   UNL     1      47.589   5.365  15.029  0.00  0.00    +0.000 A 
ATOM      3  C   UNL     1      46.530   4.664  14.439  0.00  0.00    +0.000 A 
ATOM      4  C   UNL     1      46.154   4.920  13.113  0.00  0.00    +0.000 A 
ATOM      5  C   UNL     1      46.753   6.004  12.450  0.00  0.00    +0.000 A 
ATOM      6  C   UNL     1      47.802   6.721  13.050  0.00  0.00    +0.000 A 
ENDROOT
BRANCH   1   7
ATOM      7  C   UNL     1      49.509   6.993  14.918  0.00  0.00    +0.000 C 
BRANCH   7  10
ATOM      8  O   UNL     1      50.341   6.311  17.565  0.00  0.00    +0.000 OA
ATOM      9  C   UNL     1      49.561   7.240  17.375  0.00  0.00    +0.000 C 
ATOM     10  N   UNL     1      49.195   7.715  16.139  0.00  0.00    +0.000 N 
ATOM     11  H   UNL     1      48.418   8.356  16.080  0.00  0.00    +0.000 HD
BRANCH   9  12
ATOM     12  C   UNL     1      48.743   7.813  18.441  0.00  0.00    +0.000 A 
ATOM     13  C   UNL     1      48.677   9.175  18.681  0.00  0.00    +0.000 A 
ATOM     14  S   UNL     1      48.149   9.508  20.282  0.00  0.00    +0.000 S 
ATOM     15  C   UNL     1      47.864   7.855  20.588  0.00  0.00    +0.000 A 
ATOM     16  N   UNL     1      47.538   7.383  21.822  0.00  0.00    +0.000 NA
ATOM     17  C   UNL     1      47.289   6.114  21.852  0.00  0.00    +0.000 A 
ATOM     18  N   UNL     1      47.283   5.283  20.747  0.00  0.00    +0.000 N 
ATOM     19  C   UNL     1      47.594   5.718  19.488  0.00  0.00    +0.000 A 
ATOM     20  O   UNL     1      47.497   4.996  18.507  0.00  0.00    +0.000 OA
ATOM     21  C   UNL     1      48.020   7.102  19.447  0.00  0.00    +0.000 A 
ATOM     22  H   UNL     1      46.975   4.327  20.830  0.00  0.00    +0.000 HD
ENDBRANCH   9  12
ENDBRANCH   7  10
ENDBRANCH   1   7
BRANCH   4  23
ATOM     23  C   UNL     1      45.362   3.878  12.340  0.00  0.00    +0.000 C 
BRANCH  23  24
ATOM     24  N   UNL     1      44.433   4.283  11.297  0.00  0.00    +0.000 N 
ATOM     25  C   UNL     1      44.809   3.737  10.064  0.00  0.00    +0.000 A 
ATOM     26  N   UNL     1      45.186   2.447  10.044  0.00  0.00    +0.000 NA
ATOM     27  C   UNL     1      45.478   1.884   8.859  0.00  0.00    +0.000 A 
ATOM     28  C   UNL     1      45.455   2.568   7.674  0.00  0.00    +0.000 A 
ATOM     29  C   UNL     1      45.095   3.886   7.779  0.00  0.00    +0.000 A 
ATOM     30  N   UNL     1      44.756   4.481   8.943  0.00  0.00    +0.000 NA
BRANCH  24  31
ATOM     31  C   UNL     1      43.761   5.578  11.261  0.00  0.00    +0.000 C 
BRANCH  31  32
ATOM     32  C   UNL     1      42.392   5.491  11.977  0.00  0.00    +0.000 C 
BRANCH  32  33
ATOM     33  O   UNL     1      42.550   5.389  13.394  0.00  0.00    +0.000 OA
ATOM     34  H   UNL     1      43.057   6.172  13.674  0.00  0.00    +0.000 HD
ENDBRANCH  32  33
ENDBRANCH  31  32
ENDBRANCH  24  31
ENDBRANCH  23  24
ENDBRANCH   4  23
TORSDOF 8
ENDMDL
MODEL 7
REMARK VINA RESULT:    -6.002      2.912      4.929
REMARK INTER + INTRA:         -10.394
REMARK INTER:                  -9.598
REMARK INTRA:                  -0.796
REMARK UNBOUND:                -1.760
REMARK  Name = 
REMARK  8 active torsions:
REMARK  status: ('A' for Active; 'I' for Inactive)
REMARK    1  A    between atoms: C_2  and  C_22
REMARK    2  A    between atoms: N_3  and  C_4
REMARK    3  A    between atoms: C_4  and  C_5
REMARK    4  A    between atoms: C_8  and  C_9
REMARK    5  A    between atoms: C_9  and  N_10
REMARK    6  A    between atoms: N_10  and  C_11
REMARK    7  A    between atoms: C_11  and  C_12
REMARK    8  A    between atoms: C_12  and  O_13
REMARK                            x       y       z     vdW  Elec       q    Type
REMARK                         _______ _______ _______ _____ _____    ______ ____
ROOT
ATOM      1  C   UNL     1      47.475   5.458  14.271  0.00  0.00    +0.000 A 
ATOM      2  C   UNL     1      46.884   6.069  13.156  0.00  0.00    +0.000 A 
ATOM      3  C   UNL     1      46.064   5.342  12.286  0.00  0.00    +0.000 A 
ATOM      4  C   UNL     1      45.771   3.994  12.539  0.00  0.00    +0.000 A 
ATOM      5  C   UNL     1      46.449   3.352  13.589  0.00  0.00    +0.000 A 
ATOM      6  C   UNL     1      47.288   4.079  14.451  0.00  0.00    +0.000 A 
ENDROOT
BRANCH   1   7
ATOM      7  C   UNL     1      48.209   6.299  15.288  0.00  0.00    +0.000 C 
BRANCH   7  10
ATOM      8  O   UNL     1      48.216   9.129  15.681  0.00  0.00    +0.000 OA
ATOM      9  C   UNL     1      48.919   8.617  14.815  0.00  0.00    +0.000 C 
ATOM     10  N   UNL     1      49.071   7.265  14.627  0.00  0.00    +0.000 N 
ATOM     11  H   UNL     1      49.523   6.943  13.785  0.00  0.00    +0.000 HD
BRANCH   9  12
ATOM     12  C   UNL     1      49.510   9.386  13.722  0.00  0.00    +0.000 A 
ATOM     13  C   UNL     1      48.814  10.371  13.042  0.00  0.00    +0.000 A 
ATOM     14  S   UNL     1      49.503  10.679  11.499  0.00  0.00    +0.000 S 
ATOM     15  C   UNL     1      50.803   9.620  11.810  0.00  0.00    +0.000 A 
ATOM     16  N   UNL     1      51.714   9.278  10.860  0.00  0.00    +0.000 NA
ATOM     17  C   UNL     1      52.671   8.523  11.294  0.00  0.00    +0.000 A 
ATOM     18  N   UNL     1      52.829   8.124  12.608  0.00  0.00    +0.000 N 
ATOM     19  C   UNL     1      51.943   8.455  13.597  0.00  0.00    +0.000 A 
ATOM     20  O   UNL     1      52.142   8.173  14.769  0.00  0.00    +0.000 OA
ATOM     21  C   UNL     1      50.784   9.177  13.113  0.00  0.00    +0.000 A 
ATOM     22  H   UNL     1      53.656   7.624  12.894  0.00  0.00    +0.000 HD
ENDBRANCH   9  12
ENDBRANCH   7  10
ENDBRANCH   1   7
BRANCH   4  23
ATOM     23  C   UNL     1      44.550   3.355  11.898  0.00  0.00    +0.000 C 
BRANCH  23  24
ATOM     24  N   UNL     1      44.008   3.885  10.655  0.00  0.00    +0.000 N 
ATOM     25  C   UNL     1      44.801   3.497   9.568  0.00  0.00    +0.000 A 
ATOM     26  N   UNL     1      45.220   2.220   9.528  0.00  0.00    +0.000 NA
ATOM     27  C   UNL     1      45.918   1.810   8.455  0.00  0.00    +0.000 A 
ATOM     28  C   UNL     1      46.264   2.636   7.421  0.00  0.00    +0.000 A 
ATOM     29  C   UNL     1      45.832   3.930   7.549  0.00  0.00    +0.000 A 
ATOM     30  N   UNL     1      45.095   4.374   8.591  0.00  0.00    +0.000 NA
BRANCH  24  31
ATOM     31  C   UNL     1      43.331   5.173  10.544  0.00  0.00    +0.000 C 
BRANCH  31  32
ATOM     32  C   UNL     1      42.390   5.389  11.754  0.00  0.00    +0.000 C 
BRANCH  32  33
ATOM     33  O   UNL     1      41.813   6.698  11.739  0.00  0.00    +0.000 OA
ATOM     34  H   UNL     1      41.063   6.677  12.358  0.00  0.00    +0.000 HD
ENDBRANCH  32  33
ENDBRANCH  31  32
ENDBRANCH  24  31
ENDBRANCH  23  24
ENDBRANCH   4  23
TORSDOF 8
ENDMDL
MODEL 8
REMARK VINA RESULT:    -5.640      2.015      2.453
REMARK INTER + INTRA:          -9.873
REMARK INTER:                  -8.358
REMARK INTRA:                  -1.515
REMARK UNBOUND:                -1.760
REMARK  Name = 
REMARK  8 active torsions:
REMARK  status: ('A' for Active; 'I' for Inactive)
REMARK    1  A    between atoms: C_2  and  C_22
REMARK    2  A    between atoms: N_3  and  C_4
REMARK    3  A    between atoms: C_4  and  C_5
REMARK    4  A    between atoms: C_8  and  C_9
REMARK    5  A    between atoms: C_9  and  N_10
REMARK    6  A    between atoms: N_10  and  C_11
REMARK    7  A    between atoms: C_11  and  C_12
REMARK    8  A    between atoms: C_12  and  O_13
REMARK                            x       y       z     vdW  Elec       q    Type
REMARK                         _______ _______ _______ _____ _____    ______ ____
ROOT
ATOM      1  C   UNL     1      49.128   8.510  14.298  0.00  0.00    +0.000 A 
ATOM      2  C   UNL     1      47.846   9.077  14.281  0.00  0.00    +0.000 A 
ATOM      3  C   UNL     1      46.878   8.641  13.369  0.00  0.00    +0.000 A 
ATOM      4  C   UNL     1      47.151   7.588  12.484  0.00  0.00    +0.000 A 
ATOM      5  C   UNL     1      48.466   7.096  12.424  0.00  0.00    +0.000 A 
ATOM      6  C   UNL     1      49.444   7.548  13.326  0.00  0.00    +0.000 A 
ENDROOT
BRANCH   1   7
ATOM      7  C   UNL     1      50.094   8.872  15.401  0.00  0.00    +0.000 C 
BRANCH   7  10
ATOM      8  O   UNL     1      48.416   8.575  17.694  0.00  0.00    +0.000 OA
ATOM      9  C   UNL     1      49.370   7.821  17.515  0.00  0.00    +0.000 C 
ATOM     10  N   UNL     1      50.160   7.812  16.392  0.00  0.00    +0.000 N 
ATOM     11  H   UNL     1      51.020   7.285  16.413  0.00  0.00    +0.000 HD
BRANCH   9  12
ATOM     12  C   UNL     1      49.926   6.989  18.579  0.00  0.00    +0.000 A 
ATOM     13  C   UNL     1      50.184   7.476  19.849  0.00  0.00    +0.000 A 
ATOM     14  S   UNL     1      51.333   6.502  20.676  0.00  0.00    +0.000 S 
ATOM     15  C   UNL     1      51.359   5.363  19.408  0.00  0.00    +0.000 A 
ATOM     16  N   UNL     1      52.239   4.327  19.370  0.00  0.00    +0.000 NA
ATOM     17  C   UNL     1      52.066   3.523  18.370  0.00  0.00    +0.000 A 
ATOM     18  N   UNL     1      51.055   3.632  17.435  0.00  0.00    +0.000 N 
ATOM     19  C   UNL     1      50.141   4.651  17.442  0.00  0.00    +0.000 A 
ATOM     20  O   UNL     1      49.199   4.686  16.665  0.00  0.00    +0.000 OA
ATOM     21  C   UNL     1      50.399   5.647  18.463  0.00  0.00    +0.000 A 
ATOM     22  H   UNL     1      50.917   2.910  16.746  0.00  0.00    +0.000 HD
ENDBRANCH   9  12
ENDBRANCH   7  10
ENDBRANCH   1   7
BRANCH   4  23
ATOM     23  C   UNL     1      46.004   6.818  11.851  0.00  0.00    +0.000 C 
BRANCH  23  24
ATOM     24  N   UNL     1      45.913   5.374  12.002  0.00  0.00    +0.000 N 
ATOM     25  C   UNL     1      45.428   4.786  10.828  0.00  0.00    +0.000 A 
ATOM     26  N   UNL     1      45.931   5.223   9.660  0.00  0.00    +0.000 NA
ATOM     27  C   UNL     1      45.533   4.619   8.526  0.00  0.00    +0.000 A 
ATOM     28  C   UNL     1      44.609   3.610   8.495  0.00  0.00    +0.000 A 
ATOM     29  C   UNL     1      44.116   3.244   9.720  0.00  0.00    +0.000 A 
ATOM     30  N   UNL     1      44.517   3.797  10.885  0.00  0.00    +0.000 NA
BRANCH  24  31
ATOM     31  C   UNL     1      45.579   4.705  13.255  0.00  0.00    +0.000 C 
BRANCH  31  32
ATOM     32  C   UNL     1      46.842   4.050  13.865  0.00  0.00    +0.000 C 
BRANCH  32  33
ATOM     33  O   UNL     1      46.742   3.950  15.288  0.00  0.00    +0.000 OA
ATOM     34  H   UNL     1      47.653   3.940  15.630  0.00  0.00    +0.000 HD
ENDBRANCH  32  33
ENDBRANCH  31  32
ENDBRANCH  24  31
ENDBRANCH  23  24
ENDBRANCH   4  23
TORSDOF 8
ENDMDL
MODEL 9
REMARK VINA RESULT:    -5.618      3.392      8.650
REMARK INTER + INTRA:          -9.841
REMARK INTER:                  -8.892
REMARK INTRA:                  -0.949
REMARK UNBOUND:                -1.760
REMARK  Name = 
REMARK  8 active torsions:
REMARK  status: ('A' for Active; 'I' for Inactive)
REMARK    1  A    between atoms: C_2  and  C_22
REMARK    2  A    between atoms: N_3  and  C_4
REMARK    3  A    between atoms: C_4  and  C_5
REMARK    4  A    between atoms: C_8  and  C_9
REMARK    5  A    between atoms: C_9  and  N_10
REMARK    6  A    between atoms: N_10  and  C_11
REMARK    7  A    between atoms: C_11  and  C_12
REMARK    8  A    between atoms: C_12  and  O_13
REMARK                            x       y       z     vdW  Elec       q    Type
REMARK                         _______ _______ _______ _____ _____    ______ ____
ROOT
ATOM      1  C   UNL     1      48.225   6.974  14.352  0.00  0.00    +0.000 A 
ATOM      2  C   UNL     1      47.677   5.752  14.767  0.00  0.00    +0.000 A 
ATOM      3  C   UNL     1      48.200   5.065  15.869  0.00  0.00    +0.000 A 
ATOM      4  C   UNL     1      49.254   5.610  16.617  0.00  0.00    +0.000 A 
ATOM      5  C   UNL     1      49.876   6.775  16.138  0.00  0.00    +0.000 A 
ATOM      6  C   UNL     1      49.363   7.454  15.020  0.00  0.00    +0.000 A 
ENDROOT
BRANCH   1   7
ATOM      7  C   UNL     1      47.537   7.779  13.276  0.00  0.00    +0.000 C 
BRANCH   7  10
ATOM      8  O   UNL     1      45.005   7.641  11.959  0.00  0.00    +0.000 OA
ATOM      9  C   UNL     1      45.912   6.870  11.654  0.00  0.00    +0.000 C 
ATOM     10  N   UNL     1      47.192   6.934  12.146  0.00  0.00    +0.000 N 
ATOM     11  H   UNL     1      47.813   6.157  11.976  0.00  0.00    +0.000 HD
BRANCH   9  12
ATOM     12  C   UNL     1      45.680   5.642  10.898  0.00  0.00    +0.000 A 
ATOM     13  C   UNL     1      45.931   5.544   9.540  0.00  0.00    +0.000 A 
ATOM     14  S   UNL     1      45.050   4.251   8.828  0.00  0.00    +0.000 S 
ATOM     15  C   UNL     1      44.471   3.740  10.348  0.00  0.00    +0.000 A 
ATOM     16  N   UNL     1      43.533   2.764  10.485  0.00  0.00    +0.000 NA
ATOM     17  C   UNL     1      43.267   2.457  11.714  0.00  0.00    +0.000 A 
ATOM     18  N   UNL     1      43.895   3.001  12.819  0.00  0.00    +0.000 N 
ATOM     19  C   UNL     1      44.851   3.976  12.725  0.00  0.00    +0.000 A 
ATOM     20  O   UNL     1      45.462   4.383  13.702  0.00  0.00    +0.000 OA
ATOM     21  C   UNL     1      45.065   4.443  11.371  0.00  0.00    +0.000 A 
ATOM     22  H   UNL     1      43.712   2.637  13.741  0.00  0.00    +0.000 HD
ENDBRANCH   9  12
ENDBRANCH   7  10
ENDBRANCH   1   7
BRANCH   4  23
ATOM     23  C   UNL     1      49.498   5.127  18.038  0.00  0.00    +0.000 C 
BRANCH  23  24
ATOM     24  N   UNL     1      49.694   6.082  19.117  0.00  0.00    +0.000 N 
ATOM     25  C   UNL     1      50.557   5.557  20.088  0.00  0.00    +0.000 A 
ATOM     26  N   UNL     1      51.661   4.920  19.659  0.00  0.00    +0.000 NA
ATOM     27  C   UNL     1      52.539   4.476  20.575  0.00  0.00    +0.000 A 
ATOM     28  C   UNL     1      52.346   4.599  21.924  0.00  0.00    +0.000 A 
ATOM     29  C   UNL     1      51.183   5.227  22.284  0.00  0.00    +0.000 A 
ATOM     30  N   UNL     1      50.293   5.723  21.396  0.00  0.00    +0.000 NA
BRANCH  24  31
ATOM     31  C   UNL     1      48.667   7.006  19.586  0.00  0.00    +0.000 C 
BRANCH  31  32
ATOM     32  C   UNL     1      47.292   6.297  19.638  0.00  0.00    +0.000 C 
BRANCH  32  33
ATOM     33  O   UNL     1      47.128   5.567  20.856  0.00  0.00    +0.000 OA
ATOM     34  H   UNL     1      47.176   4.623  20.623  0.00  0.00    +0.000 HD
ENDBRANCH  32  33
ENDBRANCH  31  32
ENDBRANCH  24  31
ENDBRANCH  23  24
ENDBRANCH   4  23
TORSDOF 8
ENDMDL
