MODEL 1
REMARK VINA RESULT:    -9.115      0.000      0.000
REMARK INTER + INTRA:         -12.855
REMARK INTER:                 -12.046
REMARK INTRA:                  -0.809
REMARK UNBOUND:                -0.809
REMARK  Name = 
REMARK  7 active torsions:
REMARK  status: ('A' for Active; 'I' for Inactive)
REMARK    1  A    between atoms: C_1  and  C_2
REMARK    2  A    between atoms: C_4  and  O_5
REMARK    3  A    between atoms: O_5  and  C_6
REMARK    4  A    between atoms: C_6  and  C_7
REMARK    5  A    between atoms: C_12  and  C_13
REMARK    6  A    between atoms: C_23  and  C_24
REMARK    7  A    between atoms: C_24  and  O_26
REMARK                            x       y       z     vdW  Elec       q    Type
REMARK                         _______ _______ _______ _____ _____    ______ ____
ROOT
ATOM      1  C   UNL     1      44.964   4.470  11.744  0.00  0.00    +0.000 A 
ATOM      2  C   UNL     1      45.511   3.601  12.690  0.00  0.00    +0.000 A 
ATOM      3  C   UNL     1      46.625   3.996  13.416  0.00  0.00    +0.000 A 
ATOM      4  F   UNL     1      47.144   3.162  14.327  0.00  0.00    +0.000 F 
ATOM      5  C   UNL     1      47.214   5.244  13.222  0.00  0.00    +0.000 A 
ATOM      6  C   UNL     1      46.686   6.160  12.292  0.00  0.00    +0.000 A 
ATOM      7  C   UNL     1      45.557   5.734  11.563  0.00  0.00    +0.000 A 
ATOM      8  F   UNL     1      44.988   6.559  10.668  0.00  0.00    +0.000 F 
ENDROOT
BRANCH   6   9
ATOM      9  C   UNL     1      47.285   7.508  12.123  0.00  0.00    +0.000 A 
ATOM     10  C   UNL     1      46.575   8.683  12.432  0.00  0.00    +0.000 A 
ATOM     11  C   UNL     1      47.161   9.949  12.307  0.00  0.00    +0.000 A 
ATOM     12  C   UNL     1      48.469  10.072  11.851  0.00  0.00    +0.000 A 
ATOM     13  C   UNL     1      49.189   8.930  11.517  0.00  0.00    +0.000 A 
ATOM     14  C   UNL     1      48.605   7.667  11.656  0.00  0.00    +0.000 A 
ENDBRANCH   6   9
BRANCH   1  15
ATOM     15  C   UNL     1      43.758   4.120  10.904  0.00  0.00    +0.000 C 
BRANCH  15  16
ATOM     16  O   UNL     1      43.875   2.809  10.338  0.00  0.00    +0.000 OA
BRANCH  16  20
ATOM     17  C   UNL     1      46.841   0.217   7.674  0.00  0.00    +0.000 C 
ATOM     18  C   UNL     1      46.254   1.569   7.952  0.00  0.00    +0.000 A 
ATOM     19  N   UNL     1      45.377   1.600   8.990  0.00  0.00    +0.000 NA
ATOM     20  C   UNL     1      44.782   2.767   9.303  0.00  0.00    +0.000 A 
ATOM     21  C   UNL     1      45.026   3.944   8.623  0.00  0.00    +0.000 A 
ATOM     22  C   UNL     1      45.928   3.918   7.558  0.00  0.00    +0.000 A 
ATOM     23  C   UNL     1      46.573   2.718   7.219  0.00  0.00    +0.000 A 
BRANCH  23  24
ATOM     24  C   UNL     1      47.521   2.664   6.075  0.00  0.00    +0.000 C 
ATOM     25  O   UNL     1      47.168   2.629   4.909  0.00  0.00    +0.000 OA
BRANCH  24  26
ATOM     26  O   UNL     1      48.823   2.646   6.435  0.00  0.00    +0.000 OA
ATOM     27  H   UNL     1      49.015   2.781   7.381  0.00  0.00    +0.000 HD
ENDBRANCH  24  26
ENDBRANCH  23  24
ENDBRANCH  16  20
ENDBRANCH  15  16
ENDBRANCH   1  15
TORSDOF 6
ENDMDL
MODEL 2
REMARK VINA RESULT:    -8.367      1.787      3.098
REMARK INTER + INTRA:         -11.866
REMARK INTER:                 -11.152
REMARK INTRA:                  -0.714
REMARK UNBOUND:                -0.809
REMARK  Name = 
REMARK  7 active torsions:
REMARK  status: ('A' for Active; 'I' for Inactive)
REMARK    1  A    between atoms: C_1  and  C_2
REMARK    2  A    between atoms: C_4  and  O_5
REMARK    3  A    between atoms: O_5  and  C_6
REMARK    4  A    between atoms: C_6  and  C_7
REMARK    5  A    between atoms: C_12  and  C_13
REMARK    6  A    between atoms: C_23  and  C_24
REMARK    7  A    between atoms: C_24  and  O_26
REMARK                            x       y       z     vdW  Elec       q    Type
REMARK                         _______ _______ _______ _____ _____    ______ ____
ROOT
ATOM      1  C   UNL     1      44.686   4.233  11.735  0.00  0.00    +0.000 A 
ATOM      2  C   UNL     1      44.129   5.427  11.275  0.00  0.00    +0.000 A 
ATOM      3  C   UNL     1      44.535   6.631  11.833  0.00  0.00    +0.000 A 
ATOM      4  F   UNL     1      44.002   7.775  11.385  0.00  0.00    +0.000 F 
ATOM      5  C   UNL     1      45.491   6.675  12.847  0.00  0.00    +0.000 A 
ATOM      6  C   UNL     1      46.093   5.499  13.329  0.00  0.00    +0.000 A 
ATOM      7  C   UNL     1      45.661   4.288  12.750  0.00  0.00    +0.000 A 
ATOM      8  F   UNL     1      46.202   3.124  13.149  0.00  0.00    +0.000 F 
ENDROOT
BRANCH   6   9
ATOM      9  C   UNL     1      47.147   5.552  14.374  0.00  0.00    +0.000 A 
ATOM     10  C   UNL     1      48.166   6.523  14.356  0.00  0.00    +0.000 A 
ATOM     11  C   UNL     1      49.132   6.592  15.368  0.00  0.00    +0.000 A 
ATOM     12  C   UNL     1      49.114   5.676  16.414  0.00  0.00    +0.000 A 
ATOM     13  C   UNL     1      48.133   4.692  16.448  0.00  0.00    +0.000 A 
ATOM     14  C   UNL     1      47.161   4.636  15.444  0.00  0.00    +0.000 A 
ENDBRANCH   6   9
BRANCH   1  15
ATOM     15  C   UNL     1      44.298   2.878  11.191  0.00  0.00    +0.000 C 
BRANCH  15  16
ATOM     16  O   UNL     1      43.842   2.968   9.836  0.00  0.00    +0.000 OA
BRANCH  16  20
ATOM     17  C   UNL     1      46.859  -0.012   7.686  0.00  0.00    +0.000 C 
ATOM     18  C   UNL     1      46.373   1.400   7.830  0.00  0.00    +0.000 A 
ATOM     19  N   UNL     1      45.379   1.562   8.744  0.00  0.00    +0.000 NA
ATOM     20  C   UNL     1      44.863   2.792   8.930  0.00  0.00    +0.000 A 
ATOM     21  C   UNL     1      45.301   3.906   8.240  0.00  0.00    +0.000 A 
ATOM     22  C   UNL     1      46.322   3.744   7.303  0.00  0.00    +0.000 A 
ATOM     23  C   UNL     1      46.888   2.475   7.099  0.00  0.00    +0.000 A 
BRANCH  23  24
ATOM     24  C   UNL     1      47.963   2.278   6.091  0.00  0.00    +0.000 C 
ATOM     25  O   UNL     1      47.765   1.831   4.975  0.00  0.00    +0.000 OA
BRANCH  24  26
ATOM     26  O   UNL     1      49.195   2.629   6.518  0.00  0.00    +0.000 OA
ATOM     27  H   UNL     1      49.686   1.960   7.029  0.00  0.00    +0.000 HD
ENDBRANCH  24  26
ENDBRANCH  23  24
ENDBRANCH  16  20
ENDBRANCH  15  16
ENDBRANCH   1  15
TORSDOF 6
ENDMDL
MODEL 3
REMARK VINA RESULT:    -8.241      3.257      6.799
REMARK INTER + INTRA:         -11.700
REMARK INTER:                 -10.843
REMARK INTRA:                  -0.857
REMARK UNBOUND:                -0.809
REMARK  Name = 
REMARK  7 active torsions:
REMARK  status: ('A' for Active; 'I' for Inactive)
REMARK    1  A    between atoms: C_1  and  C_2
REMARK    2  A    between atoms: C_4  and  O_5
REMARK    3  A    between atoms: O_5  and  C_6
REMARK    4  A    between atoms: C_6  and  C_7
REMARK    5  A    between atoms: C_12  and  C_13
REMARK    6  A    between atoms: C_23  and  C_24
REMARK    7  A    between atoms: C_24  and  O_26
REMARK                            x       y       z     vdW  Elec       q    Type
REMARK                         _______ _______ _______ _____ _____    ______ ____
ROOT
ATOM      1  C   UNL     1      44.335   5.086  10.914  0.00  0.00    +0.000 A 
ATOM      2  C   UNL     1      43.569   4.149  11.610  0.00  0.00    +0.000 A 
ATOM      3  C   UNL     1      43.543   2.831  11.178  0.00  0.00    +0.000 A 
ATOM      4  F   UNL     1      42.811   1.934  11.851  0.00  0.00    +0.000 F 
ATOM      5  C   UNL     1      44.267   2.418  10.060  0.00  0.00    +0.000 A 
ATOM      6  C   UNL     1      45.068   3.324   9.339  0.00  0.00    +0.000 A 
ATOM      7  C   UNL     1      45.074   4.659   9.794  0.00  0.00    +0.000 A 
ATOM      8  F   UNL     1      45.827   5.577   9.165  0.00  0.00    +0.000 F 
ENDROOT
BRANCH   6   9
ATOM      9  C   UNL     1      45.877   2.872   8.179  0.00  0.00    +0.000 A 
ATOM     10  C   UNL     1      46.166   3.721   7.094  0.00  0.00    +0.000 A 
ATOM     11  C   UNL     1      46.963   3.299   6.024  0.00  0.00    +0.000 A 
ATOM     12  C   UNL     1      47.479   2.008   6.002  0.00  0.00    +0.000 A 
ATOM     13  C   UNL     1      47.194   1.138   7.049  0.00  0.00    +0.000 A 
ATOM     14  C   UNL     1      46.409   1.568   8.124  0.00  0.00    +0.000 A 
ENDBRANCH   6   9
BRANCH   1  15
ATOM     15  C   UNL     1      44.415   6.542  11.308  0.00  0.00    +0.000 C 
BRANCH  15  16
ATOM     16  O   UNL     1      44.959   6.700  12.624  0.00  0.00    +0.000 OA
BRANCH  16  20
ATOM     17  C   UNL     1      48.343   9.899  11.663  0.00  0.00    +0.000 C 
ATOM     18  C   UNL     1      48.017   8.520  12.156  0.00  0.00    +0.000 A 
ATOM     19  N   UNL     1      46.691   8.220  12.154  0.00  0.00    +0.000 NA
ATOM     20  C   UNL     1      46.300   7.011  12.600  0.00  0.00    +0.000 A 
ATOM     21  C   UNL     1      47.183   6.051  13.053  0.00  0.00    +0.000 A 
ATOM     22  C   UNL     1      48.545   6.355  13.054  0.00  0.00    +0.000 A 
ATOM     23  C   UNL     1      48.984   7.603  12.583  0.00  0.00    +0.000 A 
BRANCH  23  24
ATOM     24  C   UNL     1      50.428   7.953  12.595  0.00  0.00    +0.000 C 
ATOM     25  O   UNL     1      50.963   8.571  13.498  0.00  0.00    +0.000 OA
BRANCH  24  26
ATOM     26  O   UNL     1      51.109   7.535  11.505  0.00  0.00    +0.000 OA
ATOM     27  H   UNL     1      50.694   7.706  10.640  0.00  0.00    +0.000 HD
ENDBRANCH  24  26
ENDBRANCH  23  24
ENDBRANCH  16  20
ENDBRANCH  15  16
ENDBRANCH   1  15
TORSDOF 6
ENDMDL
MODEL 4
REMARK VINA RESULT:    -7.916      3.344      7.187
REMARK INTER + INTRA:         -11.270
REMARK INTER:                 -11.037
REMARK INTRA:                  -0.233
REMARK UNBOUND:                -0.809
REMARK  Name = 
REMARK  7 active torsions:
REMARK  status: ('A' for Active; 'I' for Inactive)
REMARK    1  A    between atoms: C_1  and  C_2
REMARK    2  A    between atoms: C_4  and  O_5
REMARK    3  A    between atoms: O_5  and  C_6
REMARK    4  A    between atoms: C_6  and  C_7
REMARK    5  A    between atoms: C_12  and  C_13
REMARK    6  A    between atoms: C_23  and  C_24
REMARK    7  A    between atoms: C_24  and  O_26
REMARK                            x       y       z     vdW  Elec       q    Type
REMARK                         _______ _______ _______ _____ _____    ______ ____
ROOT
ATOM      1  C   UNL     1      44.654   5.066  10.861  0.00  0.00    +0.000 A 
ATOM      2  C   UNL     1      43.799   4.187  11.530  0.00  0.00    +0.000 A 
ATOM      3  C   UNL     1      43.639   2.894  11.053  0.00  0.00    +0.000 A 
ATOM      4  F   UNL     1      42.822   2.052  11.700  0.00  0.00    +0.000 F 
ATOM      5  C   UNL     1      44.315   2.450   9.917  0.00  0.00    +0.000 A 
ATOM      6  C   UNL     1      45.200   3.295   9.222  0.00  0.00    +0.000 A 
ATOM      7  C   UNL     1      45.342   4.605   9.722  0.00  0.00    +0.000 A 
ATOM      8  F   UNL     1      46.182   5.465   9.121  0.00  0.00    +0.000 F 
ENDROOT
BRANCH   6   9
ATOM      9  C   UNL     1      45.957   2.805   8.042  0.00  0.00    +0.000 A 
ATOM     10  C   UNL     1      46.523   1.516   8.001  0.00  0.00    +0.000 A 
ATOM     11  C   UNL     1      47.200   1.048   6.869  0.00  0.00    +0.000 A 
ATOM     12  C   UNL     1      47.344   1.865   5.753  0.00  0.00    +0.000 A 
ATOM     13  C   UNL     1      46.815   3.150   5.771  0.00  0.00    +0.000 A 
ATOM     14  C   UNL     1      46.127   3.610   6.898  0.00  0.00    +0.000 A 
ENDBRANCH   6   9
BRANCH   1  15
ATOM     15  C   UNL     1      44.881   6.492  11.305  0.00  0.00    +0.000 C 
BRANCH  15  16
ATOM     16  O   UNL     1      46.269   6.842  11.252  0.00  0.00    +0.000 OA
BRANCH  16  20
ATOM     17  C   UNL     1      47.091   4.087  15.040  0.00  0.00    +0.000 C 
ATOM     18  C   UNL     1      47.347   5.398  14.357  0.00  0.00    +0.000 A 
ATOM     19  N   UNL     1      46.708   5.548  13.167  0.00  0.00    +0.000 NA
ATOM     20  C   UNL     1      46.893   6.685  12.470  0.00  0.00    +0.000 A 
ATOM     21  C   UNL     1      47.698   7.717  12.909  0.00  0.00    +0.000 A 
ATOM     22  C   UNL     1      48.355   7.569  14.132  0.00  0.00    +0.000 A 
ATOM     23  C   UNL     1      48.170   6.399  14.887  0.00  0.00    +0.000 A 
BRANCH  23  24
ATOM     24  C   UNL     1      48.875   6.212  16.181  0.00  0.00    +0.000 C 
ATOM     25  O   UNL     1      50.008   5.772  16.273  0.00  0.00    +0.000 OA
BRANCH  24  26
ATOM     26  O   UNL     1      48.149   6.565  17.265  0.00  0.00    +0.000 OA
ATOM     27  H   UNL     1      48.570   6.430  18.133  0.00  0.00    +0.000 HD
ENDBRANCH  24  26
ENDBRANCH  23  24
ENDBRANCH  16  20
ENDBRANCH  15  16
ENDBRANCH   1  15
TORSDOF 6
ENDMDL
MODEL 5
REMARK VINA RESULT:    -7.709      2.163      3.925
REMARK INTER + INTRA:         -10.997
REMARK INTER:                 -10.882
REMARK INTRA:                  -0.115
REMARK UNBOUND:                -0.809
REMARK  Name = 
REMARK  7 active torsions:
REMARK  status: ('A' for Active; 'I' for Inactive)
REMARK    1  A    between atoms: C_1  and  C_2
REMARK    2  A    between atoms: C_4  and  O_5
REMARK    3  A    between atoms: O_5  and  C_6
REMARK    4  A    between atoms: C_6  and  C_7
REMARK    5  A    between atoms: C_12  and  C_13
REMARK    6  A    between atoms: C_23  and  C_24
REMARK    7  A    between atoms: C_24  and  O_26
REMARK                            x       y       z     vdW  Elec       q    Type
REMARK                         _______ _______ _______ _____ _____    ______ ____
ROOT
ATOM      1  C   UNL     1      45.316   5.341  11.856  0.00  0.00    +0.000 A 
ATOM      2  C   UNL     1      46.055   6.307  11.171  0.00  0.00    +0.000 A 
ATOM      3  C   UNL     1      47.218   6.808  11.739  0.00  0.00    +0.000 A 
ATOM      4  F   UNL     1      47.928   7.731  11.077  0.00  0.00    +0.000 F 
ATOM      5  C   UNL     1      47.668   6.366  12.983  0.00  0.00    +0.000 A 
ATOM      6  C   UNL     1      46.965   5.380  13.701  0.00  0.00    +0.000 A 
ATOM      7  C   UNL     1      45.784   4.891  13.106  0.00  0.00    +0.000 A 
ATOM      8  F   UNL     1      45.068   3.938  13.725  0.00  0.00    +0.000 F 
ENDROOT
BRANCH   6   9
ATOM      9  C   UNL     1      47.472   4.876  15.002  0.00  0.00    +0.000 A 
ATOM     10  C   UNL     1      47.360   3.522  15.372  0.00  0.00    +0.000 A 
ATOM     11  C   UNL     1      47.876   3.048  16.583  0.00  0.00    +0.000 A 
ATOM     12  C   UNL     1      48.504   3.920  17.466  0.00  0.00    +0.000 A 
ATOM     13  C   UNL     1      48.611   5.267  17.138  0.00  0.00    +0.000 A 
ATOM     14  C   UNL     1      48.107   5.735  15.921  0.00  0.00    +0.000 A 
ENDBRANCH   6   9
BRANCH   1  15
ATOM     15  C   UNL     1      44.036   4.748  11.317  0.00  0.00    +0.000 C 
BRANCH  15  16
ATOM     16  O   UNL     1      43.951   4.889   9.894  0.00  0.00    +0.000 OA
BRANCH  16  20
ATOM     17  C   UNL     1      47.011   3.935   6.383  0.00  0.00    +0.000 C 
ATOM     18  C   UNL     1      46.214   3.403   7.537  0.00  0.00    +0.000 A 
ATOM     19  N   UNL     1      45.450   4.333   8.169  0.00  0.00    +0.000 NA
ATOM     20  C   UNL     1      44.714   3.954   9.232  0.00  0.00    +0.000 A 
ATOM     21  C   UNL     1      44.691   2.659   9.710  0.00  0.00    +0.000 A 
ATOM     22  C   UNL     1      45.472   1.701   9.063  0.00  0.00    +0.000 A 
ATOM     23  C   UNL     1      46.239   2.064   7.945  0.00  0.00    +0.000 A 
BRANCH  23  24
ATOM     24  C   UNL     1      47.094   1.064   7.254  0.00  0.00    +0.000 C 
ATOM     25  O   UNL     1      48.117   1.351   6.656  0.00  0.00    +0.000 OA
BRANCH  24  26
ATOM     26  O   UNL     1      46.638  -0.205   7.333  0.00  0.00    +0.000 OA
ATOM     27  H   UNL     1      47.059  -0.778   7.999  0.00  0.00    +0.000 HD
ENDBRANCH  24  26
ENDBRANCH  23  24
ENDBRANCH  16  20
ENDBRANCH  15  16
ENDBRANCH   1  15
TORSDOF 6
ENDMDL
MODEL 6
REMARK VINA RESULT:    -7.596      3.773      7.439
REMARK INTER + INTRA:         -10.847
REMARK INTER:                 -10.155
REMARK INTRA:                  -0.692
REMARK UNBOUND:                -0.809
REMARK  Name = 
REMARK  7 active torsions:
REMARK  status: ('A' for Active; 'I' for Inactive)
REMARK    1  A    between atoms: C_1  and  C_2
REMARK    2  A    between atoms: C_4  and  O_5
REMARK    3  A    between atoms: O_5  and  C_6
REMARK    4  A    between atoms: C_6  and  C_7
REMARK    5  A    between atoms: C_12  and  C_13
REMARK    6  A    between atoms: C_23  and  C_24
REMARK    7  A    between atoms: C_24  and  O_26
REMARK                            x       y       z     vdW  Elec       q    Type
REMARK                         _______ _______ _______ _____ _____    ______ ____
ROOT
ATOM      1  C   UNL     1      44.504   5.051  11.024  0.00  0.00    +0.000 A 
ATOM      2  C   UNL     1      43.679   4.136  11.681  0.00  0.00    +0.000 A 
ATOM      3  C   UNL     1      43.560   2.845  11.186  0.00  0.00    +0.000 A 
ATOM      4  F   UNL     1      42.772   1.969  11.822  0.00  0.00    +0.000 F 
ATOM      5  C   UNL     1      44.248   2.439  10.043  0.00  0.00    +0.000 A 
ATOM      6  C   UNL     1      45.105   3.321   9.360  0.00  0.00    +0.000 A 
ATOM      7  C   UNL     1      45.205   4.628   9.878  0.00  0.00    +0.000 A 
ATOM      8  F   UNL     1      46.016   5.522   9.287  0.00  0.00    +0.000 F 
ENDROOT
BRANCH   6   9
ATOM      9  C   UNL     1      45.874   2.871   8.172  0.00  0.00    +0.000 A 
ATOM     10  C   UNL     1      46.100   3.713   7.067  0.00  0.00    +0.000 A 
ATOM     11  C   UNL     1      46.861   3.294   5.969  0.00  0.00    +0.000 A 
ATOM     12  C   UNL     1      47.402   2.013   5.940  0.00  0.00    +0.000 A 
ATOM     13  C   UNL     1      47.178   1.151   7.008  0.00  0.00    +0.000 A 
ATOM     14  C   UNL     1      46.430   1.577   8.109  0.00  0.00    +0.000 A 
ENDBRANCH   6   9
BRANCH   1  15
ATOM     15  C   UNL     1      44.687   6.477  11.487  0.00  0.00    +0.000 C 
BRANCH  15  16
ATOM     16  O   UNL     1      45.926   6.647  12.184  0.00  0.00    +0.000 OA
BRANCH  16  20
ATOM     17  C   UNL     1      45.050  11.298  11.721  0.00  0.00    +0.000 C 
ATOM     18  C   UNL     1      46.084  10.216  11.825  0.00  0.00    +0.000 A 
ATOM     19  N   UNL     1      45.575   8.960  11.933  0.00  0.00    +0.000 NA
ATOM     20  C   UNL     1      46.427   7.923  12.053  0.00  0.00    +0.000 A 
ATOM     21  C   UNL     1      47.800   8.072  12.063  0.00  0.00    +0.000 A 
ATOM     22  C   UNL     1      48.326   9.360  11.951  0.00  0.00    +0.000 A 
ATOM     23  C   UNL     1      47.462  10.458  11.811  0.00  0.00    +0.000 A 
BRANCH  23  24
ATOM     24  C   UNL     1      48.002  11.839  11.710  0.00  0.00    +0.000 C 
ATOM     25  O   UNL     1      48.224  12.547  12.677  0.00  0.00    +0.000 OA
BRANCH  24  26
ATOM     26  O   UNL     1      48.220  12.258  10.445  0.00  0.00    +0.000 OA
ATOM     27  H   UNL     1      47.653  12.982  10.122  0.00  0.00    +0.000 HD
ENDBRANCH  24  26
ENDBRANCH  23  24
ENDBRANCH  16  20
ENDBRANCH  15  16
ENDBRANCH   1  15
TORSDOF 6
ENDMDL
MODEL 7
REMARK VINA RESULT:    -7.150      3.773      7.241
REMARK INTER + INTRA:         -10.258
REMARK INTER:                  -9.247
REMARK INTRA:                  -1.012
REMARK UNBOUND:                -0.809
REMARK  Name = 
REMARK  7 active torsions:
REMARK  status: ('A' for Active; 'I' for Inactive)
REMARK    1  A    between atoms: C_1  and  C_2
REMARK    2  A    between atoms: C_4  and  O_5
REMARK    3  A    between atoms: O_5  and  C_6
REMARK    4  A    between atoms: C_6  and  C_7
REMARK    5  A    between atoms: C_12  and  C_13
REMARK    6  A    between atoms: C_23  and  C_24
REMARK    7  A    between atoms: C_24  and  O_26
REMARK                            x       y       z     vdW  Elec       q    Type
REMARK                         _______ _______ _______ _____ _____    ______ ____
ROOT
ATOM      1  C   UNL     1      45.071   6.654  11.428  0.00  0.00    +0.000 A 
ATOM      2  C   UNL     1      43.750   6.441  11.827  0.00  0.00    +0.000 A 
ATOM      3  C   UNL     1      43.030   5.391  11.276  0.00  0.00    +0.000 A 
ATOM      4  F   UNL     1      41.764   5.188  11.665  0.00  0.00    +0.000 F 
ATOM      5  C   UNL     1      43.596   4.541  10.328  0.00  0.00    +0.000 A 
ATOM      6  C   UNL     1      44.930   4.705   9.909  0.00  0.00    +0.000 A 
ATOM      7  C   UNL     1      45.640   5.782  10.480  0.00  0.00    +0.000 A 
ATOM      8  F   UNL     1      46.923   5.993  10.140  0.00  0.00    +0.000 F 
ENDROOT
BRANCH   6   9
ATOM      9  C   UNL     1      45.546   3.768   8.937  0.00  0.00    +0.000 A 
ATOM     10  C   UNL     1      45.544   2.375   9.139  0.00  0.00    +0.000 A 
ATOM     11  C   UNL     1      46.092   1.496   8.198  0.00  0.00    +0.000 A 
ATOM     12  C   UNL     1      46.676   1.990   7.036  0.00  0.00    +0.000 A 
ATOM     13  C   UNL     1      46.713   3.363   6.818  0.00  0.00    +0.000 A 
ATOM     14  C   UNL     1      46.152   4.237   7.754  0.00  0.00    +0.000 A 
ENDBRANCH   6   9
BRANCH   1  15
ATOM     15  C   UNL     1      45.925   7.775  11.970  0.00  0.00    +0.000 C 
BRANCH  15  16
ATOM     16  O   UNL     1      46.650   7.366  13.136  0.00  0.00    +0.000 OA
BRANCH  16  20
ATOM     17  C   UNL     1      50.901   7.472  15.263  0.00  0.00    +0.000 C 
ATOM     18  C   UNL     1      50.099   7.790  14.035  0.00  0.00    +0.000 A 
ATOM     19  N   UNL     1      48.780   7.472  14.127  0.00  0.00    +0.000 NA
ATOM     20  C   UNL     1      47.983   7.702  13.066  0.00  0.00    +0.000 A 
ATOM     21  C   UNL     1      48.438   8.256  11.886  0.00  0.00    +0.000 A 
ATOM     22  C   UNL     1      49.791   8.586  11.788  0.00  0.00    +0.000 A 
ATOM     23  C   UNL     1      50.643   8.369  12.883  0.00  0.00    +0.000 A 
BRANCH  23  24
ATOM     24  C   UNL     1      52.090   8.695  12.794  0.00  0.00    +0.000 C 
ATOM     25  O   UNL     1      52.562   9.764  13.136  0.00  0.00    +0.000 OA
BRANCH  24  26
ATOM     26  O   UNL     1      52.852   7.700  12.287  0.00  0.00    +0.000 OA
ATOM     27  H   UNL     1      53.746   7.602  12.662  0.00  0.00    +0.000 HD
ENDBRANCH  24  26
ENDBRANCH  23  24
ENDBRANCH  16  20
ENDBRANCH  15  16
ENDBRANCH   1  15
TORSDOF 6
ENDMDL
MODEL 8
REMARK VINA RESULT:    -6.926      3.495      7.202
REMARK INTER + INTRA:          -9.962
REMARK INTER:                 -10.399
REMARK INTRA:                   0.437
REMARK UNBOUND:                -0.809
REMARK  Name = 
REMARK  7 active torsions:
REMARK  status: ('A' for Active; 'I' for Inactive)
REMARK    1  A    between atoms: C_1  and  C_2
REMARK    2  A    between atoms: C_4  and  O_5
REMARK    3  A    between atoms: O_5  and  C_6
REMARK    4  A    between atoms: C_6  and  C_7
REMARK    5  A    between atoms: C_12  and  C_13
REMARK    6  A    between atoms: C_23  and  C_24
REMARK    7  A    between atoms: C_24  and  O_26
REMARK                            x       y       z     vdW  Elec       q    Type
REMARK                         _______ _______ _______ _____ _____    ______ ____
ROOT
ATOM      1  C   UNL     1      45.204   6.596  11.541  0.00  0.00    +0.000 A 
ATOM      2  C   UNL     1      43.872   6.439  11.928  0.00  0.00    +0.000 A 
ATOM      3  C   UNL     1      43.092   5.469  11.315  0.00  0.00    +0.000 A 
ATOM      4  F   UNL     1      41.815   5.318  11.693  0.00  0.00    +0.000 F 
ATOM      5  C   UNL     1      43.609   4.645  10.317  0.00  0.00    +0.000 A 
ATOM      6  C   UNL     1      44.951   4.755   9.908  0.00  0.00    +0.000 A 
ATOM      7  C   UNL     1      45.722   5.751  10.542  0.00  0.00    +0.000 A 
ATOM      8  F   UNL     1      47.017   5.905  10.214  0.00  0.00    +0.000 F 
ENDROOT
BRANCH   6   9
ATOM      9  C   UNL     1      45.514   3.842   8.881  0.00  0.00    +0.000 A 
ATOM     10  C   UNL     1      45.487   2.443   9.030  0.00  0.00    +0.000 A 
ATOM     11  C   UNL     1      45.984   1.589   8.038  0.00  0.00    +0.000 A 
ATOM     12  C   UNL     1      46.539   2.115   6.876  0.00  0.00    +0.000 A 
ATOM     13  C   UNL     1      46.599   3.494   6.709  0.00  0.00    +0.000 A 
ATOM     14  C   UNL     1      46.089   4.344   7.696  0.00  0.00    +0.000 A 
ENDBRANCH   6   9
BRANCH   1  15
ATOM     15  C   UNL     1      46.122   7.630  12.149  0.00  0.00    +0.000 C 
BRANCH  15  16
ATOM     16  O   UNL     1      47.438   7.105  12.359  0.00  0.00    +0.000 OA
BRANCH  16  20
ATOM     17  C   UNL     1      48.758   6.272  16.850  0.00  0.00    +0.000 C 
ATOM     18  C   UNL     1      48.098   5.740  15.613  0.00  0.00    +0.000 A 
ATOM     19  N   UNL     1      48.076   6.609  14.568  0.00  0.00    +0.000 NA
ATOM     20  C   UNL     1      47.486   6.228  13.419  0.00  0.00    +0.000 A 
ATOM     21  C   UNL     1      46.905   4.987  13.245  0.00  0.00    +0.000 A 
ATOM     22  C   UNL     1      46.927   4.091  14.314  0.00  0.00    +0.000 A 
ATOM     23  C   UNL     1      47.547   4.456  15.519  0.00  0.00    +0.000 A 
BRANCH  23  24
ATOM     24  C   UNL     1      47.564   3.525  16.677  0.00  0.00    +0.000 C 
ATOM     25  O   UNL     1      46.607   3.345  17.410  0.00  0.00    +0.000 OA
BRANCH  24  26
ATOM     26  O   UNL     1      48.742   2.890  16.862  0.00  0.00    +0.000 OA
ATOM     27  H   UNL     1      48.841   2.389  17.691  0.00  0.00    +0.000 HD
ENDBRANCH  24  26
ENDBRANCH  23  24
ENDBRANCH  16  20
ENDBRANCH  15  16
ENDBRANCH   1  15
TORSDOF 6
ENDMDL
MODEL 9
REMARK VINA RESULT:    -6.865      5.017      7.202
REMARK INTER + INTRA:          -9.882
REMARK INTER:                  -8.886
REMARK INTRA:                  -0.996
REMARK UNBOUND:                -0.809
REMARK  Name = 
REMARK  7 active torsions:
REMARK  status: ('A' for Active; 'I' for Inactive)
REMARK    1  A    between atoms: C_1  and  C_2
REMARK    2  A    between atoms: C_4  and  O_5
REMARK    3  A    between atoms: O_5  and  C_6
REMARK    4  A    between atoms: C_6  and  C_7
REMARK    5  A    between atoms: C_12  and  C_13
REMARK    6  A    between atoms: C_23  and  C_24
REMARK    7  A    between atoms: C_24  and  O_26
REMARK                            x       y       z     vdW  Elec       q    Type
REMARK                         _______ _______ _______ _____ _____    ______ ____
ROOT
ATOM      1  C   UNL     1      48.315   5.168  16.248  0.00  0.00    +0.000 A 
ATOM      2  C   UNL     1      47.317   4.241  16.555  0.00  0.00    +0.000 A 
ATOM      3  C   UNL     1      47.581   3.230  17.468  0.00  0.00    +0.000 A 
ATOM      4  F   UNL     1      46.620   2.346  17.764  0.00  0.00    +0.000 F 
ATOM      5  C   UNL     1      48.826   3.117  18.087  0.00  0.00    +0.000 A 
ATOM      6  C   UNL     1      49.855   4.039  17.822  0.00  0.00    +0.000 A 
ATOM      7  C   UNL     1      49.564   5.055  16.888  0.00  0.00    +0.000 A 
ATOM      8  F   UNL     1      50.493   5.981  16.595  0.00  0.00    +0.000 F 
ENDROOT
BRANCH   6   9
ATOM      9  C   UNL     1      51.162   3.946  18.519  0.00  0.00    +0.000 A 
ATOM     10  C   UNL     1      51.450   4.707  19.668  0.00  0.00    +0.000 A 
ATOM     11  C   UNL     1      52.671   4.583  20.343  0.00  0.00    +0.000 A 
ATOM     12  C   UNL     1      53.644   3.708  19.874  0.00  0.00    +0.000 A 
ATOM     13  C   UNL     1      53.397   2.958  18.729  0.00  0.00    +0.000 A 
ATOM     14  C   UNL     1      52.172   3.074  18.066  0.00  0.00    +0.000 A 
ENDBRANCH   6   9
BRANCH   1  15
ATOM     15  C   UNL     1      48.117   6.296  15.262  0.00  0.00    +0.000 C 
BRANCH  15  16
ATOM     16  O   UNL     1      48.255   5.841  13.911  0.00  0.00    +0.000 OA
BRANCH  16  20
ATOM     17  C   UNL     1      44.746   3.105  12.234  0.00  0.00    +0.000 C 
ATOM     18  C   UNL     1      45.283   4.494  12.413  0.00  0.00    +0.000 A 
ATOM     19  N   UNL     1      46.490   4.555  13.037  0.00  0.00    +0.000 NA
ATOM     20  C   UNL     1      47.044   5.762  13.261  0.00  0.00    +0.000 A 
ATOM     21  C   UNL     1      46.449   6.948  12.879  0.00  0.00    +0.000 A 
ATOM     22  C   UNL     1      45.212   6.890  12.236  0.00  0.00    +0.000 A 
ATOM     23  C   UNL     1      44.616   5.645  11.977  0.00  0.00    +0.000 A 
BRANCH  23  24
ATOM     24  C   UNL     1      43.290   5.562  11.312  0.00  0.00    +0.000 C 
ATOM     25  O   UNL     1      42.232   5.687  11.903  0.00  0.00    +0.000 OA
BRANCH  24  26
ATOM     26  O   UNL     1      43.350   5.324   9.984  0.00  0.00    +0.000 OA
ATOM     27  H   UNL     1      43.460   4.395   9.712  0.00  0.00    +0.000 HD
ENDBRANCH  24  26
ENDBRANCH  23  24
ENDBRANCH  16  20
ENDBRANCH  15  16
ENDBRANCH   1  15
TORSDOF 6
ENDMDL
