MODEL 1
REMARK VINA RESULT:    -8.425      0.000      0.000
REMARK INTER + INTRA:         -12.378
REMARK INTER:                 -11.381
REMARK INTRA:                  -0.998
REMARK UNBOUND:                -0.998
REMARK  Name = 
REMARK  6 active torsions:
REMARK  status: ('A' for Active; 'I' for Inactive)
REMARK    1  A    between atoms: C_6  and  C_7
REMARK    2  A    between atoms: C_7  and  O_8
REMARK    3  A    between atoms: O_8  and  C_9
REMARK    4  A    between atoms: C_12  and  C_13
REMARK    5  A    between atoms: C_13  and  N_14
REMARK    6  A    between atoms: C_15  and  C_17
REMARK                            x       y       z     vdW  Elec       q    Type
REMARK                         _______ _______ _______ _____ _____    ______ ____
ROOT
ATOM      1  C   UNL     1      44.834   4.922  10.943  0.00  0.00    +0.000 A 
ATOM      2  C   UNL     1      45.871   5.648  10.396  0.00  0.00    +0.000 A 
ATOM      3  N   UNL     1      46.537   6.626  11.049  0.00  0.00    +0.000 NA
ATOM      4  C   UNL     1      46.139   6.888  12.309  0.00  0.00    +0.000 A 
ATOM      5  N   UNL     1      45.085   6.296  12.910  0.00  0.00    +0.000 NA
ATOM      6  C   UNL     1      44.458   5.329  12.206  0.00  0.00    +0.000 A 
ENDROOT
BRANCH   1   7
ATOM      7  O   UNL     1      44.296   3.910  10.212  0.00  0.00    +0.000 OA
BRANCH   7   8
ATOM      8  C   UNL     1      44.345   4.119   8.794  0.00  0.00    +0.000 C 
BRANCH   8  14
ATOM      9  N   UNL     1      47.539   3.229   5.373  0.00  0.00    +0.000 N 
ATOM     10  C   UNL     1      46.847   2.737   6.476  0.00  0.00    +0.000 A 
ATOM     11  C   UNL     1      47.097   1.464   6.959  0.00  0.00    +0.000 A 
ATOM     12  C   UNL     1      46.395   1.020   8.076  0.00  0.00    +0.000 A 
ATOM     13  C   UNL     1      45.473   1.866   8.680  0.00  0.00    +0.000 A 
ATOM     14  C   UNL     1      45.290   3.137   8.145  0.00  0.00    +0.000 A 
ATOM     15  N   UNL     1      45.971   3.575   7.053  0.00  0.00    +0.000 NA
ATOM     16  H   UNL     1      47.459   2.608   4.576  0.00  0.00    +0.000 HD
ATOM     17  H   UNL     1      47.157   4.150   5.171  0.00  0.00    +0.000 HD
ENDBRANCH   8  14
ENDBRANCH   7   8
ENDBRANCH   1   7
BRANCH   4  18
ATOM     18  C   UNL     1      46.919   7.919  13.095  0.00  0.00    +0.000 C 
BRANCH  18  19
ATOM     19  N   UNL     1      47.334   7.448  14.399  0.00  0.00    +0.000 N 
ATOM     20  C   UNL     1      48.561   6.868  14.576  0.00  0.00    +0.000 C 
ATOM     21  O   UNL     1      49.351   6.737  13.645  0.00  0.00    +0.000 OA
ATOM     22  H   UNL     1      46.799   7.778  15.198  0.00  0.00    +0.000 HD
BRANCH  20  23
ATOM     23  C   UNL     1      48.854   6.330  15.910  0.00  0.00    +0.000 A 
ATOM     24  C   UNL     1      49.735   6.998  16.752  0.00  0.00    +0.000 A 
ATOM     25  S   UNL     1      50.181   6.089  18.125  0.00  0.00    +0.000 S 
ATOM     26  C   UNL     1      49.173   4.799  17.661  0.00  0.00    +0.000 A 
ATOM     27  N   UNL     1      49.159   3.627  18.352  0.00  0.00    +0.000 NA
ATOM     28  C   UNL     1      48.314   2.757  17.905  0.00  0.00    +0.000 A 
ATOM     29  N   UNL     1      47.449   2.971  16.863  0.00  0.00    +0.000 N 
ATOM     30  C   UNL     1      47.401   4.154  16.165  0.00  0.00    +0.000 A 
ATOM     31  O   UNL     1      46.544   4.358  15.315  0.00  0.00    +0.000 OA
ATOM     32  C   UNL     1      48.418   5.112  16.546  0.00  0.00    +0.000 A 
ATOM     33  H   UNL     1      46.756   2.281  16.617  0.00  0.00    +0.000 HD
ENDBRANCH  20  23
ENDBRANCH  18  19
ENDBRANCH   4  18
TORSDOF 6
ENDMDL
MODEL 2
REMARK VINA RESULT:    -7.933      1.775      1.989
REMARK INTER + INTRA:         -11.714
REMARK INTER:                 -10.968
REMARK INTRA:                  -0.746
REMARK UNBOUND:                -0.998
REMARK  Name = 
REMARK  6 active torsions:
REMARK  status: ('A' for Active; 'I' for Inactive)
REMARK    1  A    between atoms: C_6  and  C_7
REMARK    2  A    between atoms: C_7  and  O_8
REMARK    3  A    between atoms: O_8  and  C_9
REMARK    4  A    between atoms: C_12  and  C_13
REMARK    5  A    between atoms: C_13  and  N_14
REMARK    6  A    between atoms: C_15  and  C_17
REMARK                            x       y       z     vdW  Elec       q    Type
REMARK                         _______ _______ _______ _____ _____    ______ ____
ROOT
ATOM      1  C   UNL     1      45.058   4.638  11.769  0.00  0.00    +0.000 A 
ATOM      2  C   UNL     1      45.529   5.872  11.370  0.00  0.00    +0.000 A 
ATOM      3  N   UNL     1      46.509   6.549  12.008  0.00  0.00    +0.000 NA
ATOM      4  C   UNL     1      47.037   5.961  13.100  0.00  0.00    +0.000 A 
ATOM      5  N   UNL     1      46.593   4.797  13.622  0.00  0.00    +0.000 NA
ATOM      6  C   UNL     1      45.611   4.169  12.941  0.00  0.00    +0.000 A 
ENDROOT
BRANCH   1   7
ATOM      7  O   UNL     1      44.123   4.023  10.997  0.00  0.00    +0.000 OA
BRANCH   7   8
ATOM      8  C   UNL     1      44.135   4.430   9.622  0.00  0.00    +0.000 C 
BRANCH   8  14
ATOM      9  N   UNL     1      47.007   3.777   5.877  0.00  0.00    +0.000 N 
ATOM     10  C   UNL     1      46.372   3.198   6.972  0.00  0.00    +0.000 A 
ATOM     11  C   UNL     1      46.584   1.868   7.293  0.00  0.00    +0.000 A 
ATOM     12  C   UNL     1      45.944   1.335   8.408  0.00  0.00    +0.000 A 
ATOM     13  C   UNL     1      45.120   2.152   9.173  0.00  0.00    +0.000 A 
ATOM     14  C   UNL     1      44.971   3.482   8.796  0.00  0.00    +0.000 A 
ATOM     15  N   UNL     1      45.592   4.007   7.706  0.00  0.00    +0.000 NA
ATOM     16  H   UNL     1      46.832   3.254   5.026  0.00  0.00    +0.000 HD
ATOM     17  H   UNL     1      46.664   4.732   5.809  0.00  0.00    +0.000 HD
ENDBRANCH   8  14
ENDBRANCH   7   8
ENDBRANCH   1   7
BRANCH   4  18
ATOM     18  C   UNL     1      48.192   6.655  13.786  0.00  0.00    +0.000 C 
BRANCH  18  19
ATOM     19  N   UNL     1      47.959   6.895  15.194  0.00  0.00    +0.000 N 
ATOM     20  C   UNL     1      48.915   6.587  16.124  0.00  0.00    +0.000 C 
ATOM     21  O   UNL     1      49.999   6.111  15.799  0.00  0.00    +0.000 OA
ATOM     22  H   UNL     1      47.184   7.508  15.432  0.00  0.00    +0.000 HD
BRANCH  20  23
ATOM     23  C   UNL     1      48.552   6.771  17.534  0.00  0.00    +0.000 A 
ATOM     24  C   UNL     1      48.316   8.047  18.032  0.00  0.00    +0.000 A 
ATOM     25  S   UNL     1      48.199   8.099  19.733  0.00  0.00    +0.000 S 
ATOM     26  C   UNL     1      48.408   6.414  19.851  0.00  0.00    +0.000 A 
ATOM     27  N   UNL     1      48.520   5.797  21.057  0.00  0.00    +0.000 NA
ATOM     28  C   UNL     1      48.633   4.511  20.987  0.00  0.00    +0.000 A 
ATOM     29  N   UNL     1      48.594   3.784  19.825  0.00  0.00    +0.000 N 
ATOM     30  C   UNL     1      48.442   4.365  18.589  0.00  0.00    +0.000 A 
ATOM     31  O   UNL     1      48.297   3.687  17.580  0.00  0.00    +0.000 OA
ATOM     32  C   UNL     1      48.440   5.814  18.606  0.00  0.00    +0.000 A 
ATOM     33  H   UNL     1      48.604   2.776  19.845  0.00  0.00    +0.000 HD
ENDBRANCH  20  23
ENDBRANCH  18  19
ENDBRANCH   4  18
TORSDOF 6
ENDMDL
MODEL 3
REMARK VINA RESULT:    -7.598      2.243      2.753
REMARK INTER + INTRA:         -11.261
REMARK INTER:                 -10.377
REMARK INTRA:                  -0.884
REMARK UNBOUND:                -0.998
REMARK  Name = 
REMARK  6 active torsions:
REMARK  status: ('A' for Active; 'I' for Inactive)
REMARK    1  A    between atoms: C_6  and  C_7
REMARK    2  A    between atoms: C_7  and  O_8
REMARK    3  A    between atoms: O_8  and  C_9
REMARK    4  A    between atoms: C_12  and  C_13
REMARK    5  A    between atoms: C_13  and  N_14
REMARK    6  A    between atoms: C_15  and  C_17
REMARK                            x       y       z     vdW  Elec       q    Type
REMARK                         _______ _______ _______ _____ _____    ______ ____
ROOT
ATOM      1  C   UNL     1      45.623   4.208  12.443  0.00  0.00    +0.000 A 
ATOM      2  C   UNL     1      46.626   3.717  13.252  0.00  0.00    +0.000 A 
ATOM      3  N   UNL     1      47.456   4.494  13.983  0.00  0.00    +0.000 NA
ATOM      4  C   UNL     1      47.271   5.826  13.893  0.00  0.00    +0.000 A 
ATOM      5  N   UNL     1      46.376   6.412  13.069  0.00  0.00    +0.000 NA
ATOM      6  C   UNL     1      45.577   5.583  12.363  0.00  0.00    +0.000 A 
ENDROOT
BRANCH   1   7
ATOM      7  O   UNL     1      44.803   3.321  11.819  0.00  0.00    +0.000 OA
BRANCH   7   8
ATOM      8  C   UNL     1      44.233   3.808  10.596  0.00  0.00    +0.000 C 
BRANCH   8  14
ATOM      9  N   UNL     1      46.406   0.494   7.950  0.00  0.00    +0.000 N 
ATOM     10  C   UNL     1      46.168   1.850   8.153  0.00  0.00    +0.000 A 
ATOM     11  C   UNL     1      46.670   2.797   7.275  0.00  0.00    +0.000 A 
ATOM     12  C   UNL     1      46.392   4.141   7.505  0.00  0.00    +0.000 A 
ATOM     13  C   UNL     1      45.613   4.496   8.600  0.00  0.00    +0.000 A 
ATOM     14  C   UNL     1      45.132   3.485   9.426  0.00  0.00    +0.000 A 
ATOM     15  N   UNL     1      45.402   2.171   9.208  0.00  0.00    +0.000 NA
ATOM     16  H   UNL     1      47.397   0.298   7.866  0.00  0.00    +0.000 HD
ATOM     17  H   UNL     1      45.991   0.001   8.737  0.00  0.00    +0.000 HD
ENDBRANCH   8  14
ENDBRANCH   7   8
ENDBRANCH   1   7
BRANCH   4  18
ATOM     18  C   UNL     1      48.129   6.718  14.763  0.00  0.00    +0.000 C 
BRANCH  18  19
ATOM     19  N   UNL     1      49.125   5.991  15.519  0.00  0.00    +0.000 N 
ATOM     20  C   UNL     1      48.954   5.754  16.857  0.00  0.00    +0.000 C 
ATOM     21  O   UNL     1      47.953   6.139  17.454  0.00  0.00    +0.000 OA
ATOM     22  H   UNL     1      49.813   5.466  14.986  0.00  0.00    +0.000 HD
BRANCH  20  23
ATOM     23  C   UNL     1      50.062   5.098  17.561  0.00  0.00    +0.000 A 
ATOM     24  C   UNL     1      50.954   5.854  18.312  0.00  0.00    +0.000 A 
ATOM     25  S   UNL     1      52.331   4.979  18.811  0.00  0.00    +0.000 S 
ATOM     26  C   UNL     1      51.751   3.554  18.083  0.00  0.00    +0.000 A 
ATOM     27  N   UNL     1      52.506   2.423  18.040  0.00  0.00    +0.000 NA
ATOM     28  C   UNL     1      51.916   1.411  17.492  0.00  0.00    +0.000 A 
ATOM     29  N   UNL     1      50.625   1.415  17.030  0.00  0.00    +0.000 N 
ATOM     30  C   UNL     1      49.815   2.523  17.091  0.00  0.00    +0.000 A 
ATOM     31  O   UNL     1      48.634   2.467  16.776  0.00  0.00    +0.000 OA
ATOM     32  C   UNL     1      50.474   3.718  17.579  0.00  0.00    +0.000 A 
ATOM     33  H   UNL     1      50.196   0.568  16.689  0.00  0.00    +0.000 HD
ENDBRANCH  20  23
ENDBRANCH  18  19
ENDBRANCH   4  18
TORSDOF 6
ENDMDL
MODEL 4
REMARK VINA RESULT:    -7.284      3.781      4.777
REMARK INTER + INTRA:         -10.836
REMARK INTER:                  -9.909
REMARK INTRA:                  -0.927
REMARK UNBOUND:                -0.998
REMARK  Name = 
REMARK  6 active torsions:
REMARK  status: ('A' for Active; 'I' for Inactive)
REMARK    1  A    between atoms: C_6  and  C_7
REMARK    2  A    between atoms: C_7  and  O_8
REMARK    3  A    between atoms: O_8  and  C_9
REMARK    4  A    between atoms: C_12  and  C_13
REMARK    5  A    between atoms: C_13  and  N_14
REMARK    6  A    between atoms: C_15  and  C_17
REMARK                            x       y       z     vdW  Elec       q    Type
REMARK                         _______ _______ _______ _____ _____    ______ ____
ROOT
ATOM      1  C   UNL     1      44.878   4.852  11.237  0.00  0.00    +0.000 A 
ATOM      2  C   UNL     1      45.756   5.776  10.710  0.00  0.00    +0.000 A 
ATOM      3  N   UNL     1      46.081   6.941  11.313  0.00  0.00    +0.000 NA
ATOM      4  C   UNL     1      45.491   7.190  12.499  0.00  0.00    +0.000 A 
ATOM      5  N   UNL     1      44.557   6.394  13.063  0.00  0.00    +0.000 NA
ATOM      6  C   UNL     1      44.274   5.246  12.411  0.00  0.00    +0.000 A 
ENDROOT
BRANCH   1   7
ATOM      7  O   UNL     1      44.695   3.681  10.571  0.00  0.00    +0.000 OA
BRANCH   7   8
ATOM      8  C   UNL     1      44.383   3.838   9.180  0.00  0.00    +0.000 C 
BRANCH   8  14
ATOM      9  N   UNL     1      47.208   3.507   5.357  0.00  0.00    +0.000 N 
ATOM     10  C   UNL     1      46.675   2.864   6.470  0.00  0.00    +0.000 A 
ATOM     11  C   UNL     1      47.049   1.568   6.786  0.00  0.00    +0.000 A 
ATOM     12  C   UNL     1      46.506   0.969   7.919  0.00  0.00    +0.000 A 
ATOM     13  C   UNL     1      45.613   1.688   8.706  0.00  0.00    +0.000 A 
ATOM     14  C   UNL     1      45.301   2.991   8.331  0.00  0.00    +0.000 A 
ATOM     15  N   UNL     1      45.826   3.580   7.225  0.00  0.00    +0.000 NA
ATOM     16  H   UNL     1      47.072   2.965   4.512  0.00  0.00    +0.000 HD
ATOM     17  H   UNL     1      46.755   4.416   5.297  0.00  0.00    +0.000 HD
ENDBRANCH   8  14
ENDBRANCH   7   8
ENDBRANCH   1   7
BRANCH   4  18
ATOM     18  C   UNL     1      45.897   8.446  13.239  0.00  0.00    +0.000 C 
BRANCH  18  19
ATOM     19  N   UNL     1      47.263   8.846  12.978  0.00  0.00    +0.000 N 
ATOM     20  C   UNL     1      47.539   9.866  12.107  0.00  0.00    +0.000 C 
ATOM     21  O   UNL     1      46.645  10.479  11.531  0.00  0.00    +0.000 OA
ATOM     22  H   UNL     1      47.970   8.518  13.629  0.00  0.00    +0.000 HD
BRANCH  20  23
ATOM     23  C   UNL     1      48.954  10.135  11.827  0.00  0.00    +0.000 A 
ATOM     24  C   UNL     1      49.415  11.444  11.764  0.00  0.00    +0.000 A 
ATOM     25  S   UNL     1      50.999  11.576  11.145  0.00  0.00    +0.000 S 
ATOM     26  C   UNL     1      51.134   9.886  10.991  0.00  0.00    +0.000 A 
ATOM     27  N   UNL     1      52.221   9.312  10.408  0.00  0.00    +0.000 NA
ATOM     28  C   UNL     1      52.199   8.020  10.401  0.00  0.00    +0.000 A 
ATOM     29  N   UNL     1      51.215   7.251  10.966  0.00  0.00    +0.000 N 
ATOM     30  C   UNL     1      50.121   7.789  11.600  0.00  0.00    +0.000 A 
ATOM     31  O   UNL     1      49.317   7.083  12.193  0.00  0.00    +0.000 OA
ATOM     32  C   UNL     1      50.036   9.233  11.521  0.00  0.00    +0.000 A 
ATOM     33  H   UNL     1      51.299   6.247  11.000  0.00  0.00    +0.000 HD
ENDBRANCH  20  23
ENDBRANCH  18  19
ENDBRANCH   4  18
TORSDOF 6
ENDMDL
MODEL 5
REMARK VINA RESULT:    -7.164      3.371      8.065
REMARK INTER + INTRA:         -10.675
REMARK INTER:                 -10.077
REMARK INTRA:                  -0.598
REMARK UNBOUND:                -0.998
REMARK  Name = 
REMARK  6 active torsions:
REMARK  status: ('A' for Active; 'I' for Inactive)
REMARK    1  A    between atoms: C_6  and  C_7
REMARK    2  A    between atoms: C_7  and  O_8
REMARK    3  A    between atoms: O_8  and  C_9
REMARK    4  A    between atoms: C_12  and  C_13
REMARK    5  A    between atoms: C_13  and  N_14
REMARK    6  A    between atoms: C_15  and  C_17
REMARK                            x       y       z     vdW  Elec       q    Type
REMARK                         _______ _______ _______ _____ _____    ______ ____
ROOT
ATOM      1  C   UNL     1      49.335   6.699  16.427  0.00  0.00    +0.000 A 
ATOM      2  C   UNL     1      48.507   5.963  15.605  0.00  0.00    +0.000 A 
ATOM      3  N   UNL     1      48.141   6.345  14.362  0.00  0.00    +0.000 NA
ATOM      4  C   UNL     1      48.628   7.524  13.926  0.00  0.00    +0.000 A 
ATOM      5  N   UNL     1      49.377   8.359  14.678  0.00  0.00    +0.000 NA
ATOM      6  C   UNL     1      49.707   7.922  15.912  0.00  0.00    +0.000 A 
ENDROOT
BRANCH   1   7
ATOM      7  O   UNL     1      49.694   6.168  17.626  0.00  0.00    +0.000 OA
BRANCH   7   8
ATOM      8  C   UNL     1      51.076   5.796  17.715  0.00  0.00    +0.000 C 
BRANCH   8  14
ATOM      9  N   UNL     1      49.308   1.595  16.326  0.00  0.00    +0.000 N 
ATOM     10  C   UNL     1      50.345   2.267  16.966  0.00  0.00    +0.000 A 
ATOM     11  C   UNL     1      51.453   1.581  17.434  0.00  0.00    +0.000 A 
ATOM     12  C   UNL     1      52.475   2.295  18.052  0.00  0.00    +0.000 A 
ATOM     13  C   UNL     1      52.361   3.675  18.174  0.00  0.00    +0.000 A 
ATOM     14  C   UNL     1      51.225   4.294  17.663  0.00  0.00    +0.000 A 
ATOM     15  N   UNL     1      50.223   3.601  17.061  0.00  0.00    +0.000 NA
ATOM     16  H   UNL     1      48.946   0.839  16.896  0.00  0.00    +0.000 HD
ATOM     17  H   UNL     1      48.591   2.286  16.120  0.00  0.00    +0.000 HD
ENDBRANCH   8  14
ENDBRANCH   7   8
ENDBRANCH   1   7
BRANCH   4  18
ATOM     18  C   UNL     1      48.305   7.940  12.508  0.00  0.00    +0.000 C 
BRANCH  18  19
ATOM     19  N   UNL     1      47.694   6.885  11.729  0.00  0.00    +0.000 N 
ATOM     20  C   UNL     1      46.331   6.779  11.641  0.00  0.00    +0.000 C 
ATOM     21  O   UNL     1      45.587   7.575  12.207  0.00  0.00    +0.000 OA
ATOM     22  H   UNL     1      48.293   6.393  11.072  0.00  0.00    +0.000 HD
BRANCH  20  23
ATOM     23  C   UNL     1      45.801   5.620  10.914  0.00  0.00    +0.000 A 
ATOM     24  C   UNL     1      45.900   5.563   9.529  0.00  0.00    +0.000 A 
ATOM     25  S   UNL     1      44.981   4.304   8.835  0.00  0.00    +0.000 S 
ATOM     26  C   UNL     1      44.466   3.768  10.366  0.00  0.00    +0.000 A 
ATOM     27  N   UNL     1      43.552   2.769  10.496  0.00  0.00    +0.000 NA
ATOM     28  C   UNL     1      43.291   2.444  11.720  0.00  0.00    +0.000 A 
ATOM     29  N   UNL     1      43.897   2.993  12.821  0.00  0.00    +0.000 N 
ATOM     30  C   UNL     1      44.854   3.975  12.733  0.00  0.00    +0.000 A 
ATOM     31  O   UNL     1      45.458   4.367  13.722  0.00  0.00    +0.000 OA
ATOM     32  C   UNL     1      45.087   4.462  11.388  0.00  0.00    +0.000 A 
ATOM     33  H   UNL     1      43.709   2.637  13.746  0.00  0.00    +0.000 HD
ENDBRANCH  20  23
ENDBRANCH  18  19
ENDBRANCH   4  18
TORSDOF 6
ENDMDL
MODEL 6
REMARK VINA RESULT:    -6.878      2.708      8.223
REMARK INTER + INTRA:         -10.288
REMARK INTER:                  -9.819
REMARK INTRA:                  -0.469
REMARK UNBOUND:                -0.998
REMARK  Name = 
REMARK  6 active torsions:
REMARK  status: ('A' for Active; 'I' for Inactive)
REMARK    1  A    between atoms: C_6  and  C_7
REMARK    2  A    between atoms: C_7  and  O_8
REMARK    3  A    between atoms: O_8  and  C_9
REMARK    4  A    between atoms: C_12  and  C_13
REMARK    5  A    between atoms: C_13  and  N_14
REMARK    6  A    between atoms: C_15  and  C_17
REMARK                            x       y       z     vdW  Elec       q    Type
REMARK                         _______ _______ _______ _____ _____    ______ ____
ROOT
ATOM      1  C   UNL     1      50.162   7.217  15.422  0.00  0.00    +0.000 A 
ATOM      2  C   UNL     1      48.911   6.681  15.201  0.00  0.00    +0.000 A 
ATOM      3  N   UNL     1      48.221   6.820  14.047  0.00  0.00    +0.000 NA
ATOM      4  C   UNL     1      48.817   7.535  13.072  0.00  0.00    +0.000 A 
ATOM      5  N   UNL     1      50.000   8.170  13.213  0.00  0.00    +0.000 NA
ATOM      6  C   UNL     1      50.639   7.995  14.389  0.00  0.00    +0.000 A 
ENDROOT
BRANCH   1   7
ATOM      7  O   UNL     1      50.787   6.939  16.597  0.00  0.00    +0.000 OA
BRANCH   7   8
ATOM      8  C   UNL     1      49.906   6.499  17.641  0.00  0.00    +0.000 C 
BRANCH   8  14
ATOM      9  N   UNL     1      47.046   2.689  17.659  0.00  0.00    +0.000 N 
ATOM     10  C   UNL     1      48.354   3.162  17.622  0.00  0.00    +0.000 A 
ATOM     11  C   UNL     1      49.421   2.288  17.495  0.00  0.00    +0.000 A 
ATOM     12  C   UNL     1      50.712   2.806  17.444  0.00  0.00    +0.000 A 
ATOM     13  C   UNL     1      50.894   4.182  17.512  0.00  0.00    +0.000 A 
ATOM     14  C   UNL     1      49.771   4.995  17.622  0.00  0.00    +0.000 A 
ATOM     15  N   UNL     1      48.509   4.495  17.675  0.00  0.00    +0.000 NA
ATOM     16  H   UNL     1      46.921   1.991  18.383  0.00  0.00    +0.000 HD
ATOM     17  H   UNL     1      46.444   3.496  17.807  0.00  0.00    +0.000 HD
ENDBRANCH   8  14
ENDBRANCH   7   8
ENDBRANCH   1   7
BRANCH   4  18
ATOM     18  C   UNL     1      48.107   7.638  11.740  0.00  0.00    +0.000 C 
BRANCH  18  19
ATOM     19  N   UNL     1      47.138   6.585  11.526  0.00  0.00    +0.000 N 
ATOM     20  C   UNL     1      45.798   6.867  11.479  0.00  0.00    +0.000 C 
ATOM     21  O   UNL     1      45.378   8.013  11.605  0.00  0.00    +0.000 OA
ATOM     22  H   UNL     1      47.492   5.699  11.178  0.00  0.00    +0.000 HD
BRANCH  20  23
ATOM     23  C   UNL     1      44.885   5.725  11.360  0.00  0.00    +0.000 A 
ATOM     24  C   UNL     1      43.921   5.499  12.336  0.00  0.00    +0.000 A 
ATOM     25  S   UNL     1      43.154   3.982  12.193  0.00  0.00    +0.000 S 
ATOM     26  C   UNL     1      44.050   3.604  10.796  0.00  0.00    +0.000 A 
ATOM     27  N   UNL     1      43.962   2.380  10.208  0.00  0.00    +0.000 NA
ATOM     28  C   UNL     1      44.669   2.256   9.133  0.00  0.00    +0.000 A 
ATOM     29  N   UNL     1      45.414   3.258   8.566  0.00  0.00    +0.000 N 
ATOM     30  C   UNL     1      45.497   4.520   9.105  0.00  0.00    +0.000 A 
ATOM     31  O   UNL     1      46.076   5.425   8.520  0.00  0.00    +0.000 OA
ATOM     32  C   UNL     1      44.826   4.670  10.380  0.00  0.00    +0.000 A 
ATOM     33  H   UNL     1      45.876   3.121   7.681  0.00  0.00    +0.000 HD
ENDBRANCH  20  23
ENDBRANCH  18  19
ENDBRANCH   4  18
TORSDOF 6
ENDMDL
MODEL 7
REMARK VINA RESULT:    -6.819      2.369      3.321
REMARK INTER + INTRA:         -10.209
REMARK INTER:                  -9.433
REMARK INTRA:                  -0.775
REMARK UNBOUND:                -0.998
REMARK  Name = 
REMARK  6 active torsions:
REMARK  status: ('A' for Active; 'I' for Inactive)
REMARK    1  A    between atoms: C_6  and  C_7
REMARK    2  A    between atoms: C_7  and  O_8
REMARK    3  A    between atoms: O_8  and  C_9
REMARK    4  A    between atoms: C_12  and  C_13
REMARK    5  A    between atoms: C_13  and  N_14
REMARK    6  A    between atoms: C_15  and  C_17
REMARK                            x       y       z     vdW  Elec       q    Type
REMARK                         _______ _______ _______ _____ _____    ______ ____
ROOT
ATOM      1  C   UNL     1      44.782   3.540  11.446  0.00  0.00    +0.000 A 
ATOM      2  C   UNL     1      45.762   2.853  12.132  0.00  0.00    +0.000 A 
ATOM      3  N   UNL     1      46.356   3.306  13.258  0.00  0.00    +0.000 NA
ATOM      4  C   UNL     1      45.950   4.508  13.712  0.00  0.00    +0.000 A 
ATOM      5  N   UNL     1      45.060   5.298  13.073  0.00  0.00    +0.000 NA
ATOM      6  C   UNL     1      44.503   4.791  11.953  0.00  0.00    +0.000 A 
ENDROOT
BRANCH   1   7
ATOM      7  O   UNL     1      44.205   2.941  10.370  0.00  0.00    +0.000 OA
BRANCH   7   8
ATOM      8  C   UNL     1      44.430   3.622   9.128  0.00  0.00    +0.000 C 
BRANCH   8  14
ATOM      9  N   UNL     1      46.648  -0.398   7.854  0.00  0.00    +0.000 N 
ATOM     10  C   UNL     1      46.599   0.989   7.746  0.00  0.00    +0.000 A 
ATOM     11  C   UNL     1      47.476   1.667   6.916  0.00  0.00    +0.000 A 
ATOM     12  C   UNL     1      47.379   3.052   6.824  0.00  0.00    +0.000 A 
ATOM     13  C   UNL     1      46.402   3.715   7.557  0.00  0.00    +0.000 A 
ATOM     14  C   UNL     1      45.547   2.962   8.356  0.00  0.00    +0.000 A 
ATOM     15  N   UNL     1      45.639   1.609   8.451  0.00  0.00    +0.000 NA
ATOM     16  H   UNL     1      47.576  -0.719   8.107  0.00  0.00    +0.000 HD
ATOM     17  H   UNL     1      45.955  -0.664   8.549  0.00  0.00    +0.000 HD
ENDBRANCH   8  14
ENDBRANCH   7   8
ENDBRANCH   1   7
BRANCH   4  18
ATOM     18  C   UNL     1      46.535   5.005  15.015  0.00  0.00    +0.000 C 
BRANCH  18  19
ATOM     19  N   UNL     1      47.761   4.330  15.383  0.00  0.00    +0.000 N 
ATOM     20  C   UNL     1      48.090   4.145  16.700  0.00  0.00    +0.000 C 
ATOM     21  O   UNL     1      47.357   4.532  17.606  0.00  0.00    +0.000 OA
ATOM     22  H   UNL     1      48.230   3.800  14.655  0.00  0.00    +0.000 HD
BRANCH  20  23
ATOM     23  C   UNL     1      49.399   3.543  16.978  0.00  0.00    +0.000 A 
ATOM     24  C   UNL     1      49.608   2.191  16.737  0.00  0.00    +0.000 A 
ATOM     25  S   UNL     1      51.073   1.605  17.387  0.00  0.00    +0.000 S 
ATOM     26  C   UNL     1      51.493   3.150  17.964  0.00  0.00    +0.000 A 
ATOM     27  N   UNL     1      52.602   3.343  18.728  0.00  0.00    +0.000 NA
ATOM     28  C   UNL     1      52.812   4.576  19.057  0.00  0.00    +0.000 A 
ATOM     29  N   UNL     1      52.044   5.636  18.650  0.00  0.00    +0.000 N 
ATOM     30  C   UNL     1      50.940   5.489  17.845  0.00  0.00    +0.000 A 
ATOM     31  O   UNL     1      50.339   6.460  17.405  0.00  0.00    +0.000 OA
ATOM     32  C   UNL     1      50.589   4.113  17.557  0.00  0.00    +0.000 A 
ATOM     33  H   UNL     1      52.310   6.583  18.872  0.00  0.00    +0.000 HD
ENDBRANCH  20  23
ENDBRANCH  18  19
ENDBRANCH   4  18
TORSDOF 6
ENDMDL
MODEL 8
REMARK VINA RESULT:    -6.641      3.881      8.824
REMARK INTER + INTRA:          -9.968
REMARK INTER:                  -9.159
REMARK INTRA:                  -0.808
REMARK UNBOUND:                -0.998
REMARK  Name = 
REMARK  6 active torsions:
REMARK  status: ('A' for Active; 'I' for Inactive)
REMARK    1  A    between atoms: C_6  and  C_7
REMARK    2  A    between atoms: C_7  and  O_8
REMARK    3  A    between atoms: O_8  and  C_9
REMARK    4  A    between atoms: C_12  and  C_13
REMARK    5  A    between atoms: C_13  and  N_14
REMARK    6  A    between atoms: C_15  and  C_17
REMARK                            x       y       z     vdW  Elec       q    Type
REMARK                         _______ _______ _______ _____ _____    ______ ____
ROOT
ATOM      1  C   UNL     1      49.991   5.913  18.869  0.00  0.00    +0.000 A 
ATOM      2  C   UNL     1      50.304   5.239  17.707  0.00  0.00    +0.000 A 
ATOM      3  N   UNL     1      49.424   4.487  17.009  0.00  0.00    +0.000 NA
ATOM      4  C   UNL     1      48.174   4.405  17.505  0.00  0.00    +0.000 A 
ATOM      5  N   UNL     1      47.786   4.957  18.675  0.00  0.00    +0.000 NA
ATOM      6  C   UNL     1      48.710   5.694  19.327  0.00  0.00    +0.000 A 
ENDROOT
BRANCH   1   7
ATOM      7  O   UNL     1      50.943   6.701  19.435  0.00  0.00    +0.000 OA
BRANCH   7   8
ATOM      8  C   UNL     1      50.597   8.092  19.490  0.00  0.00    +0.000 C 
BRANCH   8  14
ATOM      9  N   UNL     1      47.653   9.502  16.019  0.00  0.00    +0.000 N 
ATOM     10  C   UNL     1      48.973   9.340  16.433  0.00  0.00    +0.000 A 
ATOM     11  C   UNL     1      50.023   9.753  15.630  0.00  0.00    +0.000 A 
ATOM     12  C   UNL     1      51.326   9.589  16.091  0.00  0.00    +0.000 A 
ATOM     13  C   UNL     1      51.537   9.027  17.345  0.00  0.00    +0.000 A 
ATOM     14  C   UNL     1      50.430   8.653  18.099  0.00  0.00    +0.000 A 
ATOM     15  N   UNL     1      49.155   8.808  17.652  0.00  0.00    +0.000 NA
ATOM     16  H   UNL     1      47.493   9.079  15.112  0.00  0.00    +0.000 HD
ATOM     17  H   UNL     1      47.066   9.085  16.737  0.00  0.00    +0.000 HD
ENDBRANCH   8  14
ENDBRANCH   7   8
ENDBRANCH   1   7
BRANCH   4  18
ATOM     18  C   UNL     1      47.144   3.640  16.703  0.00  0.00    +0.000 C 
BRANCH  18  19
ATOM     19  N   UNL     1      46.561   4.419  15.633  0.00  0.00    +0.000 N 
ATOM     20  C   UNL     1      46.738   4.054  14.325  0.00  0.00    +0.000 C 
ATOM     21  O   UNL     1      47.385   3.057  14.018  0.00  0.00    +0.000 OA
ATOM     22  H   UNL     1      45.834   5.081  15.890  0.00  0.00    +0.000 HD
BRANCH  20  23
ATOM     23  C   UNL     1      46.196   4.959  13.304  0.00  0.00    +0.000 A 
ATOM     24  C   UNL     1      46.925   6.072  12.903  0.00  0.00    +0.000 A 
ATOM     25  S   UNL     1      46.027   7.159  11.941  0.00  0.00    +0.000 S 
ATOM     26  C   UNL     1      44.657   6.150  11.991  0.00  0.00    +0.000 A 
ATOM     27  N   UNL     1      43.471   6.539  11.450  0.00  0.00    +0.000 NA
ATOM     28  C   UNL     1      42.535   5.652  11.529  0.00  0.00    +0.000 A 
ATOM     29  N   UNL     1      42.691   4.395  12.054  0.00  0.00    +0.000 N 
ATOM     30  C   UNL     1      43.881   3.948  12.574  0.00  0.00    +0.000 A 
ATOM     31  O   UNL     1      44.024   2.786  12.933  0.00  0.00    +0.000 OA
ATOM     32  C   UNL     1      44.925   4.951  12.625  0.00  0.00    +0.000 A 
ATOM     33  H   UNL     1      41.943   3.720  12.010  0.00  0.00    +0.000 HD
ENDBRANCH  20  23
ENDBRANCH  18  19
ENDBRANCH   4  18
TORSDOF 6
ENDMDL
MODEL 9
REMARK VINA RESULT:    -6.598      3.060      9.163
REMARK INTER + INTRA:          -9.909
REMARK INTER:                  -9.034
REMARK INTRA:                  -0.875
REMARK UNBOUND:                -0.998
REMARK  Name = 
REMARK  6 active torsions:
REMARK  status: ('A' for Active; 'I' for Inactive)
REMARK    1  A    between atoms: C_6  and  C_7
REMARK    2  A    between atoms: C_7  and  O_8
REMARK    3  A    between atoms: O_8  and  C_9
REMARK    4  A    between atoms: C_12  and  C_13
REMARK    5  A    between atoms: C_13  and  N_14
REMARK    6  A    between atoms: C_15  and  C_17
REMARK                            x       y       z     vdW  Elec       q    Type
REMARK                         _______ _______ _______ _____ _____    ______ ____
ROOT
ATOM      1  C   UNL     1      49.159   8.030  15.896  0.00  0.00    +0.000 A 
ATOM      2  C   UNL     1      49.525   6.935  15.142  0.00  0.00    +0.000 A 
ATOM      3  N   UNL     1      49.186   6.761  13.845  0.00  0.00    +0.000 NA
ATOM      4  C   UNL     1      48.442   7.733  13.282  0.00  0.00    +0.000 A 
ATOM      5  N   UNL     1      47.962   8.804  13.951  0.00  0.00    +0.000 NA
ATOM      6  C   UNL     1      48.333   8.920  15.244  0.00  0.00    +0.000 A 
ENDROOT
BRANCH   1   7
ATOM      7  O   UNL     1      49.630   8.127  17.168  0.00  0.00    +0.000 OA
BRANCH   7   8
ATOM      8  C   UNL     1      48.742   8.796  18.074  0.00  0.00    +0.000 C 
BRANCH   8  14
ATOM      9  N   UNL     1      48.254   4.308  19.598  0.00  0.00    +0.000 N 
ATOM     10  C   UNL     1      48.064   5.659  19.875  0.00  0.00    +0.000 A 
ATOM     11  C   UNL     1      47.562   6.067  21.099  0.00  0.00    +0.000 A 
ATOM     12  C   UNL     1      47.406   7.429  21.341  0.00  0.00    +0.000 A 
ATOM     13  C   UNL     1      47.766   8.339  20.354  0.00  0.00    +0.000 A 
ATOM     14  C   UNL     1      48.279   7.851  19.157  0.00  0.00    +0.000 A 
ATOM     15  N   UNL     1      48.432   6.522  18.915  0.00  0.00    +0.000 NA
ATOM     16  H   UNL     1      47.404   3.775  19.742  0.00  0.00    +0.000 HD
ATOM     17  H   UNL     1      48.577   4.247  18.636  0.00  0.00    +0.000 HD
ENDBRANCH   8  14
ENDBRANCH   7   8
ENDBRANCH   1   7
BRANCH   4  18
ATOM     18  C   UNL     1      48.117   7.610  11.810  0.00  0.00    +0.000 C 
BRANCH  18  19
ATOM     19  N   UNL     1      47.141   6.581  11.525  0.00  0.00    +0.000 N 
ATOM     20  C   UNL     1      45.800   6.853  11.583  0.00  0.00    +0.000 C 
ATOM     21  O   UNL     1      45.383   7.973  11.865  0.00  0.00    +0.000 OA
ATOM     22  H   UNL     1      47.478   5.745  11.057  0.00  0.00    +0.000 HD
BRANCH  20  23
ATOM     23  C   UNL     1      44.884   5.725  11.378  0.00  0.00    +0.000 A 
ATOM     24  C   UNL     1      43.878   5.469  12.302  0.00  0.00    +0.000 A 
ATOM     25  S   UNL     1      43.108   3.965  12.065  0.00  0.00    +0.000 S 
ATOM     26  C   UNL     1      44.060   3.635  10.694  0.00  0.00    +0.000 A 
ATOM     27  N   UNL     1      43.990   2.437  10.054  0.00  0.00    +0.000 NA
ATOM     28  C   UNL     1      44.741   2.350   9.005  0.00  0.00    +0.000 A 
ATOM     29  N   UNL     1      45.517   3.368   8.513  0.00  0.00    +0.000 N 
ATOM     30  C   UNL     1      45.586   4.606   9.105  0.00  0.00    +0.000 A 
ATOM     31  O   UNL     1      46.196   5.529   8.582  0.00  0.00    +0.000 OA
ATOM     32  C   UNL     1      44.861   4.711  10.355  0.00  0.00    +0.000 A 
ATOM     33  H   UNL     1      46.016   3.262   7.643  0.00  0.00    +0.000 HD
ENDBRANCH  20  23
ENDBRANCH  18  19
ENDBRANCH   4  18
TORSDOF 6
ENDMDL
