MODEL 1
REMARK VINA RESULT:    -7.700      0.000      0.000
REMARK INTER + INTRA:         -11.775
REMARK INTER:                 -10.850
REMARK INTRA:                  -0.925
REMARK UNBOUND:                -0.925
REMARK  Name = 
REMARK  8 active torsions:
REMARK  status: ('A' for Active; 'I' for Inactive)
REMARK    1  A    between atoms: C_1  and  C_2
REMARK    2  A    between atoms: C_7  and  C_8
REMARK    3  A    between atoms: N_10  and  C_11
REMARK    4  A    between atoms: C_11  and  C_12
REMARK    5  A    between atoms: C_15  and  C_16
REMARK    6  A    between atoms: C_16  and  S_17
REMARK    7  A    between atoms: S_17  and  C_18
REMARK    8  A    between atoms: C_18  and  C_19
REMARK                            x       y       z     vdW  Elec       q    Type
REMARK                         _______ _______ _______ _____ _____    ______ ____
ROOT
ATOM      1  C   UNL     1      47.503   7.671  13.441  0.00  0.00    +0.000 C 
ENDROOT
BRANCH   1   2
ATOM      2  C   UNL     1      46.601   6.656  12.785  0.00  0.00    +0.000 A 
ATOM      3  C   UNL     1      46.186   5.528  13.502  0.00  0.00    +0.000 A 
ATOM      4  C   UNL     1      45.347   4.577  12.917  0.00  0.00    +0.000 A 
ATOM      5  C   UNL     1      44.886   4.730  11.600  0.00  0.00    +0.000 A 
ATOM      6  C   UNL     1      45.335   5.838  10.868  0.00  0.00    +0.000 A 
ATOM      7  C   UNL     1      46.182   6.793  11.455  0.00  0.00    +0.000 A 
BRANCH   5   8
ATOM      8  C   UNL     1      43.900   3.737  11.008  0.00  0.00    +0.000 C 
BRANCH   8   9
ATOM      9  S   UNL     1      44.183   3.558   9.206  0.00  0.00    +0.000 S 
BRANCH   9  10
ATOM     10  C   UNL     1      45.341   2.153   9.156  0.00  0.00    +0.000 C 
BRANCH  10  11
ATOM     11  C   UNL     1      46.204   2.230   7.921  0.00  0.00    +0.000 A 
ATOM     12  C   UNL     1      46.172   3.343   7.073  0.00  0.00    +0.000 A 
ATOM     13  C   UNL     1      46.958   3.367   5.922  0.00  0.00    +0.000 A 
ATOM     14  C   UNL     1      47.755   2.269   5.650  0.00  0.00    +0.000 A 
ATOM     15  N   UNL     1      47.812   1.173   6.435  0.00  0.00    +0.000 NA
ATOM     16  C   UNL     1      47.030   1.173   7.542  0.00  0.00    +0.000 A 
ENDBRANCH  10  11
ENDBRANCH   9  10
ENDBRANCH   8   9
ENDBRANCH   5   8
ENDBRANCH   1   2
BRANCH   1  19
ATOM     17  C   UNL     1      49.136   7.052  15.156  0.00  0.00    +0.000 C 
ATOM     18  O   UNL     1      50.068   7.143  14.368  0.00  0.00    +0.000 OA
ATOM     19  N   UNL     1      47.827   7.281  14.793  0.00  0.00    +0.000 N 
ATOM     20  H   UNL     1      47.177   7.521  15.527  0.00  0.00    +0.000 HD
BRANCH  17  27
ATOM     21  C   UNL     1      49.832   4.911  21.024  0.00  0.00    +0.000 C 
ATOM     22  C   UNL     1      49.276   4.784  19.641  0.00  0.00    +0.000 A 
ATOM     23  N   UNL     1      48.588   3.653  19.333  0.00  0.00    +0.000 NA
ATOM     24  C   UNL     1      48.105   3.482  18.086  0.00  0.00    +0.000 A 
ATOM     25  C   UNL     1      48.250   4.393  17.049  0.00  0.00    +0.000 A 
ATOM     26  C   UNL     1      48.941   5.580  17.335  0.00  0.00    +0.000 A 
ATOM     27  C   UNL     1      49.332   6.736  16.572  0.00  0.00    +0.000 A 
ATOM     28  C   UNL     1      50.040   7.554  17.439  0.00  0.00    +0.000 A 
ATOM     29  N   UNL     1      50.089   6.957  18.666  0.00  0.00    +0.000 N 
ATOM     30  C   UNL     1      49.440   5.745  18.633  0.00  0.00    +0.000 A 
ATOM     31  H   UNL     1      50.557   7.337  19.477  0.00  0.00    +0.000 HD
ENDBRANCH  17  27
ENDBRANCH   1  19
TORSDOF 7
ENDMDL
MODEL 2
REMARK VINA RESULT:    -7.658      2.160      2.841
REMARK INTER + INTRA:         -11.717
REMARK INTER:                 -11.087
REMARK INTRA:                  -0.630
REMARK UNBOUND:                -0.925
REMARK  Name = 
REMARK  8 active torsions:
REMARK  status: ('A' for Active; 'I' for Inactive)
REMARK    1  A    between atoms: C_1  and  C_2
REMARK    2  A    between atoms: C_7  and  C_8
REMARK    3  A    between atoms: N_10  and  C_11
REMARK    4  A    between atoms: C_11  and  C_12
REMARK    5  A    between atoms: C_15  and  C_16
REMARK    6  A    between atoms: C_16  and  S_17
REMARK    7  A    between atoms: S_17  and  C_18
REMARK    8  A    between atoms: C_18  and  C_19
REMARK                            x       y       z     vdW  Elec       q    Type
REMARK                         _______ _______ _______ _____ _____    ______ ____
ROOT
ATOM      1  C   UNL     1      48.624   6.739  14.102  0.00  0.00    +0.000 C 
ENDROOT
BRANCH   1   2
ATOM      2  C   UNL     1      47.419   6.306  13.305  0.00  0.00    +0.000 A 
ATOM      3  C   UNL     1      46.728   5.144  13.666  0.00  0.00    +0.000 A 
ATOM      4  C   UNL     1      45.607   4.726  12.945  0.00  0.00    +0.000 A 
ATOM      5  C   UNL     1      45.133   5.464  11.849  0.00  0.00    +0.000 A 
ATOM      6  C   UNL     1      45.850   6.606  11.463  0.00  0.00    +0.000 A 
ATOM      7  C   UNL     1      46.980   7.024  12.185  0.00  0.00    +0.000 A 
BRANCH   5   8
ATOM      8  C   UNL     1      43.859   5.050  11.134  0.00  0.00    +0.000 C 
BRANCH   8   9
ATOM      9  S   UNL     1      44.095   3.432  10.303  0.00  0.00    +0.000 S 
BRANCH   9  10
ATOM     10  C   UNL     1      44.522   3.950   8.611  0.00  0.00    +0.000 C 
BRANCH  10  11
ATOM     11  C   UNL     1      45.598   3.054   8.045  0.00  0.00    +0.000 A 
ATOM     12  C   UNL     1      46.459   3.494   7.033  0.00  0.00    +0.000 A 
ATOM     13  C   UNL     1      47.419   2.630   6.510  0.00  0.00    +0.000 A 
ATOM     14  C   UNL     1      47.489   1.343   7.015  0.00  0.00    +0.000 A 
ATOM     15  N   UNL     1      46.675   0.876   7.984  0.00  0.00    +0.000 NA
ATOM     16  C   UNL     1      45.744   1.734   8.468  0.00  0.00    +0.000 A 
ENDBRANCH  10  11
ENDBRANCH   9  10
ENDBRANCH   8   9
ENDBRANCH   5   8
ENDBRANCH   1   2
BRANCH   1  19
ATOM     17  C   UNL     1      48.876   6.322  16.501  0.00  0.00    +0.000 C 
ATOM     18  O   UNL     1      49.712   5.448  16.309  0.00  0.00    +0.000 OA
ATOM     19  N   UNL     1      48.269   7.011  15.475  0.00  0.00    +0.000 N 
ATOM     20  H   UNL     1      47.869   7.912  15.694  0.00  0.00    +0.000 HD
BRANCH  17  27
ATOM     21  C   UNL     1      46.863   8.818  21.907  0.00  0.00    +0.000 C 
ATOM     22  C   UNL     1      47.312   8.958  20.486  0.00  0.00    +0.000 A 
ATOM     23  N   UNL     1      47.269  10.195  19.924  0.00  0.00    +0.000 NA
ATOM     24  C   UNL     1      47.628  10.357  18.634  0.00  0.00    +0.000 A 
ATOM     25  C   UNL     1      48.056   9.336  17.798  0.00  0.00    +0.000 A 
ATOM     26  C   UNL     1      48.129   8.048  18.350  0.00  0.00    +0.000 A 
ATOM     27  C   UNL     1      48.478   6.746  17.844  0.00  0.00    +0.000 A 
ATOM     28  C   UNL     1      48.308   5.861  18.898  0.00  0.00    +0.000 A 
ATOM     29  N   UNL     1      47.884   6.558  19.993  0.00  0.00    +0.000 N 
ATOM     30  C   UNL     1      47.752   7.893  19.689  0.00  0.00    +0.000 A 
ATOM     31  H   UNL     1      47.672   6.150  20.894  0.00  0.00    +0.000 HD
ENDBRANCH  17  27
ENDBRANCH   1  19
TORSDOF 7
ENDMDL
MODEL 3
REMARK VINA RESULT:    -7.614      3.103      9.177
REMARK INTER + INTRA:         -11.655
REMARK INTER:                 -10.647
REMARK INTRA:                  -1.009
REMARK UNBOUND:                -0.925
REMARK  Name = 
REMARK  8 active torsions:
REMARK  status: ('A' for Active; 'I' for Inactive)
REMARK    1  A    between atoms: C_1  and  C_2
REMARK    2  A    between atoms: C_7  and  C_8
REMARK    3  A    between atoms: N_10  and  C_11
REMARK    4  A    between atoms: C_11  and  C_12
REMARK    5  A    between atoms: C_15  and  C_16
REMARK    6  A    between atoms: C_16  and  S_17
REMARK    7  A    between atoms: S_17  and  C_18
REMARK    8  A    between atoms: C_18  and  C_19
REMARK                            x       y       z     vdW  Elec       q    Type
REMARK                         _______ _______ _______ _____ _____    ______ ____
ROOT
ATOM      1  C   UNL     1      45.048   6.917  11.685  0.00  0.00    +0.000 C 
ENDROOT
BRANCH   1   2
ATOM      2  C   UNL     1      46.252   7.382  12.466  0.00  0.00    +0.000 A 
ATOM      3  C   UNL     1      46.192   8.578  13.188  0.00  0.00    +0.000 A 
ATOM      4  C   UNL     1      47.294   9.026  13.922  0.00  0.00    +0.000 A 
ATOM      5  C   UNL     1      48.485   8.284  13.968  0.00  0.00    +0.000 A 
ATOM      6  C   UNL     1      48.557   7.106  13.211  0.00  0.00    +0.000 A 
ATOM      7  C   UNL     1      47.452   6.658  12.469  0.00  0.00    +0.000 A 
BRANCH   5   8
ATOM      8  C   UNL     1      49.640   8.735  14.845  0.00  0.00    +0.000 C 
BRANCH   8   9
ATOM      9  S   UNL     1      50.286   7.321  15.818  0.00  0.00    +0.000 S 
BRANCH   9  10
ATOM     10  C   UNL     1      48.802   6.801  16.736  0.00  0.00    +0.000 C 
BRANCH  10  11
ATOM     11  C   UNL     1      48.684   5.297  16.730  0.00  0.00    +0.000 A 
ATOM     12  C   UNL     1      49.541   4.492  17.491  0.00  0.00    +0.000 A 
ATOM     13  C   UNL     1      49.426   3.105  17.437  0.00  0.00    +0.000 A 
ATOM     14  C   UNL     1      48.454   2.558  16.618  0.00  0.00    +0.000 A 
ATOM     15  N   UNL     1      47.612   3.295  15.863  0.00  0.00    +0.000 NA
ATOM     16  C   UNL     1      47.753   4.641  15.927  0.00  0.00    +0.000 A 
ENDBRANCH  10  11
ENDBRANCH   9  10
ENDBRANCH   8   9
ENDBRANCH   5   8
ENDBRANCH   1   2
BRANCH   1  19
ATOM     17  C   UNL     1      44.256   4.946  10.470  0.00  0.00    +0.000 C 
ATOM     18  O   UNL     1      43.115   5.385  10.407  0.00  0.00    +0.000 OA
ATOM     19  N   UNL     1      45.282   5.621  11.092  0.00  0.00    +0.000 N 
ATOM     20  H   UNL     1      46.226   5.385  10.821  0.00  0.00    +0.000 HD
BRANCH  17  27
ATOM     21  C   UNL     1      46.585  -0.089   7.514  0.00  0.00    +0.000 C 
ATOM     22  C   UNL     1      46.460   1.393   7.677  0.00  0.00    +0.000 A 
ATOM     23  N   UNL     1      47.221   2.187   6.878  0.00  0.00    +0.000 NA
ATOM     24  C   UNL     1      47.168   3.527   7.020  0.00  0.00    +0.000 A 
ATOM     25  C   UNL     1      46.374   4.194   7.942  0.00  0.00    +0.000 A 
ATOM     26  C   UNL     1      45.563   3.407   8.773  0.00  0.00    +0.000 A 
ATOM     27  C   UNL     1      44.645   3.679   9.848  0.00  0.00    +0.000 A 
ATOM     28  C   UNL     1      44.188   2.447  10.290  0.00  0.00    +0.000 A 
ATOM     29  N   UNL     1      44.773   1.466   9.542  0.00  0.00    +0.000 N 
ATOM     30  C   UNL     1      45.628   2.017   8.617  0.00  0.00    +0.000 A 
ATOM     31  H   UNL     1      44.622   0.474   9.666  0.00  0.00    +0.000 HD
ENDBRANCH  17  27
ENDBRANCH   1  19
TORSDOF 7
ENDMDL
MODEL 4
REMARK VINA RESULT:    -7.196      4.161      8.459
REMARK INTER + INTRA:         -11.066
REMARK INTER:                  -9.382
REMARK INTRA:                  -1.684
REMARK UNBOUND:                -0.925
REMARK  Name = 
REMARK  8 active torsions:
REMARK  status: ('A' for Active; 'I' for Inactive)
REMARK    1  A    between atoms: C_1  and  C_2
REMARK    2  A    between atoms: C_7  and  C_8
REMARK    3  A    between atoms: N_10  and  C_11
REMARK    4  A    between atoms: C_11  and  C_12
REMARK    5  A    between atoms: C_15  and  C_16
REMARK    6  A    between atoms: C_16  and  S_17
REMARK    7  A    between atoms: S_17  and  C_18
REMARK    8  A    between atoms: C_18  and  C_19
REMARK                            x       y       z     vdW  Elec       q    Type
REMARK                         _______ _______ _______ _____ _____    ______ ____
ROOT
ATOM      1  C   UNL     1      48.405   8.480  14.782  0.00  0.00    +0.000 C 
ENDROOT
BRANCH   1   2
ATOM      2  C   UNL     1      49.308   8.034  15.904  0.00  0.00    +0.000 A 
ATOM      3  C   UNL     1      48.865   8.122  17.228  0.00  0.00    +0.000 A 
ATOM      4  C   UNL     1      49.682   7.711  18.284  0.00  0.00    +0.000 A 
ATOM      5  C   UNL     1      50.963   7.186  18.048  0.00  0.00    +0.000 A 
ATOM      6  C   UNL     1      51.421   7.136  16.724  0.00  0.00    +0.000 A 
ATOM      7  C   UNL     1      50.601   7.553  15.662  0.00  0.00    +0.000 A 
BRANCH   5   8
ATOM      8  C   UNL     1      51.802   6.655  19.197  0.00  0.00    +0.000 C 
BRANCH   8   9
ATOM      9  S   UNL     1      51.099   5.081  19.823  0.00  0.00    +0.000 S 
BRANCH   9  10
ATOM     10  C   UNL     1      51.709   3.893  18.585  0.00  0.00    +0.000 C 
BRANCH  10  11
ATOM     11  C   UNL     1      50.561   3.351  17.769  0.00  0.00    +0.000 A 
ATOM     12  C   UNL     1      49.305   3.971  17.771  0.00  0.00    +0.000 A 
ATOM     13  C   UNL     1      48.257   3.425  17.032  0.00  0.00    +0.000 A 
ATOM     14  C   UNL     1      48.495   2.267  16.312  0.00  0.00    +0.000 A 
ATOM     15  N   UNL     1      49.686   1.633  16.288  0.00  0.00    +0.000 NA
ATOM     16  C   UNL     1      50.684   2.181  17.023  0.00  0.00    +0.000 A 
ENDBRANCH  10  11
ENDBRANCH   9  10
ENDBRANCH   8   9
ENDBRANCH   5   8
ENDBRANCH   1   2
BRANCH   1  19
ATOM     17  C   UNL     1      47.820   6.510  13.452  0.00  0.00    +0.000 C 
ATOM     18  O   UNL     1      48.890   6.536  12.857  0.00  0.00    +0.000 OA
ATOM     19  N   UNL     1      47.479   7.435  14.413  0.00  0.00    +0.000 N 
ATOM     20  H   UNL     1      46.769   7.171  15.080  0.00  0.00    +0.000 HD
BRANCH  17  27
ATOM     21  C   UNL     1      43.254   2.491  11.871  0.00  0.00    +0.000 C 
ATOM     22  C   UNL     1      43.830   3.871  11.905  0.00  0.00    +0.000 A 
ATOM     23  N   UNL     1      43.153   4.859  11.261  0.00  0.00    +0.000 NA
ATOM     24  C   UNL     1      43.658   6.109  11.235  0.00  0.00    +0.000 A 
ATOM     25  C   UNL     1      44.851   6.493  11.831  0.00  0.00    +0.000 A 
ATOM     26  C   UNL     1      45.568   5.503  12.519  0.00  0.00    +0.000 A 
ATOM     27  C   UNL     1      46.821   5.464  13.226  0.00  0.00    +0.000 A 
ATOM     28  C   UNL     1      46.989   4.154  13.651  0.00  0.00    +0.000 A 
ATOM     29  N   UNL     1      45.913   3.419  13.242  0.00  0.00    +0.000 N 
ATOM     30  C   UNL     1      45.034   4.209  12.538  0.00  0.00    +0.000 A 
ATOM     31  H   UNL     1      45.789   2.430  13.410  0.00  0.00    +0.000 HD
ENDBRANCH  17  27
ENDBRANCH   1  19
TORSDOF 7
ENDMDL
MODEL 5
REMARK VINA RESULT:    -7.079      2.201      2.795
REMARK INTER + INTRA:         -10.901
REMARK INTER:                 -10.155
REMARK INTRA:                  -0.747
REMARK UNBOUND:                -0.925
REMARK  Name = 
REMARK  8 active torsions:
REMARK  status: ('A' for Active; 'I' for Inactive)
REMARK    1  A    between atoms: C_1  and  C_2
REMARK    2  A    between atoms: C_7  and  C_8
REMARK    3  A    between atoms: N_10  and  C_11
REMARK    4  A    between atoms: C_11  and  C_12
REMARK    5  A    between atoms: C_15  and  C_16
REMARK    6  A    between atoms: C_16  and  S_17
REMARK    7  A    between atoms: S_17  and  C_18
REMARK    8  A    between atoms: C_18  and  C_19
REMARK                            x       y       z     vdW  Elec       q    Type
REMARK                         _______ _______ _______ _____ _____    ______ ____
ROOT
ATOM      1  C   UNL     1      47.694   4.062  15.572  0.00  0.00    +0.000 C 
ENDROOT
BRANCH   1   2
ATOM      2  C   UNL     1      46.844   4.372  14.365  0.00  0.00    +0.000 A 
ATOM      3  C   UNL     1      46.590   5.703  14.017  0.00  0.00    +0.000 A 
ATOM      4  C   UNL     1      45.809   6.014  12.901  0.00  0.00    +0.000 A 
ATOM      5  C   UNL     1      45.270   5.003  12.089  0.00  0.00    +0.000 A 
ATOM      6  C   UNL     1      45.491   3.669  12.462  0.00  0.00    +0.000 A 
ATOM      7  C   UNL     1      46.272   3.356  13.587  0.00  0.00    +0.000 A 
BRANCH   5   8
ATOM      8  C   UNL     1      44.503   5.355  10.827  0.00  0.00    +0.000 C 
BRANCH   8   9
ATOM      9  S   UNL     1      44.198   3.848   9.828  0.00  0.00    +0.000 S 
BRANCH   9  10
ATOM     10  C   UNL     1      45.084   4.246   8.288  0.00  0.00    +0.000 C 
BRANCH  10  11
ATOM     11  C   UNL     1      45.896   3.058   7.829  0.00  0.00    +0.000 A 
ATOM     12  C   UNL     1      46.742   3.136   6.717  0.00  0.00    +0.000 A 
ATOM     13  C   UNL     1      47.452   2.012   6.301  0.00  0.00    +0.000 A 
ATOM     14  C   UNL     1      47.291   0.835   7.010  0.00  0.00    +0.000 A 
ATOM     15  N   UNL     1      46.481   0.713   8.082  0.00  0.00    +0.000 NA
ATOM     16  C   UNL     1      45.796   1.820   8.459  0.00  0.00    +0.000 A 
ENDBRANCH  10  11
ENDBRANCH   9  10
ENDBRANCH   8   9
ENDBRANCH   5   8
ENDBRANCH   1   2
BRANCH   1  19
ATOM     17  C   UNL     1      48.683   5.792  16.994  0.00  0.00    +0.000 C 
ATOM     18  O   UNL     1      49.809   5.562  16.571  0.00  0.00    +0.000 OA
ATOM     19  N   UNL     1      47.572   5.096  16.572  0.00  0.00    +0.000 N 
ATOM     20  H   UNL     1      46.673   5.542  16.689  0.00  0.00    +0.000 HD
BRANCH  17  27
ATOM     21  C   UNL     1      47.591   9.805  21.706  0.00  0.00    +0.000 C 
ATOM     22  C   UNL     1      47.608   8.419  21.144  0.00  0.00    +0.000 A 
ATOM     23  N   UNL     1      47.301   7.390  21.977  0.00  0.00    +0.000 NA
ATOM     24  C   UNL     1      47.342   6.122  21.520  0.00  0.00    +0.000 A 
ATOM     25  C   UNL     1      47.682   5.759  20.224  0.00  0.00    +0.000 A 
ATOM     26  C   UNL     1      47.989   6.797  19.331  0.00  0.00    +0.000 A 
ATOM     27  C   UNL     1      48.408   6.861  17.956  0.00  0.00    +0.000 A 
ATOM     28  C   UNL     1      48.589   8.204  17.666  0.00  0.00    +0.000 A 
ATOM     29  N   UNL     1      48.300   8.937  18.781  0.00  0.00    +0.000 N 
ATOM     30  C   UNL     1      47.944   8.108  19.819  0.00  0.00    +0.000 A 
ATOM     31  H   UNL     1      48.363   9.945  18.845  0.00  0.00    +0.000 HD
ENDBRANCH  17  27
ENDBRANCH   1  19
TORSDOF 7
ENDMDL
MODEL 6
REMARK VINA RESULT:    -6.892      4.074      8.277
REMARK INTER + INTRA:         -10.637
REMARK INTER:                  -9.015
REMARK INTRA:                  -1.621
REMARK UNBOUND:                -0.925
REMARK  Name = 
REMARK  8 active torsions:
REMARK  status: ('A' for Active; 'I' for Inactive)
REMARK    1  A    between atoms: C_1  and  C_2
REMARK    2  A    between atoms: C_7  and  C_8
REMARK    3  A    between atoms: N_10  and  C_11
REMARK    4  A    between atoms: C_11  and  C_12
REMARK    5  A    between atoms: C_15  and  C_16
REMARK    6  A    between atoms: C_16  and  S_17
REMARK    7  A    between atoms: S_17  and  C_18
REMARK    8  A    between atoms: C_18  and  C_19
REMARK                            x       y       z     vdW  Elec       q    Type
REMARK                         _______ _______ _______ _____ _____    ______ ____
ROOT
ATOM      1  C   UNL     1      48.105   9.330  14.792  0.00  0.00    +0.000 C 
ENDROOT
BRANCH   1   2
ATOM      2  C   UNL     1      49.177   8.656  15.610  0.00  0.00    +0.000 A 
ATOM      3  C   UNL     1      49.512   9.164  16.870  0.00  0.00    +0.000 A 
ATOM      4  C   UNL     1      50.499   8.554  17.648  0.00  0.00    +0.000 A 
ATOM      5  C   UNL     1      51.173   7.408  17.197  0.00  0.00    +0.000 A 
ATOM      6  C   UNL     1      50.865   6.924  15.917  0.00  0.00    +0.000 A 
ATOM      7  C   UNL     1      49.876   7.540  15.132  0.00  0.00    +0.000 A 
BRANCH   5   8
ATOM      8  C   UNL     1      52.175   6.700  18.092  0.00  0.00    +0.000 C 
BRANCH   8   9
ATOM      9  S   UNL     1      51.309   5.554  19.232  0.00  0.00    +0.000 S 
BRANCH   9  10
ATOM     10  C   UNL     1      51.705   3.938  18.493  0.00  0.00    +0.000 C 
BRANCH  10  11
ATOM     11  C   UNL     1      50.523   3.415  17.712  0.00  0.00    +0.000 A 
ATOM     12  C   UNL     1      49.296   4.088  17.705  0.00  0.00    +0.000 A 
ATOM     13  C   UNL     1      48.216   3.561  17.000  0.00  0.00    +0.000 A 
ATOM     14  C   UNL     1      48.394   2.367  16.323  0.00  0.00    +0.000 A 
ATOM     15  N   UNL     1      49.556   1.682  16.309  0.00  0.00    +0.000 NA
ATOM     16  C   UNL     1      50.587   2.213  17.010  0.00  0.00    +0.000 A 
ENDBRANCH  10  11
ENDBRANCH   9  10
ENDBRANCH   8   9
ENDBRANCH   5   8
ENDBRANCH   1   2
BRANCH   1  19
ATOM     17  C   UNL     1      46.973   8.386  12.838  0.00  0.00    +0.000 C 
ATOM     18  O   UNL     1      47.457   9.227  12.092  0.00  0.00    +0.000 OA
ATOM     19  N   UNL     1      47.221   8.359  14.192  0.00  0.00    +0.000 N 
ATOM     20  H   UNL     1      47.083   7.481  14.672  0.00  0.00    +0.000 HD
BRANCH  17  27
ATOM     21  C   UNL     1      43.583   3.297  11.383  0.00  0.00    +0.000 C 
ATOM     22  C   UNL     1      44.758   3.942  12.048  0.00  0.00    +0.000 A 
ATOM     23  N   UNL     1      45.573   3.157  12.801  0.00  0.00    +0.000 NA
ATOM     24  C   UNL     1      46.621   3.706  13.449  0.00  0.00    +0.000 A 
ATOM     25  C   UNL     1      46.956   5.053  13.412  0.00  0.00    +0.000 A 
ATOM     26  C   UNL     1      46.146   5.890  12.630  0.00  0.00    +0.000 A 
ATOM     27  C   UNL     1      46.119   7.302  12.349  0.00  0.00    +0.000 A 
ATOM     28  C   UNL     1      45.028   7.513  11.520  0.00  0.00    +0.000 A 
ATOM     29  N   UNL     1      44.412   6.316  11.291  0.00  0.00    +0.000 N 
ATOM     30  C   UNL     1      45.061   5.308  11.964  0.00  0.00    +0.000 A 
ATOM     31  H   UNL     1      43.581   6.190  10.728  0.00  0.00    +0.000 HD
ENDBRANCH  17  27
ENDBRANCH   1  19
TORSDOF 7
ENDMDL
MODEL 7
REMARK VINA RESULT:    -6.643      4.194      9.131
REMARK INTER + INTRA:         -10.286
REMARK INTER:                  -8.359
REMARK INTRA:                  -1.927
REMARK UNBOUND:                -0.925
REMARK  Name = 
REMARK  8 active torsions:
REMARK  status: ('A' for Active; 'I' for Inactive)
REMARK    1  A    between atoms: C_1  and  C_2
REMARK    2  A    between atoms: C_7  and  C_8
REMARK    3  A    between atoms: N_10  and  C_11
REMARK    4  A    between atoms: C_11  and  C_12
REMARK    5  A    between atoms: C_15  and  C_16
REMARK    6  A    between atoms: C_16  and  S_17
REMARK    7  A    between atoms: S_17  and  C_18
REMARK    8  A    between atoms: C_18  and  C_19
REMARK                            x       y       z     vdW  Elec       q    Type
REMARK                         _______ _______ _______ _____ _____    ______ ____
ROOT
ATOM      1  C   UNL     1      48.712   8.692  15.250  0.00  0.00    +0.000 C 
ENDROOT
BRANCH   1   2
ATOM      2  C   UNL     1      48.741   8.788  16.754  0.00  0.00    +0.000 A 
ATOM      3  C   UNL     1      47.710   9.451  17.428  0.00  0.00    +0.000 A 
ATOM      4  C   UNL     1      47.713   9.549  18.822  0.00  0.00    +0.000 A 
ATOM      5  C   UNL     1      48.742   8.975  19.586  0.00  0.00    +0.000 A 
ATOM      6  C   UNL     1      49.796   8.346  18.908  0.00  0.00    +0.000 A 
ATOM      7  C   UNL     1      49.795   8.252  17.506  0.00  0.00    +0.000 A 
BRANCH   5   8
ATOM      8  C   UNL     1      48.684   9.007  21.104  0.00  0.00    +0.000 C 
BRANCH   8   9
ATOM      9  S   UNL     1      49.034   7.341  21.787  0.00  0.00    +0.000 S 
BRANCH   9  10
ATOM     10  C   UNL     1      47.537   6.426  21.301  0.00  0.00    +0.000 C 
BRANCH  10  11
ATOM     11  C   UNL     1      47.797   5.625  20.047  0.00  0.00    +0.000 A 
ATOM     12  C   UNL     1      47.010   5.784  18.901  0.00  0.00    +0.000 A 
ATOM     13  C   UNL     1      47.256   5.006  17.772  0.00  0.00    +0.000 A 
ATOM     14  C   UNL     1      48.286   4.083  17.824  0.00  0.00    +0.000 A 
ATOM     15  N   UNL     1      49.065   3.892  18.909  0.00  0.00    +0.000 NA
ATOM     16  C   UNL     1      48.797   4.656  19.995  0.00  0.00    +0.000 A 
ENDBRANCH  10  11
ENDBRANCH   9  10
ENDBRANCH   8   9
ENDBRANCH   5   8
ENDBRANCH   1   2
BRANCH   1  19
ATOM     17  C   UNL     1      48.129   6.690  13.968  0.00  0.00    +0.000 C 
ATOM     18  O   UNL     1      49.270   6.575  13.540  0.00  0.00    +0.000 OA
ATOM     19  N   UNL     1      47.748   7.711  14.810  0.00  0.00    +0.000 N 
ATOM     20  H   UNL     1      46.927   7.562  15.379  0.00  0.00    +0.000 HD
BRANCH  17  27
ATOM     21  C   UNL     1      43.393   3.044  12.022  0.00  0.00    +0.000 C 
ATOM     22  C   UNL     1      44.065   4.377  12.119  0.00  0.00    +0.000 A 
ATOM     23  N   UNL     1      43.507   5.421  11.452  0.00  0.00    +0.000 NA
ATOM     24  C   UNL     1      44.103   6.630  11.482  0.00  0.00    +0.000 A 
ATOM     25  C   UNL     1      45.279   6.916  12.160  0.00  0.00    +0.000 A 
ATOM     26  C   UNL     1      45.875   5.866  12.874  0.00  0.00    +0.000 A 
ATOM     27  C   UNL     1      47.073   5.724  13.660  0.00  0.00    +0.000 A 
ATOM     28  C   UNL     1      47.115   4.400  14.070  0.00  0.00    +0.000 A 
ATOM     29  N   UNL     1      46.018   3.753  13.579  0.00  0.00    +0.000 N 
ATOM     30  C   UNL     1      45.248   4.615  12.834  0.00  0.00    +0.000 A 
ATOM     31  H   UNL     1      45.811   2.773  13.720  0.00  0.00    +0.000 HD
ENDBRANCH  17  27
ENDBRANCH   1  19
TORSDOF 7
ENDMDL
MODEL 8
REMARK VINA RESULT:    -6.500      5.205      9.005
REMARK INTER + INTRA:         -10.085
REMARK INTER:                  -9.248
REMARK INTRA:                  -0.837
REMARK UNBOUND:                -0.925
REMARK  Name = 
REMARK  8 active torsions:
REMARK  status: ('A' for Active; 'I' for Inactive)
REMARK    1  A    between atoms: C_1  and  C_2
REMARK    2  A    between atoms: C_7  and  C_8
REMARK    3  A    between atoms: N_10  and  C_11
REMARK    4  A    between atoms: C_11  and  C_12
REMARK    5  A    between atoms: C_15  and  C_16
REMARK    6  A    between atoms: C_16  and  S_17
REMARK    7  A    between atoms: S_17  and  C_18
REMARK    8  A    between atoms: C_18  and  C_19
REMARK                            x       y       z     vdW  Elec       q    Type
REMARK                         _______ _______ _______ _____ _____    ______ ____
ROOT
ATOM      1  C   UNL     1      44.683   7.013  12.057  0.00  0.00    +0.000 C 
ENDROOT
BRANCH   1   2
ATOM      2  C   UNL     1      45.893   7.913  12.078  0.00  0.00    +0.000 A 
ATOM      3  C   UNL     1      45.726   9.302  12.091  0.00  0.00    +0.000 A 
ATOM      4  C   UNL     1      46.832  10.155  12.115  0.00  0.00    +0.000 A 
ATOM      5  C   UNL     1      48.140   9.645  12.141  0.00  0.00    +0.000 A 
ATOM      6  C   UNL     1      48.307   8.254  12.087  0.00  0.00    +0.000 A 
ATOM      7  C   UNL     1      47.196   7.396  12.058  0.00  0.00    +0.000 A 
BRANCH   5   8
ATOM      8  C   UNL     1      49.330  10.582  12.263  0.00  0.00    +0.000 C 
BRANCH   8   9
ATOM      9  S   UNL     1      50.661   9.792  13.246  0.00  0.00    +0.000 S 
BRANCH   9  10
ATOM     10  C   UNL     1      52.153  10.472  12.453  0.00  0.00    +0.000 C 
BRANCH  10  11
ATOM     11  C   UNL     1      52.472   9.704  11.193  0.00  0.00    +0.000 A 
ATOM     12  C   UNL     1      52.515  10.334   9.944  0.00  0.00    +0.000 A 
ATOM     13  C   UNL     1      52.781   9.590   8.796  0.00  0.00    +0.000 A 
ATOM     14  C   UNL     1      52.993   8.229   8.931  0.00  0.00    +0.000 A 
ATOM     15  N   UNL     1      52.953   7.580  10.114  0.00  0.00    +0.000 NA
ATOM     16  C   UNL     1      52.684   8.327  11.212  0.00  0.00    +0.000 A 
ENDBRANCH  10  11
ENDBRANCH   9  10
ENDBRANCH   8   9
ENDBRANCH   5   8
ENDBRANCH   1   2
BRANCH   1  19
ATOM     17  C   UNL     1      44.003   5.064  10.742  0.00  0.00    +0.000 C 
ATOM     18  O   UNL     1      42.848   5.461  10.663  0.00  0.00    +0.000 OA
ATOM     19  N   UNL     1      44.984   5.753  11.420  0.00  0.00    +0.000 N 
ATOM     20  H   UNL     1      45.943   5.564  11.167  0.00  0.00    +0.000 HD
BRANCH  17  27
ATOM     21  C   UNL     1      46.586   0.259   7.620  0.00  0.00    +0.000 C 
ATOM     22  C   UNL     1      46.372   1.726   7.822  0.00  0.00    +0.000 A 
ATOM     23  N   UNL     1      47.066   2.585   7.030  0.00  0.00    +0.000 NA
ATOM     24  C   UNL     1      46.931   3.915   7.206  0.00  0.00    +0.000 A 
ATOM     25  C   UNL     1      46.115   4.509   8.158  0.00  0.00    +0.000 A 
ATOM     26  C   UNL     1      45.371   3.652   8.984  0.00  0.00    +0.000 A 
ATOM     27  C   UNL     1      44.460   3.839  10.082  0.00  0.00    +0.000 A 
ATOM     28  C   UNL     1      44.089   2.571  10.502  0.00  0.00    +0.000 A 
ATOM     29  N   UNL     1      44.721   1.647   9.719  0.00  0.00    +0.000 N 
ATOM     30  C   UNL     1      45.521   2.273   8.792  0.00  0.00    +0.000 A 
ATOM     31  H   UNL     1      44.635   0.645   9.821  0.00  0.00    +0.000 HD
ENDBRANCH  17  27
ENDBRANCH   1  19
TORSDOF 7
ENDMDL
MODEL 9
REMARK VINA RESULT:    -6.401      4.713      9.149
REMARK INTER + INTRA:          -9.945
REMARK INTER:                  -8.153
REMARK INTRA:                  -1.792
REMARK UNBOUND:                -0.925
REMARK  Name = 
REMARK  8 active torsions:
REMARK  status: ('A' for Active; 'I' for Inactive)
REMARK    1  A    between atoms: C_1  and  C_2
REMARK    2  A    between atoms: C_7  and  C_8
REMARK    3  A    between atoms: N_10  and  C_11
REMARK    4  A    between atoms: C_11  and  C_12
REMARK    5  A    between atoms: C_15  and  C_16
REMARK    6  A    between atoms: C_16  and  S_17
REMARK    7  A    between atoms: S_17  and  C_18
REMARK    8  A    between atoms: C_18  and  C_19
REMARK                            x       y       z     vdW  Elec       q    Type
REMARK                         _______ _______ _______ _____ _____    ______ ____
ROOT
ATOM      1  C   UNL     1      47.553   3.534  15.897  0.00  0.00    +0.000 C 
ENDROOT
BRANCH   1   2
ATOM      2  C   UNL     1      48.108   4.065  17.195  0.00  0.00    +0.000 A 
ATOM      3  C   UNL     1      49.415   3.741  17.576  0.00  0.00    +0.000 A 
ATOM      4  C   UNL     1      49.952   4.225  18.772  0.00  0.00    +0.000 A 
ATOM      5  C   UNL     1      49.203   5.059  19.617  0.00  0.00    +0.000 A 
ATOM      6  C   UNL     1      47.880   5.349  19.255  0.00  0.00    +0.000 A 
ATOM      7  C   UNL     1      47.339   4.859  18.055  0.00  0.00    +0.000 A 
BRANCH   5   8
ATOM      8  C   UNL     1      49.831   5.654  20.866  0.00  0.00    +0.000 C 
BRANCH   8   9
ATOM      9  S   UNL     1      51.332   6.612  20.426  0.00  0.00    +0.000 S 
BRANCH   9  10
ATOM     10  C   UNL     1      50.609   8.064  19.599  0.00  0.00    +0.000 C 
BRANCH  10  11
ATOM     11  C   UNL     1      50.393   7.778  18.133  0.00  0.00    +0.000 A 
ATOM     12  C   UNL     1      51.383   7.167  17.353  0.00  0.00    +0.000 A 
ATOM     13  C   UNL     1      51.164   6.948  15.995  0.00  0.00    +0.000 A 
ATOM     14  C   UNL     1      49.957   7.351  15.451  0.00  0.00    +0.000 A 
ATOM     15  N   UNL     1      48.979   7.949  16.163  0.00  0.00    +0.000 NA
ATOM     16  C   UNL     1      49.223   8.158  17.479  0.00  0.00    +0.000 A 
ENDBRANCH  10  11
ENDBRANCH   9  10
ENDBRANCH   8   9
ENDBRANCH   5   8
ENDBRANCH   1   2
BRANCH   1  19
ATOM     17  C   UNL     1      46.358   4.313  13.909  0.00  0.00    +0.000 C 
ATOM     18  O   UNL     1      46.458   3.222  13.363  0.00  0.00    +0.000 OA
ATOM     19  N   UNL     1      46.877   4.573  15.157  0.00  0.00    +0.000 N 
ATOM     20  H   UNL     1      46.479   5.344  15.675  0.00  0.00    +0.000 HD
BRANCH  17  27
ATOM     21  C   UNL     1      43.994   9.411  11.092  0.00  0.00    +0.000 C 
ATOM     22  C   UNL     1      45.111   8.698  11.787  0.00  0.00    +0.000 A 
ATOM     23  N   UNL     1      46.305   9.337  11.894  0.00  0.00    +0.000 NA
ATOM     24  C   UNL     1      47.349   8.714  12.478  0.00  0.00    +0.000 A 
ATOM     25  C   UNL     1      47.310   7.429  13.003  0.00  0.00    +0.000 A 
ATOM     26  C   UNL     1      46.088   6.745  12.924  0.00  0.00    +0.000 A 
ATOM     27  C   UNL     1      45.635   5.432  13.301  0.00  0.00    +0.000 A 
ATOM     28  C   UNL     1      44.306   5.352  12.913  0.00  0.00    +0.000 A 
ATOM     29  N   UNL     1      43.945   6.536  12.335  0.00  0.00    +0.000 N 
ATOM     30  C   UNL     1      45.013   7.402  12.314  0.00  0.00    +0.000 A 
ATOM     31  H   UNL     1      43.032   6.740  11.953  0.00  0.00    +0.000 HD
ENDBRANCH  17  27
ENDBRANCH   1  19
TORSDOF 7
ENDMDL
