MODEL 1
REMARK VINA RESULT:    -8.589      0.000      0.000
REMARK INTER + INTRA:         -14.096
REMARK INTER:                 -13.108
REMARK INTRA:                  -0.988
REMARK UNBOUND:                -0.988
REMARK  Name = 
REMARK  10 active torsions:
REMARK  status: ('A' for Active; 'I' for Inactive)
REMARK    1  A    between atoms: C_1  and  O_2
REMARK    2  A    between atoms: O_2  and  C_3
REMARK    3  A    between atoms: C_3  and  C_4
REMARK    4  A    between atoms: C_3  and  C_13
REMARK    5  A    between atoms: C_4  and  N_5
REMARK    6  A    between atoms: N_5  and  C_6
REMARK    7  A    between atoms: C_6  and  C_7
REMARK    8  A    between atoms: C_16  and  C_17
REMARK    9  A    between atoms: C_17  and  N_18
REMARK   10  A    between atoms: C_19  and  C_21
REMARK                            x       y       z     vdW  Elec       q    Type
REMARK                         _______ _______ _______ _____ _____    ______ ____
ROOT
ATOM      1  C   UNL     1      45.272   4.636  12.075  0.00  0.00    +0.000 A 
ATOM      2  C   UNL     1      45.801   4.185  13.297  0.00  0.00    +0.000 A 
ATOM      3  C   UNL     1      46.846   4.861  13.938  0.00  0.00    +0.000 A 
ATOM      4  C   UNL     1      47.389   6.020  13.377  0.00  0.00    +0.000 A 
ATOM      5  C   UNL     1      46.897   6.460  12.144  0.00  0.00    +0.000 A 
ATOM      6  C   UNL     1      45.860   5.775  11.502  0.00  0.00    +0.000 A 
ENDROOT
BRANCH   1   7
ATOM      7  C   UNL     1      44.130   3.900  11.373  0.00  0.00    +0.000 C 
BRANCH   7   9
ATOM      8  C   UNL     1      42.315   5.473  11.770  0.00  0.00    +0.000 C 
ATOM      9  O   UNL     1      42.911   4.229  12.080  0.00  0.00    +0.000 OA
ENDBRANCH   7   9
BRANCH   7  10
ATOM     10  C   UNL     1      44.005   4.245   9.851  0.00  0.00    +0.000 C 
BRANCH  10  11
ATOM     11  N   UNL     1      44.020   3.084   8.945  0.00  0.00    +0.000 NA
ATOM     12  H   UNL     1      43.976   3.391   7.973  0.00  0.00    +0.000 HD
BRANCH  11  13
ATOM     13  C   UNL     1      45.211   2.258   9.141  0.00  0.00    +0.000 C 
BRANCH  13  14
ATOM     14  C   UNL     1      46.102   2.297   7.930  0.00  0.00    +0.000 A 
ATOM     15  C   UNL     1      46.077   3.368   7.031  0.00  0.00    +0.000 A 
ATOM     16  C   UNL     1      46.901   3.352   5.909  0.00  0.00    +0.000 A 
ATOM     17  C   UNL     1      47.728   2.259   5.719  0.00  0.00    +0.000 A 
ATOM     18  N   UNL     1      47.782   1.202   6.561  0.00  0.00    +0.000 NA
ATOM     19  C   UNL     1      46.967   1.246   7.641  0.00  0.00    +0.000 A 
ENDBRANCH  13  14
ENDBRANCH  11  13
ENDBRANCH  10  11
ENDBRANCH   7  10
ENDBRANCH   1   7
BRANCH   4  20
ATOM     20  C   UNL     1      48.519   6.748  14.053  0.00  0.00    +0.000 C 
BRANCH  20  21
ATOM     21  N   UNL     1      48.250   6.918  15.458  0.00  0.00    +0.000 N 
ATOM     22  C   UNL     1      49.185   6.607  16.410  0.00  0.00    +0.000 C 
ATOM     23  O   UNL     1      50.305   6.197  16.117  0.00  0.00    +0.000 OA
ATOM     24  H   UNL     1      47.278   7.030  15.727  0.00  0.00    +0.000 HD
BRANCH  22  25
ATOM     25  C   UNL     1      48.799   6.853  17.806  0.00  0.00    +0.000 A 
ATOM     26  C   UNL     1      48.496   8.142  18.219  0.00  0.00    +0.000 A 
ATOM     27  S   UNL     1      48.026   8.241  19.857  0.00  0.00    +0.000 S 
ATOM     28  C   UNL     1      48.260   6.573  20.082  0.00  0.00    +0.000 A 
ATOM     29  N   UNL     1      48.062   5.996  21.297  0.00  0.00    +0.000 NA
ATOM     30  C   UNL     1      48.308   4.731  21.334  0.00  0.00    +0.000 A 
ATOM     31  N   UNL     1      48.724   3.985  20.260  0.00  0.00    +0.000 N 
ATOM     32  C   UNL     1      48.903   4.519  19.005  0.00  0.00    +0.000 A 
ATOM     33  O   UNL     1      49.224   3.807  18.055  0.00  0.00    +0.000 OA
ATOM     34  C   UNL     1      48.663   5.944  18.917  0.00  0.00    +0.000 A 
ATOM     35  H   UNL     1      48.884   2.991  20.352  0.00  0.00    +0.000 HD
ENDBRANCH  22  25
ENDBRANCH  20  21
ENDBRANCH   4  20
TORSDOF 9
ENDMDL
MODEL 2
REMARK VINA RESULT:    -8.228      1.297      2.125
REMARK INTER + INTRA:         -13.546
REMARK INTER:                 -12.317
REMARK INTRA:                  -1.229
REMARK UNBOUND:                -0.988
REMARK  Name = 
REMARK  10 active torsions:
REMARK  status: ('A' for Active; 'I' for Inactive)
REMARK    1  A    between atoms: C_1  and  O_2
REMARK    2  A    between atoms: O_2  and  C_3
REMARK    3  A    between atoms: C_3  and  C_4
REMARK    4  A    between atoms: C_3  and  C_13
REMARK    5  A    between atoms: C_4  and  N_5
REMARK    6  A    between atoms: N_5  and  C_6
REMARK    7  A    between atoms: C_6  and  C_7
REMARK    8  A    between atoms: C_16  and  C_17
REMARK    9  A    between atoms: C_17  and  N_18
REMARK   10  A    between atoms: C_19  and  C_21
REMARK                            x       y       z     vdW  Elec       q    Type
REMARK                         _______ _______ _______ _____ _____    ______ ____
ROOT
ATOM      1  C   UNL     1      45.505   4.793  12.068  0.00  0.00    +0.000 A 
ATOM      2  C   UNL     1      46.082   5.996  11.627  0.00  0.00    +0.000 A 
ATOM      3  C   UNL     1      47.070   6.651  12.371  0.00  0.00    +0.000 A 
ATOM      4  C   UNL     1      47.519   6.114  13.580  0.00  0.00    +0.000 A 
ATOM      5  C   UNL     1      46.928   4.936  14.048  0.00  0.00    +0.000 A 
ATOM      6  C   UNL     1      45.933   4.290  13.306  0.00  0.00    +0.000 A 
ENDROOT
BRANCH   1   7
ATOM      7  C   UNL     1      44.425   4.075  11.255  0.00  0.00    +0.000 C 
BRANCH   7   9
ATOM      8  C   UNL     1      42.474   5.350  11.959  0.00  0.00    +0.000 C 
ATOM      9  O   UNL     1      43.200   4.138  12.023  0.00  0.00    +0.000 OA
ENDBRANCH   7   9
BRANCH   7  10
ATOM     10  C   UNL     1      44.220   4.670   9.822  0.00  0.00    +0.000 C 
BRANCH  10  11
ATOM     11  N   UNL     1      44.104   3.675   8.743  0.00  0.00    +0.000 NA
ATOM     12  H   UNL     1      44.335   4.097   7.844  0.00  0.00    +0.000 HD
BRANCH  11  13
ATOM     13  C   UNL     1      44.971   2.520   8.976  0.00  0.00    +0.000 C 
BRANCH  13  14
ATOM     14  C   UNL     1      45.998   2.386   7.886  0.00  0.00    +0.000 A 
ATOM     15  C   UNL     1      46.113   3.332   6.862  0.00  0.00    +0.000 A 
ATOM     16  C   UNL     1      47.062   3.157   5.859  0.00  0.00    +0.000 A 
ATOM     17  C   UNL     1      47.871   2.036   5.910  0.00  0.00    +0.000 A 
ATOM     18  N   UNL     1      47.792   1.096   6.880  0.00  0.00    +0.000 NA
ATOM     19  C   UNL     1      46.858   1.293   7.839  0.00  0.00    +0.000 A 
ENDBRANCH  13  14
ENDBRANCH  11  13
ENDBRANCH  10  11
ENDBRANCH   7  10
ENDBRANCH   1   7
BRANCH   4  20
ATOM     20  C   UNL     1      48.574   6.815  14.393  0.00  0.00    +0.000 C 
BRANCH  20  21
ATOM     21  N   UNL     1      48.296   6.697  15.802  0.00  0.00    +0.000 N 
ATOM     22  C   UNL     1      49.223   6.193  16.675  0.00  0.00    +0.000 C 
ATOM     23  O   UNL     1      50.343   5.843  16.310  0.00  0.00    +0.000 OA
ATOM     24  H   UNL     1      47.323   6.758  16.083  0.00  0.00    +0.000 HD
BRANCH  22  25
ATOM     25  C   UNL     1      48.829   6.151  18.090  0.00  0.00    +0.000 A 
ATOM     26  C   UNL     1      49.001   4.981  18.816  0.00  0.00    +0.000 A 
ATOM     27  S   UNL     1      48.533   5.120  20.452  0.00  0.00    +0.000 S 
ATOM     28  C   UNL     1      48.039   6.731  20.232  0.00  0.00    +0.000 A 
ATOM     29  N   UNL     1      47.497   7.443  21.254  0.00  0.00    +0.000 NA
ATOM     30  C   UNL     1      47.136   8.641  20.940  0.00  0.00    +0.000 A 
ATOM     31  N   UNL     1      47.280   9.196  19.693  0.00  0.00    +0.000 N 
ATOM     32  C   UNL     1      47.854   8.526  18.639  0.00  0.00    +0.000 A 
ATOM     33  O   UNL     1      48.016   9.078  17.551  0.00  0.00    +0.000 OA
ATOM     34  C   UNL     1      48.254   7.167  18.936  0.00  0.00    +0.000 A 
ATOM     35  H   UNL     1      46.990  10.149  19.516  0.00  0.00    +0.000 HD
ENDBRANCH  22  25
ENDBRANCH  20  21
ENDBRANCH   4  20
TORSDOF 9
ENDMDL
MODEL 3
REMARK VINA RESULT:    -7.923      2.218      2.788
REMARK INTER + INTRA:         -13.080
REMARK INTER:                 -11.663
REMARK INTRA:                  -1.417
REMARK UNBOUND:                -0.988
REMARK  Name = 
REMARK  10 active torsions:
REMARK  status: ('A' for Active; 'I' for Inactive)
REMARK    1  A    between atoms: C_1  and  O_2
REMARK    2  A    between atoms: O_2  and  C_3
REMARK    3  A    between atoms: C_3  and  C_4
REMARK    4  A    between atoms: C_3  and  C_13
REMARK    5  A    between atoms: C_4  and  N_5
REMARK    6  A    between atoms: N_5  and  C_6
REMARK    7  A    between atoms: C_6  and  C_7
REMARK    8  A    between atoms: C_16  and  C_17
REMARK    9  A    between atoms: C_17  and  N_18
REMARK   10  A    between atoms: C_19  and  C_21
REMARK                            x       y       z     vdW  Elec       q    Type
REMARK                         _______ _______ _______ _____ _____    ______ ____
ROOT
ATOM      1  C   UNL     1      45.832   5.092  12.021  0.00  0.00    +0.000 A 
ATOM      2  C   UNL     1      46.162   6.185  11.200  0.00  0.00    +0.000 A 
ATOM      3  C   UNL     1      47.198   7.066  11.534  0.00  0.00    +0.000 A 
ATOM      4  C   UNL     1      47.943   6.873  12.699  0.00  0.00    +0.000 A 
ATOM      5  C   UNL     1      47.603   5.811  13.543  0.00  0.00    +0.000 A 
ATOM      6  C   UNL     1      46.560   4.939  13.210  0.00  0.00    +0.000 A 
ENDROOT
BRANCH   1   7
ATOM      7  C   UNL     1      44.701   4.128  11.658  0.00  0.00    +0.000 C 
BRANCH   7   9
ATOM      8  C   UNL     1      42.861   5.064  12.946  0.00  0.00    +0.000 C 
ATOM      9  O   UNL     1      43.827   4.042  12.808  0.00  0.00    +0.000 OA
ENDBRANCH   7   9
BRANCH   7  10
ATOM     10  C   UNL     1      43.905   4.551  10.378  0.00  0.00    +0.000 C 
BRANCH  10  11
ATOM     11  N   UNL     1      43.898   3.558   9.291  0.00  0.00    +0.000 NA
ATOM     12  H   UNL     1      44.056   4.014   8.392  0.00  0.00    +0.000 HD
BRANCH  11  13
ATOM     13  C   UNL     1      44.909   2.522   9.495  0.00  0.00    +0.000 C 
BRANCH  13  14
ATOM     14  C   UNL     1      45.809   2.400   8.296  0.00  0.00    +0.000 A 
ATOM     15  C   UNL     1      45.991   3.459   7.401  0.00  0.00    +0.000 A 
ATOM     16  C   UNL     1      46.814   3.295   6.291  0.00  0.00    +0.000 A 
ATOM     17  C   UNL     1      47.432   2.071   6.108  0.00  0.00    +0.000 A 
ATOM     18  N   UNL     1      47.283   1.021   6.947  0.00  0.00    +0.000 NA
ATOM     19  C   UNL     1      46.475   1.211   8.016  0.00  0.00    +0.000 A 
ENDBRANCH  13  14
ENDBRANCH  11  13
ENDBRANCH  10  11
ENDBRANCH   7  10
ENDBRANCH   1   7
BRANCH   4  20
ATOM     20  C   UNL     1      49.052   7.820  13.072  0.00  0.00    +0.000 C 
BRANCH  20  21
ATOM     21  N   UNL     1      49.992   7.183  13.959  0.00  0.00    +0.000 N 
ATOM     22  C   UNL     1      50.687   7.897  14.899  0.00  0.00    +0.000 C 
ATOM     23  O   UNL     1      50.527   9.105  15.054  0.00  0.00    +0.000 OA
ATOM     24  H   UNL     1      50.307   6.254  13.701  0.00  0.00    +0.000 HD
BRANCH  22  25
ATOM     25  C   UNL     1      51.594   7.127  15.761  0.00  0.00    +0.000 A 
ATOM     26  C   UNL     1      52.963   7.347  15.689  0.00  0.00    +0.000 A 
ATOM     27  S   UNL     1      53.864   6.402  16.788  0.00  0.00    +0.000 S 
ATOM     28  C   UNL     1      52.462   5.631  17.361  0.00  0.00    +0.000 A 
ATOM     29  N   UNL     1      52.534   4.663  18.311  0.00  0.00    +0.000 NA
ATOM     30  C   UNL     1      51.399   4.140  18.629  0.00  0.00    +0.000 A 
ATOM     31  N   UNL     1      50.192   4.508  18.090  0.00  0.00    +0.000 N 
ATOM     32  C   UNL     1      50.067   5.507  17.152  0.00  0.00    +0.000 A 
ATOM     33  O   UNL     1      48.961   5.846  16.733  0.00  0.00    +0.000 OA
ATOM     34  C   UNL     1      51.318   6.109  16.743  0.00  0.00    +0.000 A 
ATOM     35  H   UNL     1      49.333   4.069  18.395  0.00  0.00    +0.000 HD
ENDBRANCH  22  25
ENDBRANCH  20  21
ENDBRANCH   4  20
TORSDOF 9
ENDMDL
MODEL 4
REMARK VINA RESULT:    -7.433      3.972     10.251
REMARK INTER + INTRA:         -12.332
REMARK INTER:                 -10.071
REMARK INTRA:                  -2.261
REMARK UNBOUND:                -0.988
REMARK  Name = 
REMARK  10 active torsions:
REMARK  status: ('A' for Active; 'I' for Inactive)
REMARK    1  A    between atoms: C_1  and  O_2
REMARK    2  A    between atoms: O_2  and  C_3
REMARK    3  A    between atoms: C_3  and  C_4
REMARK    4  A    between atoms: C_3  and  C_13
REMARK    5  A    between atoms: C_4  and  N_5
REMARK    6  A    between atoms: N_5  and  C_6
REMARK    7  A    between atoms: C_6  and  C_7
REMARK    8  A    between atoms: C_16  and  C_17
REMARK    9  A    between atoms: C_17  and  N_18
REMARK   10  A    between atoms: C_19  and  C_21
REMARK                            x       y       z     vdW  Elec       q    Type
REMARK                         _______ _______ _______ _____ _____    ______ ____
ROOT
ATOM      1  C   UNL     1      51.446   4.153  17.694  0.00  0.00    +0.000 A 
ATOM      2  C   UNL     1      50.594   5.238  17.425  0.00  0.00    +0.000 A 
ATOM      3  C   UNL     1      49.240   5.049  17.125  0.00  0.00    +0.000 A 
ATOM      4  C   UNL     1      48.693   3.765  17.096  0.00  0.00    +0.000 A 
ATOM      5  C   UNL     1      49.536   2.674  17.327  0.00  0.00    +0.000 A 
ATOM      6  C   UNL     1      50.892   2.866  17.615  0.00  0.00    +0.000 A 
ENDROOT
BRANCH   1   7
ATOM      7  C   UNL     1      52.926   4.356  18.022  0.00  0.00    +0.000 C 
BRANCH   7   9
ATOM      8  C   UNL     1      54.148   6.418  17.597  0.00  0.00    +0.000 C 
ATOM      9  O   UNL     1      53.449   5.309  17.067  0.00  0.00    +0.000 OA
ENDBRANCH   7   9
BRANCH   7  10
ATOM     10  C   UNL     1      53.181   4.836  19.490  0.00  0.00    +0.000 C 
BRANCH  10  11
ATOM     11  N   UNL     1      52.364   4.167  20.517  0.00  0.00    +0.000 NA
ATOM     12  H   UNL     1      52.917   3.465  21.009  0.00  0.00    +0.000 HD
BRANCH  11  13
ATOM     13  C   UNL     1      51.816   5.121  21.481  0.00  0.00    +0.000 C 
BRANCH  13  14
ATOM     14  C   UNL     1      50.443   5.576  21.069  0.00  0.00    +0.000 A 
ATOM     15  C   UNL     1      49.378   4.680  20.940  0.00  0.00    +0.000 A 
ATOM     16  C   UNL     1      48.129   5.142  20.533  0.00  0.00    +0.000 A 
ATOM     17  C   UNL     1      47.984   6.491  20.266  0.00  0.00    +0.000 A 
ATOM     18  N   UNL     1      48.987   7.391  20.377  0.00  0.00    +0.000 NA
ATOM     19  C   UNL     1      50.189   6.912  20.772  0.00  0.00    +0.000 A 
ENDBRANCH  13  14
ENDBRANCH  11  13
ENDBRANCH  10  11
ENDBRANCH   7  10
ENDBRANCH   1   7
BRANCH   4  20
ATOM     20  C   UNL     1      47.240   3.551  16.765  0.00  0.00    +0.000 C 
BRANCH  20  21
ATOM     21  N   UNL     1      46.793   4.506  15.783  0.00  0.00    +0.000 N 
ATOM     22  C   UNL     1      46.815   4.220  14.444  0.00  0.00    +0.000 C 
ATOM     23  O   UNL     1      47.187   3.132  14.013  0.00  0.00    +0.000 OA
ATOM     24  H   UNL     1      46.705   5.469  16.089  0.00  0.00    +0.000 HD
BRANCH  22  25
ATOM     25  C   UNL     1      46.306   5.267  13.547  0.00  0.00    +0.000 A 
ATOM     26  C   UNL     1      47.098   6.369  13.259  0.00  0.00    +0.000 A 
ATOM     27  S   UNL     1      46.373   7.464  12.168  0.00  0.00    +0.000 S 
ATOM     28  C   UNL     1      44.957   6.527  12.083  0.00  0.00    +0.000 A 
ATOM     29  N   UNL     1      43.898   6.926  11.332  0.00  0.00    +0.000 NA
ATOM     30  C   UNL     1      42.878   6.138  11.384  0.00  0.00    +0.000 A 
ATOM     31  N   UNL     1      42.826   4.977  12.114  0.00  0.00    +0.000 N 
ATOM     32  C   UNL     1      43.885   4.517  12.860  0.00  0.00    +0.000 A 
ATOM     33  O   UNL     1      43.819   3.443  13.457  0.00  0.00    +0.000 OA
ATOM     34  C   UNL     1      45.047   5.380  12.854  0.00  0.00    +0.000 A 
ATOM     35  H   UNL     1      42.000   4.394  12.100  0.00  0.00    +0.000 HD
ENDBRANCH  22  25
ENDBRANCH  20  21
ENDBRANCH   4  20
TORSDOF 9
ENDMDL
MODEL 5
REMARK VINA RESULT:    -7.312      3.065      9.259
REMARK INTER + INTRA:         -12.148
REMARK INTER:                 -10.217
REMARK INTRA:                  -1.931
REMARK UNBOUND:                -0.988
REMARK  Name = 
REMARK  10 active torsions:
REMARK  status: ('A' for Active; 'I' for Inactive)
REMARK    1  A    between atoms: C_1  and  O_2
REMARK    2  A    between atoms: O_2  and  C_3
REMARK    3  A    between atoms: C_3  and  C_4
REMARK    4  A    between atoms: C_3  and  C_13
REMARK    5  A    between atoms: C_4  and  N_5
REMARK    6  A    between atoms: N_5  and  C_6
REMARK    7  A    between atoms: C_6  and  C_7
REMARK    8  A    between atoms: C_16  and  C_17
REMARK    9  A    between atoms: C_17  and  N_18
REMARK   10  A    between atoms: C_19  and  C_21
REMARK                            x       y       z     vdW  Elec       q    Type
REMARK                         _______ _______ _______ _____ _____    ______ ____
ROOT
ATOM      1  C   UNL     1      48.944   8.057  16.390  0.00  0.00    +0.000 A 
ATOM      2  C   UNL     1      49.172   6.882  15.653  0.00  0.00    +0.000 A 
ATOM      3  C   UNL     1      48.815   6.783  14.303  0.00  0.00    +0.000 A 
ATOM      4  C   UNL     1      48.226   7.864  13.645  0.00  0.00    +0.000 A 
ATOM      5  C   UNL     1      47.961   9.027  14.374  0.00  0.00    +0.000 A 
ATOM      6  C   UNL     1      48.310   9.119  15.727  0.00  0.00    +0.000 A 
ENDROOT
BRANCH   1   7
ATOM      7  C   UNL     1      49.334   8.169  17.865  0.00  0.00    +0.000 C 
BRANCH   7   9
ATOM      8  C   UNL     1      51.459   9.356  17.906  0.00  0.00    +0.000 C 
ATOM      9  O   UNL     1      50.051   9.416  18.024  0.00  0.00    +0.000 OA
ENDBRANCH   7   9
BRANCH   7  10
ATOM     10  C   UNL     1      48.112   8.097  18.842  0.00  0.00    +0.000 C 
BRANCH  10  11
ATOM     11  N   UNL     1      47.237   6.927  18.660  0.00  0.00    +0.000 NA
ATOM     12  H   UNL     1      47.120   6.721  17.668  0.00  0.00    +0.000 HD
BRANCH  11  13
ATOM     13  C   UNL     1      47.760   5.746  19.345  0.00  0.00    +0.000 C 
BRANCH  13  14
ATOM     14  C   UNL     1      48.024   4.630  18.372  0.00  0.00    +0.000 A 
ATOM     15  C   UNL     1      49.218   3.901  18.392  0.00  0.00    +0.000 A 
ATOM     16  C   UNL     1      49.431   2.892  17.457  0.00  0.00    +0.000 A 
ATOM     17  C   UNL     1      48.439   2.642  16.526  0.00  0.00    +0.000 A 
ATOM     18  N   UNL     1      47.271   3.322  16.470  0.00  0.00    +0.000 NA
ATOM     19  C   UNL     1      47.095   4.298  17.390  0.00  0.00    +0.000 A 
ENDBRANCH  13  14
ENDBRANCH  11  13
ENDBRANCH  10  11
ENDBRANCH   7  10
ENDBRANCH   1   7
BRANCH   4  20
ATOM     20  C   UNL     1      47.830   7.764  12.196  0.00  0.00    +0.000 C 
BRANCH  20  21
ATOM     21  N   UNL     1      47.079   6.558  11.954  0.00  0.00    +0.000 N 
ATOM     22  C   UNL     1      45.722   6.510  12.134  0.00  0.00    +0.000 C 
ATOM     23  O   UNL     1      45.074   7.493  12.482  0.00  0.00    +0.000 OA
ATOM     24  H   UNL     1      47.609   5.695  11.895  0.00  0.00    +0.000 HD
BRANCH  22  25
ATOM     25  C   UNL     1      45.070   5.230  11.826  0.00  0.00    +0.000 A 
ATOM     26  C   UNL     1      44.392   4.546  12.825  0.00  0.00    +0.000 A 
ATOM     27  S   UNL     1      43.658   3.103  12.286  0.00  0.00    +0.000 S 
ATOM     28  C   UNL     1      44.263   3.317  10.713  0.00  0.00    +0.000 A 
ATOM     29  N   UNL     1      44.026   2.398   9.740  0.00  0.00    +0.000 NA
ATOM     30  C   UNL     1      44.571   2.670   8.603  0.00  0.00    +0.000 A 
ATOM     31  N   UNL     1      45.326   3.787   8.348  0.00  0.00    +0.000 N 
ATOM     32  C   UNL     1      45.564   4.759   9.291  0.00  0.00    +0.000 A 
ATOM     33  O   UNL     1      46.200   5.774   9.007  0.00  0.00    +0.000 OA
ATOM     34  C   UNL     1      44.992   4.488  10.592  0.00  0.00    +0.000 A 
ATOM     35  H   UNL     1      45.714   3.949   7.427  0.00  0.00    +0.000 HD
ENDBRANCH  22  25
ENDBRANCH  20  21
ENDBRANCH   4  20
TORSDOF 9
ENDMDL
MODEL 6
REMARK VINA RESULT:    -7.273      4.884      6.187
REMARK INTER + INTRA:         -12.088
REMARK INTER:                 -10.790
REMARK INTRA:                  -1.297
REMARK UNBOUND:                -0.988
REMARK  Name = 
REMARK  10 active torsions:
REMARK  status: ('A' for Active; 'I' for Inactive)
REMARK    1  A    between atoms: C_1  and  O_2
REMARK    2  A    between atoms: O_2  and  C_3
REMARK    3  A    between atoms: C_3  and  C_4
REMARK    4  A    between atoms: C_3  and  C_13
REMARK    5  A    between atoms: C_4  and  N_5
REMARK    6  A    between atoms: N_5  and  C_6
REMARK    7  A    between atoms: C_6  and  C_7
REMARK    8  A    between atoms: C_16  and  C_17
REMARK    9  A    between atoms: C_17  and  N_18
REMARK   10  A    between atoms: C_19  and  C_21
REMARK                            x       y       z     vdW  Elec       q    Type
REMARK                         _______ _______ _______ _____ _____    ______ ____
ROOT
ATOM      1  C   UNL     1      45.594   6.011  11.722  0.00  0.00    +0.000 A 
ATOM      2  C   UNL     1      46.915   6.092  12.194  0.00  0.00    +0.000 A 
ATOM      3  C   UNL     1      47.505   7.322  12.512  0.00  0.00    +0.000 A 
ATOM      4  C   UNL     1      46.783   8.510  12.377  0.00  0.00    +0.000 A 
ATOM      5  C   UNL     1      45.479   8.446  11.876  0.00  0.00    +0.000 A 
ATOM      6  C   UNL     1      44.897   7.217  11.548  0.00  0.00    +0.000 A 
ENDROOT
BRANCH   1   7
ATOM      7  C   UNL     1      44.946   4.669  11.373  0.00  0.00    +0.000 C 
BRANCH   7   9
ATOM      8  C   UNL     1      43.556   3.039  12.530  0.00  0.00    +0.000 C 
ATOM      9  O   UNL     1      44.533   4.058  12.618  0.00  0.00    +0.000 OA
ENDBRANCH   7   9
BRANCH   7  10
ATOM     10  C   UNL     1      43.740   4.795  10.383  0.00  0.00    +0.000 C 
BRANCH  10  11
ATOM     11  N   UNL     1      43.928   4.127   9.084  0.00  0.00    +0.000 NA
ATOM     12  H   UNL     1      43.161   4.358   8.452  0.00  0.00    +0.000 HD
BRANCH  11  13
ATOM     13  C   UNL     1      45.199   4.497   8.462  0.00  0.00    +0.000 C 
BRANCH  13  14
ATOM     14  C   UNL     1      45.963   3.277   8.026  0.00  0.00    +0.000 A 
ATOM     15  C   UNL     1      46.977   3.347   7.066  0.00  0.00    +0.000 A 
ATOM     16  C   UNL     1      47.641   2.189   6.673  0.00  0.00    +0.000 A 
ATOM     17  C   UNL     1      47.270   0.990   7.256  0.00  0.00    +0.000 A 
ATOM     18  N   UNL     1      46.294   0.877   8.186  0.00  0.00    +0.000 NA
ATOM     19  C   UNL     1      45.665   2.020   8.545  0.00  0.00    +0.000 A 
ENDBRANCH  13  14
ENDBRANCH  11  13
ENDBRANCH  10  11
ENDBRANCH   7  10
ENDBRANCH   1   7
BRANCH   4  20
ATOM     20  C   UNL     1      47.411   9.837  12.708  0.00  0.00    +0.000 C 
BRANCH  20  21
ATOM     21  N   UNL     1      48.817   9.831  12.391  0.00  0.00    +0.000 N 
ATOM     22  C   UNL     1      49.295  10.410  11.245  0.00  0.00    +0.000 C 
ATOM     23  O   UNL     1      48.560  10.986  10.448  0.00  0.00    +0.000 OA
ATOM     24  H   UNL     1      49.398   9.175  12.902  0.00  0.00    +0.000 HD
BRANCH  22  25
ATOM     25  C   UNL     1      50.750  10.361  11.051  0.00  0.00    +0.000 A 
ATOM     26  C   UNL     1      51.472  11.543  10.965  0.00  0.00    +0.000 A 
ATOM     27  S   UNL     1      53.152  11.305  10.784  0.00  0.00    +0.000 S 
ATOM     28  C   UNL     1      52.967   9.616  10.764  0.00  0.00    +0.000 A 
ATOM     29  N   UNL     1      54.038   8.796  10.599  0.00  0.00    +0.000 NA
ATOM     30  C   UNL     1      53.749   7.539  10.570  0.00  0.00    +0.000 A 
ATOM     31  N   UNL     1      52.484   7.026  10.703  0.00  0.00    +0.000 N 
ATOM     32  C   UNL     1      51.376   7.815  10.906  0.00  0.00    +0.000 A 
ATOM     33  O   UNL     1      50.265   7.314  11.076  0.00  0.00    +0.000 OA
ATOM     34  C   UNL     1      51.645   9.237  10.922  0.00  0.00    +0.000 A 
ATOM     35  H   UNL     1      52.326   6.027  10.687  0.00  0.00    +0.000 HD
ENDBRANCH  22  25
ENDBRANCH  20  21
ENDBRANCH   4  20
TORSDOF 9
ENDMDL
MODEL 7
REMARK VINA RESULT:    -7.088      4.096      9.513
REMARK INTER + INTRA:         -11.806
REMARK INTER:                  -9.582
REMARK INTRA:                  -2.224
REMARK UNBOUND:                -0.988
REMARK  Name = 
REMARK  10 active torsions:
REMARK  status: ('A' for Active; 'I' for Inactive)
REMARK    1  A    between atoms: C_1  and  O_2
REMARK    2  A    between atoms: O_2  and  C_3
REMARK    3  A    between atoms: C_3  and  C_4
REMARK    4  A    between atoms: C_3  and  C_13
REMARK    5  A    between atoms: C_4  and  N_5
REMARK    6  A    between atoms: N_5  and  C_6
REMARK    7  A    between atoms: C_6  and  C_7
REMARK    8  A    between atoms: C_16  and  C_17
REMARK    9  A    between atoms: C_17  and  N_18
REMARK   10  A    between atoms: C_19  and  C_21
REMARK                            x       y       z     vdW  Elec       q    Type
REMARK                         _______ _______ _______ _____ _____    ______ ____
ROOT
ATOM      1  C   UNL     1      51.310   3.542  18.290  0.00  0.00    +0.000 A 
ATOM      2  C   UNL     1      50.841   2.561  17.398  0.00  0.00    +0.000 A 
ATOM      3  C   UNL     1      49.503   2.524  16.989  0.00  0.00    +0.000 A 
ATOM      4  C   UNL     1      48.592   3.476  17.454  0.00  0.00    +0.000 A 
ATOM      5  C   UNL     1      49.037   4.435  18.368  0.00  0.00    +0.000 A 
ATOM      6  C   UNL     1      50.373   4.463  18.784  0.00  0.00    +0.000 A 
ENDROOT
BRANCH   1   7
ATOM      7  C   UNL     1      52.772   3.586  18.739  0.00  0.00    +0.000 C 
BRANCH   7   9
ATOM      8  C   UNL     1      54.601   1.987  18.890  0.00  0.00    +0.000 C 
ATOM      9  O   UNL     1      53.206   2.217  18.915  0.00  0.00    +0.000 OA
ENDBRANCH   7   9
BRANCH   7  10
ATOM     10  C   UNL     1      53.709   4.348  17.743  0.00  0.00    +0.000 C 
BRANCH  10  11
ATOM     11  N   UNL     1      53.574   5.814  17.757  0.00  0.00    +0.000 NA
ATOM     12  H   UNL     1      54.481   6.254  17.910  0.00  0.00    +0.000 HD
BRANCH  11  13
ATOM     13  C   UNL     1      52.994   6.317  16.512  0.00  0.00    +0.000 C 
BRANCH  13  14
ATOM     14  C   UNL     1      51.676   6.996  16.765  0.00  0.00    +0.000 A 
ATOM     15  C   UNL     1      50.570   6.792  15.933  0.00  0.00    +0.000 A 
ATOM     16  C   UNL     1      49.376   7.459  16.190  0.00  0.00    +0.000 A 
ATOM     17  C   UNL     1      49.324   8.315  17.275  0.00  0.00    +0.000 A 
ATOM     18  N   UNL     1      50.369   8.544  18.104  0.00  0.00    +0.000 NA
ATOM     19  C   UNL     1      51.517   7.882  17.826  0.00  0.00    +0.000 A 
ENDBRANCH  13  14
ENDBRANCH  11  13
ENDBRANCH  10  11
ENDBRANCH   7  10
ENDBRANCH   1   7
BRANCH   4  20
ATOM     20  C   UNL     1      47.149   3.438  17.027  0.00  0.00    +0.000 C 
BRANCH  20  21
ATOM     21  N   UNL     1      46.900   4.397  15.981  0.00  0.00    +0.000 N 
ATOM     22  C   UNL     1      47.039   4.068  14.659  0.00  0.00    +0.000 C 
ATOM     23  O   UNL     1      47.354   2.938  14.296  0.00  0.00    +0.000 OA
ATOM     24  H   UNL     1      46.868   5.373  16.255  0.00  0.00    +0.000 HD
BRANCH  22  25
ATOM     25  C   UNL     1      46.727   5.127  13.689  0.00  0.00    +0.000 A 
ATOM     26  C   UNL     1      47.693   6.071  13.369  0.00  0.00    +0.000 A 
ATOM     27  S   UNL     1      47.180   7.200  12.196  0.00  0.00    +0.000 S 
ATOM     28  C   UNL     1      45.635   6.496  12.113  0.00  0.00    +0.000 A 
ATOM     29  N   UNL     1      44.673   7.012  11.305  0.00  0.00    +0.000 NA
ATOM     30  C   UNL     1      43.539   6.400  11.365  0.00  0.00    +0.000 A 
ATOM     31  N   UNL     1      43.283   5.308  12.155  0.00  0.00    +0.000 N 
ATOM     32  C   UNL     1      44.236   4.731  12.962  0.00  0.00    +0.000 A 
ATOM     33  O   UNL     1      43.983   3.718  13.614  0.00  0.00    +0.000 OA
ATOM     34  C   UNL     1      45.520   5.397  12.948  0.00  0.00    +0.000 A 
ATOM     35  H   UNL     1      42.374   4.863  12.144  0.00  0.00    +0.000 HD
ENDBRANCH  22  25
ENDBRANCH  20  21
ENDBRANCH   4  20
TORSDOF 9
ENDMDL
MODEL 8
REMARK VINA RESULT:    -6.789      2.087      2.822
REMARK INTER + INTRA:         -11.349
REMARK INTER:                 -10.250
REMARK INTRA:                  -1.099
REMARK UNBOUND:                -0.988
REMARK  Name = 
REMARK  10 active torsions:
REMARK  status: ('A' for Active; 'I' for Inactive)
REMARK    1  A    between atoms: C_1  and  O_2
REMARK    2  A    between atoms: O_2  and  C_3
REMARK    3  A    between atoms: C_3  and  C_4
REMARK    4  A    between atoms: C_3  and  C_13
REMARK    5  A    between atoms: C_4  and  N_5
REMARK    6  A    between atoms: N_5  and  C_6
REMARK    7  A    between atoms: C_6  and  C_7
REMARK    8  A    between atoms: C_16  and  C_17
REMARK    9  A    between atoms: C_17  and  N_18
REMARK   10  A    between atoms: C_19  and  C_21
REMARK                            x       y       z     vdW  Elec       q    Type
REMARK                         _______ _______ _______ _____ _____    ______ ____
ROOT
ATOM      1  C   UNL     1      45.927   6.322  11.846  0.00  0.00    +0.000 A 
ATOM      2  C   UNL     1      45.246   7.302  12.589  0.00  0.00    +0.000 A 
ATOM      3  C   UNL     1      45.862   8.505  12.954  0.00  0.00    +0.000 A 
ATOM      4  C   UNL     1      47.180   8.769  12.575  0.00  0.00    +0.000 A 
ATOM      5  C   UNL     1      47.881   7.789  11.867  0.00  0.00    +0.000 A 
ATOM      6  C   UNL     1      47.265   6.583  11.514  0.00  0.00    +0.000 A 
ENDROOT
BRANCH   1   7
ATOM      7  C   UNL     1      45.257   5.007  11.446  0.00  0.00    +0.000 C 
BRANCH   7   9
ATOM      8  C   UNL     1      46.233   3.720  13.267  0.00  0.00    +0.000 C 
ATOM      9  O   UNL     1      45.068   4.238  12.657  0.00  0.00    +0.000 OA
ENDBRANCH   7   9
BRANCH   7  10
ATOM     10  C   UNL     1      43.901   5.201  10.688  0.00  0.00    +0.000 C 
BRANCH  10  11
ATOM     11  N   UNL     1      43.787   4.468   9.416  0.00  0.00    +0.000 NA
ATOM     12  H   UNL     1      44.266   4.973   8.670  0.00  0.00    +0.000 HD
BRANCH  11  13
ATOM     13  C   UNL     1      44.334   3.115   9.518  0.00  0.00    +0.000 C 
BRANCH  13  14
ATOM     14  C   UNL     1      45.399   2.883   8.482  0.00  0.00    +0.000 A 
ATOM     15  C   UNL     1      46.016   1.638   8.326  0.00  0.00    +0.000 A 
ATOM     16  C   UNL     1      47.015   1.474   7.370  0.00  0.00    +0.000 A 
ATOM     17  C   UNL     1      47.368   2.565   6.597  0.00  0.00    +0.000 A 
ATOM     18  N   UNL     1      46.799   3.786   6.716  0.00  0.00    +0.000 NA
ATOM     19  C   UNL     1      45.834   3.915   7.655  0.00  0.00    +0.000 A 
ENDBRANCH  13  14
ENDBRANCH  11  13
ENDBRANCH  10  11
ENDBRANCH   7  10
ENDBRANCH   1   7
BRANCH   4  20
ATOM     20  C   UNL     1      47.854  10.056  12.971  0.00  0.00    +0.000 C 
BRANCH  20  21
ATOM     21  N   UNL     1      48.012  10.132  14.401  0.00  0.00    +0.000 N 
ATOM     22  C   UNL     1      49.108   9.603  15.030  0.00  0.00    +0.000 C 
ATOM     23  O   UNL     1      50.021   9.065  14.411  0.00  0.00    +0.000 OA
ATOM     24  H   UNL     1      47.183  10.356  14.941  0.00  0.00    +0.000 HD
BRANCH  22  25
ATOM     25  C   UNL     1      49.164   9.771  16.489  0.00  0.00    +0.000 A 
ATOM     26  C   UNL     1      49.332  11.038  17.029  0.00  0.00    +0.000 A 
ATOM     27  S   UNL     1      49.332  11.058  18.735  0.00  0.00    +0.000 S 
ATOM     28  C   UNL     1      49.158   9.369  18.810  0.00  0.00    +0.000 A 
ATOM     29  N   UNL     1      49.123   8.720  20.003  0.00  0.00    +0.000 NA
ATOM     30  C   UNL     1      49.020   7.438  19.913  0.00  0.00    +0.000 A 
ATOM     31  N   UNL     1      48.938   6.744  18.732  0.00  0.00    +0.000 N 
ATOM     32  C   UNL     1      48.934   7.360  17.503  0.00  0.00    +0.000 A 
ATOM     33  O   UNL     1      48.802   6.707  16.468  0.00  0.00    +0.000 OA
ATOM     34  C   UNL     1      49.072   8.800  17.551  0.00  0.00    +0.000 A 
ATOM     35  H   UNL     1      48.842   5.737  18.730  0.00  0.00    +0.000 HD
ENDBRANCH  22  25
ENDBRANCH  20  21
ENDBRANCH   4  20
TORSDOF 9
ENDMDL
MODEL 9
REMARK VINA RESULT:    -6.751      4.034      8.759
REMARK INTER + INTRA:         -11.291
REMARK INTER:                  -8.587
REMARK INTRA:                  -2.703
REMARK UNBOUND:                -0.988
REMARK  Name = 
REMARK  10 active torsions:
REMARK  status: ('A' for Active; 'I' for Inactive)
REMARK    1  A    between atoms: C_1  and  O_2
REMARK    2  A    between atoms: O_2  and  C_3
REMARK    3  A    between atoms: C_3  and  C_4
REMARK    4  A    between atoms: C_3  and  C_13
REMARK    5  A    between atoms: C_4  and  N_5
REMARK    6  A    between atoms: N_5  and  C_6
REMARK    7  A    between atoms: C_6  and  C_7
REMARK    8  A    between atoms: C_16  and  C_17
REMARK    9  A    between atoms: C_17  and  N_18
REMARK   10  A    between atoms: C_19  and  C_21
REMARK                            x       y       z     vdW  Elec       q    Type
REMARK                         _______ _______ _______ _____ _____    ______ ____
ROOT
ATOM      1  C   UNL     1      51.314   6.895  17.705  0.00  0.00    +0.000 A 
ATOM      2  C   UNL     1      51.237   6.898  16.302  0.00  0.00    +0.000 A 
ATOM      3  C   UNL     1      50.291   7.674  15.621  0.00  0.00    +0.000 A 
ATOM      4  C   UNL     1      49.397   8.481  16.328  0.00  0.00    +0.000 A 
ATOM      5  C   UNL     1      49.439   8.461  17.725  0.00  0.00    +0.000 A 
ATOM      6  C   UNL     1      50.379   7.676  18.402  0.00  0.00    +0.000 A 
ENDROOT
BRANCH   1   7
ATOM      7  C   UNL     1      52.348   6.049  18.452  0.00  0.00    +0.000 C 
BRANCH   7   9
ATOM      8  C   UNL     1      52.851   6.342  20.815  0.00  0.00    +0.000 C 
ATOM      9  O   UNL     1      51.913   5.960  19.829  0.00  0.00    +0.000 OA
ENDBRANCH   7   9
BRANCH   7  10
ATOM     10  C   UNL     1      52.552   4.625  17.836  0.00  0.00    +0.000 C 
BRANCH  10  11
ATOM     11  N   UNL     1      51.822   3.540  18.514  0.00  0.00    +0.000 NA
ATOM     12  H   UNL     1      51.200   3.922  19.226  0.00  0.00    +0.000 HD
BRANCH  11  13
ATOM     13  C   UNL     1      51.047   2.736  17.571  0.00  0.00    +0.000 C 
BRANCH  13  14
ATOM     14  C   UNL     1      49.617   3.197  17.514  0.00  0.00    +0.000 A 
ATOM     15  C   UNL     1      49.140   4.221  18.340  0.00  0.00    +0.000 A 
ATOM     16  C   UNL     1      47.802   4.601  18.272  0.00  0.00    +0.000 A 
ATOM     17  C   UNL     1      46.979   3.942  17.378  0.00  0.00    +0.000 A 
ATOM     18  N   UNL     1      47.397   2.946  16.563  0.00  0.00    +0.000 NA
ATOM     19  C   UNL     1      48.702   2.598  16.654  0.00  0.00    +0.000 A 
ENDBRANCH  13  14
ENDBRANCH  11  13
ENDBRANCH  10  11
ENDBRANCH   7  10
ENDBRANCH   1   7
BRANCH   4  20
ATOM     20  C   UNL     1      48.370   9.311  15.606  0.00  0.00    +0.000 C 
BRANCH  20  21
ATOM     21  N   UNL     1      47.434   8.470  14.904  0.00  0.00    +0.000 N 
ATOM     22  C   UNL     1      47.381   8.442  13.536  0.00  0.00    +0.000 C 
ATOM     23  O   UNL     1      48.142   9.107  12.838  0.00  0.00    +0.000 OA
ATOM     24  H   UNL     1      46.659   8.099  15.444  0.00  0.00    +0.000 HD
BRANCH  22  25
ATOM     25  C   UNL     1      46.403   7.522  12.941  0.00  0.00    +0.000 A 
ATOM     26  C   UNL     1      45.363   8.026  12.173  0.00  0.00    +0.000 A 
ATOM     27  S   UNL     1      44.346   6.819  11.523  0.00  0.00    +0.000 S 
ATOM     28  C   UNL     1      45.232   5.585  12.287  0.00  0.00    +0.000 A 
ATOM     29  N   UNL     1      44.863   4.283  12.168  0.00  0.00    +0.000 NA
ATOM     30  C   UNL     1      45.603   3.455  12.825  0.00  0.00    +0.000 A 
ATOM     31  N   UNL     1      46.688   3.813  13.584  0.00  0.00    +0.000 N 
ATOM     32  C   UNL     1      47.118   5.114  13.705  0.00  0.00    +0.000 A 
ATOM     33  O   UNL     1      48.129   5.388  14.351  0.00  0.00    +0.000 OA
ATOM     34  C   UNL     1      46.305   6.085  13.004  0.00  0.00    +0.000 A 
ATOM     35  H   UNL     1      47.238   3.112  14.064  0.00  0.00    +0.000 HD
ENDBRANCH  22  25
ENDBRANCH  20  21
ENDBRANCH   4  20
TORSDOF 9
ENDMDL
