MODEL 1
REMARK VINA RESULT:    -8.474      0.000      0.000
REMARK INTER + INTRA:         -12.456
REMARK INTER:                 -11.447
REMARK INTRA:                  -1.009
REMARK UNBOUND:                -1.009
REMARK  Name = 
REMARK  6 active torsions:
REMARK  status: ('A' for Active; 'I' for Inactive)
REMARK    1  A    between atoms: C_2  and  C_20
REMARK    2  A    between atoms: N_3  and  C_4
REMARK    3  A    between atoms: C_4  and  C_5
REMARK    4  A    between atoms: C_8  and  C_9
REMARK    5  A    between atoms: C_9  and  C_10
REMARK    6  A    between atoms: C_10  and  N_11
REMARK                            x       y       z     vdW  Elec       q    Type
REMARK                         _______ _______ _______ _____ _____    ______ ____
ROOT
ATOM      1  C   UNL     1      47.093   8.269  12.830  0.00  0.00    +0.000 C 
ENDROOT
BRANCH   1   2
ATOM      2  C   UNL     1      46.175   7.182  12.344  0.00  0.00    +0.000 A 
ATOM      3  C   UNL     1      46.483   6.508  11.163  0.00  0.00    +0.000 A 
ATOM      4  C   UNL     1      45.654   5.493  10.689  0.00  0.00    +0.000 A 
ATOM      5  C   UNL     1      44.480   5.132  11.371  0.00  0.00    +0.000 A 
ATOM      6  C   UNL     1      44.151   5.841  12.536  0.00  0.00    +0.000 A 
ATOM      7  C   UNL     1      44.986   6.861  13.014  0.00  0.00    +0.000 A 
BRANCH   5   8
ATOM      8  C   UNL     1      43.567   4.009  10.901  0.00  0.00    +0.000 C 
BRANCH   8   9
ATOM      9  C   UNL     1      44.249   2.997   9.975  0.00  0.00    +0.000 C 
BRANCH   9  10
ATOM     10  N   UNL     1      44.272   3.424   8.583  0.00  0.00    +0.000 N 
ATOM     11  C   UNL     1      45.382   2.876   7.911  0.00  0.00    +0.000 A 
ATOM     12  N   UNL     1      45.873   1.696   8.312  0.00  0.00    +0.000 NA
ATOM     13  C   UNL     1      46.961   1.229   7.693  0.00  0.00    +0.000 A 
ATOM     14  C   UNL     1      47.576   1.894   6.660  0.00  0.00    +0.000 A 
ATOM     15  C   UNL     1      46.984   3.087   6.311  0.00  0.00    +0.000 A 
ATOM     16  N   UNL     1      45.902   3.604   6.921  0.00  0.00    +0.000 NA
ATOM     17  H   UNL     1      44.317   4.425   8.420  0.00  0.00    +0.000 HD
ENDBRANCH   9  10
ENDBRANCH   8   9
ENDBRANCH   5   8
ENDBRANCH   1   2
BRANCH   1  20
ATOM     18  O   UNL     1      49.201   6.517  13.503  0.00  0.00    +0.000 OA
ATOM     19  C   UNL     1      48.532   7.042  14.382  0.00  0.00    +0.000 C 
ATOM     20  N   UNL     1      47.535   7.963  14.158  0.00  0.00    +0.000 N 
ATOM     21  H   UNL     1      46.828   8.049  14.873  0.00  0.00    +0.000 HD
BRANCH  19  22
ATOM     22  C   UNL     1      48.491   6.582  15.759  0.00  0.00    +0.000 A 
ATOM     23  C   UNL     1      48.998   7.346  16.796  0.00  0.00    +0.000 A 
ATOM     24  S   UNL     1      49.583   6.336  18.054  0.00  0.00    +0.000 S 
ATOM     25  C   UNL     1      48.931   4.941  17.308  0.00  0.00    +0.000 A 
ATOM     26  N   UNL     1      49.188   3.686  17.772  0.00  0.00    +0.000 NA
ATOM     27  C   UNL     1      48.551   2.754  17.138  0.00  0.00    +0.000 A 
ATOM     28  N   UNL     1      47.653   2.960  16.122  0.00  0.00    +0.000 N 
ATOM     29  C   UNL     1      47.374   4.213  15.606  0.00  0.00    +0.000 A 
ATOM     30  O   UNL     1      46.533   4.385  14.742  0.00  0.00    +0.000 OA
ATOM     31  C   UNL     1      48.161   5.264  16.219  0.00  0.00    +0.000 A 
ATOM     32  H   UNL     1      47.114   2.193  15.741  0.00  0.00    +0.000 HD
ENDBRANCH  19  22
ENDBRANCH   1  20
TORSDOF 6
ENDMDL
MODEL 2
REMARK VINA RESULT:    -8.253      1.801      2.119
REMARK INTER + INTRA:         -12.157
REMARK INTER:                 -11.284
REMARK INTRA:                  -0.874
REMARK UNBOUND:                -1.009
REMARK  Name = 
REMARK  6 active torsions:
REMARK  status: ('A' for Active; 'I' for Inactive)
REMARK    1  A    between atoms: C_2  and  C_20
REMARK    2  A    between atoms: N_3  and  C_4
REMARK    3  A    between atoms: C_4  and  C_5
REMARK    4  A    between atoms: C_8  and  C_9
REMARK    5  A    between atoms: C_9  and  C_10
REMARK    6  A    between atoms: C_10  and  N_11
REMARK                            x       y       z     vdW  Elec       q    Type
REMARK                         _______ _______ _______ _____ _____    ______ ____
ROOT
ATOM      1  C   UNL     1      48.617   6.534  13.888  0.00  0.00    +0.000 C 
ENDROOT
BRANCH   1   2
ATOM      2  C   UNL     1      47.326   6.163  13.215  0.00  0.00    +0.000 A 
ATOM      3  C   UNL     1      46.915   6.874  12.088  0.00  0.00    +0.000 A 
ATOM      4  C   UNL     1      45.726   6.550  11.439  0.00  0.00    +0.000 A 
ATOM      5  C   UNL     1      44.897   5.518  11.908  0.00  0.00    +0.000 A 
ATOM      6  C   UNL     1      45.292   4.832  13.067  0.00  0.00    +0.000 A 
ATOM      7  C   UNL     1      46.490   5.156  13.719  0.00  0.00    +0.000 A 
BRANCH   5   8
ATOM      8  C   UNL     1      43.607   5.116  11.209  0.00  0.00    +0.000 C 
BRANCH   8   9
ATOM      9  C   UNL     1      43.765   3.950  10.229  0.00  0.00    +0.000 C 
BRANCH   9  10
ATOM     10  N   UNL     1      44.122   4.381   8.884  0.00  0.00    +0.000 N 
ATOM     11  C   UNL     1      45.101   3.533   8.331  0.00  0.00    +0.000 A 
ATOM     12  N   UNL     1      45.149   2.251   8.715  0.00  0.00    +0.000 NA
ATOM     13  C   UNL     1      46.125   1.486   8.217  0.00  0.00    +0.000 A 
ATOM     14  C   UNL     1      47.058   1.952   7.323  0.00  0.00    +0.000 A 
ATOM     15  C   UNL     1      46.911   3.277   6.978  0.00  0.00    +0.000 A 
ATOM     16  N   UNL     1      45.957   4.089   7.471  0.00  0.00    +0.000 NA
ATOM     17  H   UNL     1      44.490   5.323   8.796  0.00  0.00    +0.000 HD
ENDBRANCH   9  10
ENDBRANCH   8   9
ENDBRANCH   5   8
ENDBRANCH   1   2
BRANCH   1  20
ATOM     18  O   UNL     1      50.314   6.138  16.108  0.00  0.00    +0.000 OA
ATOM     19  C   UNL     1      49.217   6.657  16.256  0.00  0.00    +0.000 C 
ATOM     20  N   UNL     1      48.352   6.958  15.231  0.00  0.00    +0.000 N 
ATOM     21  H   UNL     1      47.374   7.032  15.469  0.00  0.00    +0.000 HD
BRANCH  19  22
ATOM     22  C   UNL     1      48.543   6.784  17.536  0.00  0.00    +0.000 A 
ATOM     23  C   UNL     1      48.223   8.021  18.070  0.00  0.00    +0.000 A 
ATOM     24  S   UNL     1      48.244   7.957  19.785  0.00  0.00    +0.000 S 
ATOM     25  C   UNL     1      48.429   6.256  19.771  0.00  0.00    +0.000 A 
ATOM     26  N   UNL     1      48.667   5.546  20.909  0.00  0.00    +0.000 NA
ATOM     27  C   UNL     1      48.700   4.264  20.727  0.00  0.00    +0.000 A 
ATOM     28  N   UNL     1      48.475   3.628  19.534  0.00  0.00    +0.000 N 
ATOM     29  C   UNL     1      48.248   4.308  18.350  0.00  0.00    +0.000 A 
ATOM     30  O   UNL     1      47.994   3.728  17.309  0.00  0.00    +0.000 OA
ATOM     31  C   UNL     1      48.320   5.747  18.502  0.00  0.00    +0.000 A 
ATOM     32  H   UNL     1      48.415   2.619  19.485  0.00  0.00    +0.000 HD
ENDBRANCH  19  22
ENDBRANCH   1  20
TORSDOF 6
ENDMDL
MODEL 3
REMARK VINA RESULT:    -8.211      1.492      1.897
REMARK INTER + INTRA:         -12.100
REMARK INTER:                 -11.084
REMARK INTRA:                  -1.016
REMARK UNBOUND:                -1.009
REMARK  Name = 
REMARK  6 active torsions:
REMARK  status: ('A' for Active; 'I' for Inactive)
REMARK    1  A    between atoms: C_2  and  C_20
REMARK    2  A    between atoms: N_3  and  C_4
REMARK    3  A    between atoms: C_4  and  C_5
REMARK    4  A    between atoms: C_8  and  C_9
REMARK    5  A    between atoms: C_9  and  C_10
REMARK    6  A    between atoms: C_10  and  N_11
REMARK                            x       y       z     vdW  Elec       q    Type
REMARK                         _______ _______ _______ _____ _____    ______ ____
ROOT
ATOM      1  C   UNL     1      48.188   6.924  13.550  0.00  0.00    +0.000 C 
ENDROOT
BRANCH   1   2
ATOM      2  C   UNL     1      47.048   6.189  12.902  0.00  0.00    +0.000 A 
ATOM      3  C   UNL     1      46.546   5.038  13.509  0.00  0.00    +0.000 A 
ATOM      4  C   UNL     1      45.487   4.338  12.936  0.00  0.00    +0.000 A 
ATOM      5  C   UNL     1      44.908   4.754  11.726  0.00  0.00    +0.000 A 
ATOM      6  C   UNL     1      45.442   5.888  11.096  0.00  0.00    +0.000 A 
ATOM      7  C   UNL     1      46.507   6.594  11.674  0.00  0.00    +0.000 A 
BRANCH   5   8
ATOM      8  C   UNL     1      43.731   4.034  11.086  0.00  0.00    +0.000 C 
BRANCH   8   9
ATOM      9  C   UNL     1      44.047   3.406   9.725  0.00  0.00    +0.000 C 
BRANCH   9  10
ATOM     10  N   UNL     1      45.026   2.330   9.809  0.00  0.00    +0.000 N 
ATOM     11  C   UNL     1      45.816   2.282   8.644  0.00  0.00    +0.000 A 
ATOM     12  N   UNL     1      46.041   3.411   7.958  0.00  0.00    +0.000 NA
ATOM     13  C   UNL     1      46.746   3.325   6.826  0.00  0.00    +0.000 A 
ATOM     14  C   UNL     1      47.260   2.141   6.354  0.00  0.00    +0.000 A 
ATOM     15  C   UNL     1      46.989   1.043   7.140  0.00  0.00    +0.000 A 
ATOM     16  N   UNL     1      46.266   1.081   8.275  0.00  0.00    +0.000 NA
ATOM     17  H   UNL     1      44.655   1.393   9.930  0.00  0.00    +0.000 HD
ENDBRANCH   9  10
ENDBRANCH   8   9
ENDBRANCH   5   8
ENDBRANCH   1   2
BRANCH   1  20
ATOM     18  O   UNL     1      48.627   8.182  16.038  0.00  0.00    +0.000 OA
ATOM     19  C   UNL     1      48.806   6.978  15.916  0.00  0.00    +0.000 C 
ATOM     20  N   UNL     1      48.551   6.264  14.769  0.00  0.00    +0.000 N 
ATOM     21  H   UNL     1      49.056   5.399  14.652  0.00  0.00    +0.000 HD
BRANCH  19  22
ATOM     22  C   UNL     1      49.566   6.170  16.853  0.00  0.00    +0.000 A 
ATOM     23  C   UNL     1      50.729   6.638  17.441  0.00  0.00    +0.000 A 
ATOM     24  S   UNL     1      51.799   5.337  17.771  0.00  0.00    +0.000 S 
ATOM     25  C   UNL     1      50.605   4.183  17.360  0.00  0.00    +0.000 A 
ATOM     26  N   UNL     1      50.886   2.853  17.272  0.00  0.00    +0.000 NA
ATOM     27  C   UNL     1      49.850   2.115  17.029  0.00  0.00    +0.000 A 
ATOM     28  N   UNL     1      48.563   2.572  16.912  0.00  0.00    +0.000 N 
ATOM     29  C   UNL     1      48.232   3.914  16.976  0.00  0.00    +0.000 A 
ATOM     30  O   UNL     1      47.077   4.300  16.927  0.00  0.00    +0.000 OA
ATOM     31  C   UNL     1      49.388   4.774  17.131  0.00  0.00    +0.000 A 
ATOM     32  H   UNL     1      47.787   1.928  16.825  0.00  0.00    +0.000 HD
ENDBRANCH  19  22
ENDBRANCH   1  20
TORSDOF 6
ENDMDL
MODEL 4
REMARK VINA RESULT:    -7.709      1.970      2.367
REMARK INTER + INTRA:         -11.421
REMARK INTER:                 -10.532
REMARK INTRA:                  -0.889
REMARK UNBOUND:                -1.009
REMARK  Name = 
REMARK  6 active torsions:
REMARK  status: ('A' for Active; 'I' for Inactive)
REMARK    1  A    between atoms: C_2  and  C_20
REMARK    2  A    between atoms: N_3  and  C_4
REMARK    3  A    between atoms: C_4  and  C_5
REMARK    4  A    between atoms: C_8  and  C_9
REMARK    5  A    between atoms: C_9  and  C_10
REMARK    6  A    between atoms: C_10  and  N_11
REMARK                            x       y       z     vdW  Elec       q    Type
REMARK                         _______ _______ _______ _____ _____    ______ ____
ROOT
ATOM      1  C   UNL     1      48.867   6.906  13.208  0.00  0.00    +0.000 C 
ENDROOT
BRANCH   1   2
ATOM      2  C   UNL     1      47.546   6.368  12.735  0.00  0.00    +0.000 A 
ATOM      3  C   UNL     1      46.848   7.051  11.739  0.00  0.00    +0.000 A 
ATOM      4  C   UNL     1      45.623   6.574  11.277  0.00  0.00    +0.000 A 
ATOM      5  C   UNL     1      45.046   5.410  11.810  0.00  0.00    +0.000 A 
ATOM      6  C   UNL     1      45.730   4.749  12.841  0.00  0.00    +0.000 A 
ATOM      7  C   UNL     1      46.964   5.227  13.305  0.00  0.00    +0.000 A 
BRANCH   5   8
ATOM      8  C   UNL     1      43.726   4.842  11.310  0.00  0.00    +0.000 C 
BRANCH   8   9
ATOM      9  C   UNL     1      43.880   3.728  10.270  0.00  0.00    +0.000 C 
BRANCH   9  10
ATOM     10  N   UNL     1      44.170   4.233   8.934  0.00  0.00    +0.000 N 
ATOM     11  C   UNL     1      45.183   3.470   8.322  0.00  0.00    +0.000 A 
ATOM     12  N   UNL     1      45.320   2.179   8.652  0.00  0.00    +0.000 NA
ATOM     13  C   UNL     1      46.326   1.496   8.097  0.00  0.00    +0.000 A 
ATOM     14  C   UNL     1      47.202   2.054   7.198  0.00  0.00    +0.000 A 
ATOM     15  C   UNL     1      46.966   3.380   6.912  0.00  0.00    +0.000 A 
ATOM     16  N   UNL     1      45.978   4.111   7.462  0.00  0.00    +0.000 NA
ATOM     17  H   UNL     1      44.477   5.199   8.875  0.00  0.00    +0.000 HD
ENDBRANCH   9  10
ENDBRANCH   8   9
ENDBRANCH   5   8
ENDBRANCH   1   2
BRANCH   1  20
ATOM     18  O   UNL     1      50.779   8.153  14.868  0.00  0.00    +0.000 OA
ATOM     19  C   UNL     1      49.973   7.365  15.341  0.00  0.00    +0.000 C 
ATOM     20  N   UNL     1      48.960   6.764  14.631  0.00  0.00    +0.000 N 
ATOM     21  H   UNL     1      48.603   5.894  14.997  0.00  0.00    +0.000 HD
BRANCH  19  22
ATOM     22  C   UNL     1      50.119   6.733  16.640  0.00  0.00    +0.000 A 
ATOM     23  C   UNL     1      51.108   5.794  16.885  0.00  0.00    +0.000 A 
ATOM     24  S   UNL     1      50.584   4.667  18.068  0.00  0.00    +0.000 S 
ATOM     25  C   UNL     1      49.180   5.586  18.398  0.00  0.00    +0.000 A 
ATOM     26  N   UNL     1      48.191   5.127  19.214  0.00  0.00    +0.000 NA
ATOM     27  C   UNL     1      47.241   5.983  19.417  0.00  0.00    +0.000 A 
ATOM     28  N   UNL     1      47.209   7.261  18.921  0.00  0.00    +0.000 N 
ATOM     29  C   UNL     1      48.180   7.765  18.074  0.00  0.00    +0.000 A 
ATOM     30  O   UNL     1      48.167   8.920  17.688  0.00  0.00    +0.000 OA
ATOM     31  C   UNL     1      49.196   6.789  17.737  0.00  0.00    +0.000 A 
ATOM     32  H   UNL     1      46.486   7.911  19.203  0.00  0.00    +0.000 HD
ENDBRANCH  19  22
ENDBRANCH   1  20
TORSDOF 6
ENDMDL
MODEL 5
REMARK VINA RESULT:    -7.478      3.263      5.292
REMARK INTER + INTRA:         -11.110
REMARK INTER:                  -9.995
REMARK INTRA:                  -1.115
REMARK UNBOUND:                -1.009
REMARK  Name = 
REMARK  6 active torsions:
REMARK  status: ('A' for Active; 'I' for Inactive)
REMARK    1  A    between atoms: C_2  and  C_20
REMARK    2  A    between atoms: N_3  and  C_4
REMARK    3  A    between atoms: C_4  and  C_5
REMARK    4  A    between atoms: C_8  and  C_9
REMARK    5  A    between atoms: C_9  and  C_10
REMARK    6  A    between atoms: C_10  and  N_11
REMARK                            x       y       z     vdW  Elec       q    Type
REMARK                         _______ _______ _______ _____ _____    ______ ____
ROOT
ATOM      1  C   UNL     1      48.386   6.681  13.268  0.00  0.00    +0.000 C 
ENDROOT
BRANCH   1   2
ATOM      2  C   UNL     1      47.194   5.899  12.792  0.00  0.00    +0.000 A 
ATOM      3  C   UNL     1      46.661   6.170  11.531  0.00  0.00    +0.000 A 
ATOM      4  C   UNL     1      45.559   5.459  11.060  0.00  0.00    +0.000 A 
ATOM      5  C   UNL     1      44.941   4.469  11.842  0.00  0.00    +0.000 A 
ATOM      6  C   UNL     1      45.454   4.229  13.125  0.00  0.00    +0.000 A 
ATOM      7  C   UNL     1      46.564   4.942  13.599  0.00  0.00    +0.000 A 
BRANCH   5   8
ATOM      8  C   UNL     1      43.757   3.651  11.349  0.00  0.00    +0.000 C 
BRANCH   8   9
ATOM      9  C   UNL     1      43.966   3.017   9.970  0.00  0.00    +0.000 C 
BRANCH   9  10
ATOM     10  N   UNL     1      45.115   2.122   9.924  0.00  0.00    +0.000 N 
ATOM     11  C   UNL     1      45.797   2.248   8.699  0.00  0.00    +0.000 A 
ATOM     12  N   UNL     1      45.769   3.420   8.052  0.00  0.00    +0.000 NA
ATOM     13  C   UNL     1      46.377   3.493   6.864  0.00  0.00    +0.000 A 
ATOM     14  C   UNL     1      47.039   2.432   6.297  0.00  0.00    +0.000 A 
ATOM     15  C   UNL     1      47.026   1.278   7.049  0.00  0.00    +0.000 A 
ATOM     16  N   UNL     1      46.409   1.155   8.239  0.00  0.00    +0.000 NA
ATOM     17  H   UNL     1      44.918   1.132  10.031  0.00  0.00    +0.000 HD
ENDBRANCH   9  10
ENDBRANCH   8   9
ENDBRANCH   5   8
ENDBRANCH   1   2
BRANCH   1  20
ATOM     18  O   UNL     1      48.116   9.291  14.306  0.00  0.00    +0.000 OA
ATOM     19  C   UNL     1      48.279   9.119  13.106  0.00  0.00    +0.000 C 
ATOM     20  N   UNL     1      48.493   7.896  12.516  0.00  0.00    +0.000 N 
ATOM     21  H   UNL     1      48.252   7.815  11.539  0.00  0.00    +0.000 HD
BRANCH  19  22
ATOM     22  C   UNL     1      48.001  10.124  12.095  0.00  0.00    +0.000 A 
ATOM     23  C   UNL     1      49.015  10.856  11.500  0.00  0.00    +0.000 A 
ATOM     24  S   UNL     1      48.446  12.413  11.053  0.00  0.00    +0.000 S 
ATOM     25  C   UNL     1      46.832  11.988  11.429  0.00  0.00    +0.000 A 
ATOM     26  N   UNL     1      45.824  12.903  11.423  0.00  0.00    +0.000 NA
ATOM     27  C   UNL     1      44.655  12.395  11.652  0.00  0.00    +0.000 A 
ATOM     28  N   UNL     1      44.395  11.063  11.840  0.00  0.00    +0.000 N 
ATOM     29  C   UNL     1      45.387  10.099  11.872  0.00  0.00    +0.000 A 
ATOM     30  O   UNL     1      45.135   8.913  11.984  0.00  0.00    +0.000 OA
ATOM     31  C   UNL     1      46.718  10.655  11.734  0.00  0.00    +0.000 A 
ATOM     32  H   UNL     1      43.445  10.723  11.911  0.00  0.00    +0.000 HD
ENDBRANCH  19  22
ENDBRANCH   1  20
TORSDOF 6
ENDMDL
MODEL 6
REMARK VINA RESULT:    -7.263      2.190      2.888
REMARK INTER + INTRA:         -10.819
REMARK INTER:                  -9.978
REMARK INTRA:                  -0.840
REMARK UNBOUND:                -1.009
REMARK  Name = 
REMARK  6 active torsions:
REMARK  status: ('A' for Active; 'I' for Inactive)
REMARK    1  A    between atoms: C_2  and  C_20
REMARK    2  A    between atoms: N_3  and  C_4
REMARK    3  A    between atoms: C_4  and  C_5
REMARK    4  A    between atoms: C_8  and  C_9
REMARK    5  A    between atoms: C_9  and  C_10
REMARK    6  A    between atoms: C_10  and  N_11
REMARK                            x       y       z     vdW  Elec       q    Type
REMARK                         _______ _______ _______ _____ _____    ______ ____
ROOT
ATOM      1  C   UNL     1      46.808   8.255  12.763  0.00  0.00    +0.000 C 
ENDROOT
BRANCH   1   2
ATOM      2  C   UNL     1      46.022   7.068  12.283  0.00  0.00    +0.000 A 
ATOM      3  C   UNL     1      45.058   6.505  13.120  0.00  0.00    +0.000 A 
ATOM      4  C   UNL     1      44.310   5.406  12.700  0.00  0.00    +0.000 A 
ATOM      5  C   UNL     1      44.515   4.823  11.440  0.00  0.00    +0.000 A 
ATOM      6  C   UNL     1      45.514   5.365  10.618  0.00  0.00    +0.000 A 
ATOM      7  C   UNL     1      46.266   6.472  11.038  0.00  0.00    +0.000 A 
BRANCH   5   8
ATOM      8  C   UNL     1      43.696   3.643  10.936  0.00  0.00    +0.000 C 
BRANCH   8   9
ATOM      9  C   UNL     1      44.128   3.126   9.560  0.00  0.00    +0.000 C 
BRANCH   9  10
ATOM     10  N   UNL     1      45.081   2.027   9.639  0.00  0.00    +0.000 N 
ATOM     11  C   UNL     1      45.943   2.033   8.525  0.00  0.00    +0.000 A 
ATOM     12  N   UNL     1      46.229   3.196   7.925  0.00  0.00    +0.000 NA
ATOM     13  C   UNL     1      47.003   3.163   6.835  0.00  0.00    +0.000 A 
ATOM     14  C   UNL     1      47.526   2.000   6.325  0.00  0.00    +0.000 A 
ATOM     15  C   UNL     1      47.188   0.862   7.024  0.00  0.00    +0.000 A 
ATOM     16  N   UNL     1      46.396   0.847   8.112  0.00  0.00    +0.000 NA
ATOM     17  H   UNL     1      44.688   1.092   9.680  0.00  0.00    +0.000 HD
ENDBRANCH   9  10
ENDBRANCH   8   9
ENDBRANCH   5   8
ENDBRANCH   1   2
BRANCH   1  20
ATOM     18  O   UNL     1      48.483   9.968  14.255  0.00  0.00    +0.000 OA
ATOM     19  C   UNL     1      48.196   8.860  14.685  0.00  0.00    +0.000 C 
ATOM     20  N   UNL     1      47.333   7.984  14.069  0.00  0.00    +0.000 N 
ATOM     21  H   UNL     1      47.445   7.006  14.289  0.00  0.00    +0.000 HD
BRANCH  19  22
ATOM     22  C   UNL     1      48.920   8.187  15.749  0.00  0.00    +0.000 A 
ATOM     23  C   UNL     1      49.904   7.251  15.481  0.00  0.00    +0.000 A 
ATOM     24  S   UNL     1      49.976   6.081  16.735  0.00  0.00    +0.000 S 
ATOM     25  C   UNL     1      48.886   6.976  17.703  0.00  0.00    +0.000 A 
ATOM     26  N   UNL     1      48.380   6.482  18.868  0.00  0.00    +0.000 NA
ATOM     27  C   UNL     1      47.636   7.323  19.512  0.00  0.00    +0.000 A 
ATOM     28  N   UNL     1      47.388   8.615  19.129  0.00  0.00    +0.000 N 
ATOM     29  C   UNL     1      47.864   9.155  17.947  0.00  0.00    +0.000 A 
ATOM     30  O   UNL     1      47.682  10.322  17.648  0.00  0.00    +0.000 OA
ATOM     31  C   UNL     1      48.605   8.200  17.149  0.00  0.00    +0.000 A 
ATOM     32  H   UNL     1      46.881   9.249  19.733  0.00  0.00    +0.000 HD
ENDBRANCH  19  22
ENDBRANCH   1  20
TORSDOF 6
ENDMDL
MODEL 7
REMARK VINA RESULT:    -7.247      1.739      2.284
REMARK INTER + INTRA:         -10.798
REMARK INTER:                  -9.799
REMARK INTRA:                  -0.999
REMARK UNBOUND:                -1.009
REMARK  Name = 
REMARK  6 active torsions:
REMARK  status: ('A' for Active; 'I' for Inactive)
REMARK    1  A    between atoms: C_2  and  C_20
REMARK    2  A    between atoms: N_3  and  C_4
REMARK    3  A    between atoms: C_4  and  C_5
REMARK    4  A    between atoms: C_8  and  C_9
REMARK    5  A    between atoms: C_9  and  C_10
REMARK    6  A    between atoms: C_10  and  N_11
REMARK                            x       y       z     vdW  Elec       q    Type
REMARK                         _______ _______ _______ _____ _____    ______ ____
ROOT
ATOM      1  C   UNL     1      47.028   8.672  12.946  0.00  0.00    +0.000 C 
ENDROOT
BRANCH   1   2
ATOM      2  C   UNL     1      46.149   7.476  12.711  0.00  0.00    +0.000 A 
ATOM      3  C   UNL     1      46.498   6.251  13.280  0.00  0.00    +0.000 A 
ATOM      4  C   UNL     1      45.701   5.126  13.084  0.00  0.00    +0.000 A 
ATOM      5  C   UNL     1      44.539   5.183  12.297  0.00  0.00    +0.000 A 
ATOM      6  C   UNL     1      44.213   6.406  11.692  0.00  0.00    +0.000 A 
ATOM      7  C   UNL     1      45.014   7.540  11.890  0.00  0.00    +0.000 A 
BRANCH   5   8
ATOM      8  C   UNL     1      43.628   3.983  12.086  0.00  0.00    +0.000 C 
BRANCH   8   9
ATOM      9  C   UNL     1      43.678   3.401  10.670  0.00  0.00    +0.000 C 
BRANCH   9  10
ATOM     10  N   UNL     1      44.730   2.406  10.501  0.00  0.00    +0.000 N 
ATOM     11  C   UNL     1      45.425   2.615   9.294  0.00  0.00    +0.000 A 
ATOM     12  N   UNL     1      45.518   3.856   8.799  0.00  0.00    +0.000 NA
ATOM     13  C   UNL     1      46.134   4.015   7.623  0.00  0.00    +0.000 A 
ATOM     14  C   UNL     1      46.685   2.971   6.921  0.00  0.00    +0.000 A 
ATOM     15  C   UNL     1      46.552   1.740   7.523  0.00  0.00    +0.000 A 
ATOM     16  N   UNL     1      45.923   1.532   8.694  0.00  0.00    +0.000 NA
ATOM     17  H   UNL     1      44.433   1.436  10.485  0.00  0.00    +0.000 HD
ENDBRANCH   9  10
ENDBRANCH   8   9
ENDBRANCH   5   8
ENDBRANCH   1   2
BRANCH   1  20
ATOM     18  O   UNL     1      49.497   8.566  14.309  0.00  0.00    +0.000 OA
ATOM     19  C   UNL     1      48.456   8.721  14.932  0.00  0.00    +0.000 C 
ATOM     20  N   UNL     1      47.215   8.858  14.355  0.00  0.00    +0.000 N 
ATOM     21  H   UNL     1      46.420   8.616  14.926  0.00  0.00    +0.000 HD
BRANCH  19  22
ATOM     22  C   UNL     1      48.324   8.511  16.363  0.00  0.00    +0.000 A 
ATOM     23  C   UNL     1      47.916   9.526  17.212  0.00  0.00    +0.000 A 
ATOM     24  S   UNL     1      48.617   9.325  18.766  0.00  0.00    +0.000 S 
ATOM     25  C   UNL     1      49.233   7.786  18.346  0.00  0.00    +0.000 A 
ATOM     26  N   UNL     1      50.076   7.096  19.165  0.00  0.00    +0.000 NA
ATOM     27  C   UNL     1      50.380   5.916  18.728  0.00  0.00    +0.000 A 
ATOM     28  N   UNL     1      49.890   5.347  17.581  0.00  0.00    +0.000 N 
ATOM     29  C   UNL     1      49.048   6.014  16.710  0.00  0.00    +0.000 A 
ATOM     30  O   UNL     1      48.576   5.474  15.724  0.00  0.00    +0.000 OA
ATOM     31  C   UNL     1      48.782   7.379  17.115  0.00  0.00    +0.000 A 
ATOM     32  H   UNL     1      50.090   4.381  17.353  0.00  0.00    +0.000 HD
ENDBRANCH  19  22
ENDBRANCH   1  20
TORSDOF 6
ENDMDL
MODEL 8
REMARK VINA RESULT:    -6.972      4.186      9.196
REMARK INTER + INTRA:         -10.426
REMARK INTER:                  -9.557
REMARK INTRA:                  -0.868
REMARK UNBOUND:                -1.009
REMARK  Name = 
REMARK  6 active torsions:
REMARK  status: ('A' for Active; 'I' for Inactive)
REMARK    1  A    between atoms: C_2  and  C_20
REMARK    2  A    between atoms: N_3  and  C_4
REMARK    3  A    between atoms: C_4  and  C_5
REMARK    4  A    between atoms: C_8  and  C_9
REMARK    5  A    between atoms: C_9  and  C_10
REMARK    6  A    between atoms: C_10  and  N_11
REMARK                            x       y       z     vdW  Elec       q    Type
REMARK                         _______ _______ _______ _____ _____    ______ ____
ROOT
ATOM      1  C   UNL     1      47.115   3.635  16.779  0.00  0.00    +0.000 C 
ENDROOT
BRANCH   1   2
ATOM      2  C   UNL     1      48.578   3.552  17.114  0.00  0.00    +0.000 A 
ATOM      3  C   UNL     1      49.244   2.336  16.959  0.00  0.00    +0.000 A 
ATOM      4  C   UNL     1      50.601   2.228  17.257  0.00  0.00    +0.000 A 
ATOM      5  C   UNL     1      51.331   3.327  17.739  0.00  0.00    +0.000 A 
ATOM      6  C   UNL     1      50.648   4.536  17.934  0.00  0.00    +0.000 A 
ATOM      7  C   UNL     1      49.283   4.646  17.633  0.00  0.00    +0.000 A 
BRANCH   5   8
ATOM      8  C   UNL     1      52.819   3.255  18.046  0.00  0.00    +0.000 C 
BRANCH   8   9
ATOM      9  C   UNL     1      53.476   1.931  17.644  0.00  0.00    +0.000 C 
BRANCH   9  10
ATOM     10  N   UNL     1      53.921   1.146  18.788  0.00  0.00    +0.000 N 
ATOM     11  C   UNL     1      54.273  -0.159  18.392  0.00  0.00    +0.000 A 
ATOM     12  N   UNL     1      54.735  -0.364  17.152  0.00  0.00    +0.000 NA
ATOM     13  C   UNL     1      55.006  -1.621  16.786  0.00  0.00    +0.000 A 
ATOM     14  C   UNL     1      54.849  -2.695  17.628  0.00  0.00    +0.000 A 
ATOM     15  C   UNL     1      54.387  -2.377  18.885  0.00  0.00    +0.000 A 
ATOM     16  N   UNL     1      54.082  -1.129  19.288  0.00  0.00    +0.000 NA
ATOM     17  H   UNL     1      53.254   1.035  19.545  0.00  0.00    +0.000 HD
ENDBRANCH   9  10
ENDBRANCH   8   9
ENDBRANCH   5   8
ENDBRANCH   1   2
BRANCH   1  20
ATOM     18  O   UNL     1      47.167   3.187  13.993  0.00  0.00    +0.000 OA
ATOM     19  C   UNL     1      47.024   4.320  14.432  0.00  0.00    +0.000 C 
ATOM     20  N   UNL     1      46.913   4.630  15.767  0.00  0.00    +0.000 N 
ATOM     21  H   UNL     1      47.163   5.569  16.037  0.00  0.00    +0.000 HD
BRANCH  19  22
ATOM     22  C   UNL     1      47.223   5.527  13.650  0.00  0.00    +0.000 A 
ATOM     23  C   UNL     1      48.184   6.464  13.990  0.00  0.00    +0.000 A 
ATOM     24  S   UNL     1      47.687   8.034  13.510  0.00  0.00    +0.000 S 
ATOM     25  C   UNL     1      46.345   7.405  12.656  0.00  0.00    +0.000 A 
ATOM     26  N   UNL     1      45.390   8.212  12.116  0.00  0.00    +0.000 NA
ATOM     27  C   UNL     1      44.490   7.574  11.436  0.00  0.00    +0.000 A 
ATOM     28  N   UNL     1      44.482   6.222  11.210  0.00  0.00    +0.000 N 
ATOM     29  C   UNL     1      45.420   5.362  11.752  0.00  0.00    +0.000 A 
ATOM     30  O   UNL     1      45.431   4.171  11.495  0.00  0.00    +0.000 OA
ATOM     31  C   UNL     1      46.372   6.034  12.612  0.00  0.00    +0.000 A 
ATOM     32  H   UNL     1      43.806   5.804  10.583  0.00  0.00    +0.000 HD
ENDBRANCH  19  22
ENDBRANCH   1  20
TORSDOF 6
ENDMDL
MODEL 9
REMARK VINA RESULT:    -6.958      3.009      4.479
REMARK INTER + INTRA:         -10.407
REMARK INTER:                  -9.636
REMARK INTRA:                  -0.771
REMARK UNBOUND:                -1.009
REMARK  Name = 
REMARK  6 active torsions:
REMARK  status: ('A' for Active; 'I' for Inactive)
REMARK    1  A    between atoms: C_2  and  C_20
REMARK    2  A    between atoms: N_3  and  C_4
REMARK    3  A    between atoms: C_4  and  C_5
REMARK    4  A    between atoms: C_8  and  C_9
REMARK    5  A    between atoms: C_9  and  C_10
REMARK    6  A    between atoms: C_10  and  N_11
REMARK                            x       y       z     vdW  Elec       q    Type
REMARK                         _______ _______ _______ _____ _____    ______ ____
ROOT
ATOM      1  C   UNL     1      48.090   6.157  14.561  0.00  0.00    +0.000 C 
ENDROOT
BRANCH   1   2
ATOM      2  C   UNL     1      46.965   5.890  13.600  0.00  0.00    +0.000 A 
ATOM      3  C   UNL     1      46.514   4.582  13.426  0.00  0.00    +0.000 A 
ATOM      4  C   UNL     1      45.470   4.303  12.547  0.00  0.00    +0.000 A 
ATOM      5  C   UNL     1      44.857   5.321  11.797  0.00  0.00    +0.000 A 
ATOM      6  C   UNL     1      45.342   6.629  11.943  0.00  0.00    +0.000 A 
ATOM      7  C   UNL     1      46.391   6.910  12.830  0.00  0.00    +0.000 A 
BRANCH   5   8
ATOM      8  C   UNL     1      43.694   5.059  10.851  0.00  0.00    +0.000 C 
BRANCH   8   9
ATOM      9  C   UNL     1      43.896   3.849   9.933  0.00  0.00    +0.000 C 
BRANCH   9  10
ATOM     10  N   UNL     1      44.242   4.223   8.568  0.00  0.00    +0.000 N 
ATOM     11  C   UNL     1      45.262   3.391   8.067  0.00  0.00    +0.000 A 
ATOM     12  N   UNL     1      45.365   2.135   8.521  0.00  0.00    +0.000 NA
ATOM     13  C   UNL     1      46.378   1.388   8.070  0.00  0.00    +0.000 A 
ATOM     14  C   UNL     1      47.294   1.847   7.155  0.00  0.00    +0.000 A 
ATOM     15  C   UNL     1      47.091   3.143   6.738  0.00  0.00    +0.000 A 
ATOM     16  N   UNL     1      46.098   3.936   7.181  0.00  0.00    +0.000 NA
ATOM     17  H   UNL     1      44.568   5.174   8.430  0.00  0.00    +0.000 HD
ENDBRANCH   9  10
ENDBRANCH   8   9
ENDBRANCH   5   8
ENDBRANCH   1   2
BRANCH   1  20
ATOM     18  O   UNL     1      48.105   8.874  15.321  0.00  0.00    +0.000 OA
ATOM     19  C   UNL     1      48.829   8.484  14.417  0.00  0.00    +0.000 C 
ATOM     20  N   UNL     1      48.947   7.172  14.023  0.00  0.00    +0.000 N 
ATOM     21  H   UNL     1      49.262   7.008  13.079  0.00  0.00    +0.000 HD
BRANCH  19  22
ATOM     22  C   UNL     1      49.461   9.359  13.445  0.00  0.00    +0.000 A 
ATOM     23  C   UNL     1      48.759  10.374  12.816  0.00  0.00    +0.000 A 
ATOM     24  S   UNL     1      49.393  10.657  11.246  0.00  0.00    +0.000 S 
ATOM     25  C   UNL     1      50.716   9.613  11.535  0.00  0.00    +0.000 A 
ATOM     26  N   UNL     1      51.592   9.266  10.551  0.00  0.00    +0.000 NA
ATOM     27  C   UNL     1      52.578   8.534  10.963  0.00  0.00    +0.000 A 
ATOM     28  N   UNL     1      52.794   8.157  12.263  0.00  0.00    +0.000 N 
ATOM     29  C   UNL     1      51.924   8.470  13.292  0.00  0.00    +0.000 A 
ATOM     30  O   UNL     1      52.160   8.176  14.451  0.00  0.00    +0.000 OA
ATOM     31  C   UNL     1      50.751   9.190  12.841  0.00  0.00    +0.000 A 
ATOM     32  H   UNL     1      53.641   7.672  12.530  0.00  0.00    +0.000 HD
ENDBRANCH  19  22
ENDBRANCH   1  20
TORSDOF 6
ENDMDL
