MODEL 1
REMARK VINA RESULT:    -8.205      0.000      0.000
REMARK INTER + INTRA:         -11.783
REMARK INTER:                 -10.843
REMARK INTRA:                  -0.940
REMARK UNBOUND:                -0.940
REMARK  Name = 
REMARK  6 active torsions:
REMARK  status: ('A' for Active; 'I' for Inactive)
REMARK    1  A    between atoms: C_2  and  C_3
REMARK    2  A    between atoms: C_6  and  C_7
REMARK    3  A    between atoms: C_7  and  N_8
REMARK    4  A    between atoms: N_8  and  C_9
REMARK    5  A    between atoms: C_11  and  C_12
REMARK    6  A    between atoms: C_21  and  O_22
REMARK                            x       y       z     vdW  Elec       q    Type
REMARK                         _______ _______ _______ _____ _____    ______ ____
ROOT
ATOM      1  C   UNL     1      44.901   4.849  12.160  0.00  0.00    +0.000 A 
ATOM      2  N   UNL     1      44.994   6.190  12.027  0.00  0.00    +0.000 NA
ATOM      3  C   UNL     1      46.078   6.835  12.523  0.00  0.00    +0.000 A 
ATOM      4  C   UNL     1      47.082   6.163  13.215  0.00  0.00    +0.000 A 
ATOM      5  C   UNL     1      46.983   4.788  13.385  0.00  0.00    +0.000 A 
ATOM      6  C   UNL     1      45.892   4.121  12.839  0.00  0.00    +0.000 A 
ENDROOT
BRANCH   3   7
ATOM      7  C   UNL     1      46.144   8.276  12.231  0.00  0.00    +0.000 A 
ATOM      8  C   UNL     1      47.376   8.959  12.219  0.00  0.00    +0.000 A 
ATOM      9  C   UNL     1      47.441  10.340  12.010  0.00  0.00    +0.000 A 
ATOM     10  C   UNL     1      46.270  11.067  11.811  0.00  0.00    +0.000 A 
ATOM     11  C   UNL     1      45.052  10.402  11.802  0.00  0.00    +0.000 A 
ATOM     12  F   UNL     1      43.920  11.095  11.616  0.00  0.00    +0.000 F 
ATOM     13  C   UNL     1      44.980   9.029  12.003  0.00  0.00    +0.000 A 
ENDBRANCH   3   7
BRANCH   1  14
ATOM     14  N   UNL     1      43.787   4.179  11.606  0.00  0.00    +0.000 N 
ATOM     15  H   UNL     1      43.885   3.193  11.827  0.00  0.00    +0.000 HD
BRANCH  14  16
ATOM     16  C   UNL     1      43.607   4.423  10.176  0.00  0.00    +0.000 C 
BRANCH  16  20
ATOM     17  C   UNL     1      46.599   2.587   7.614  0.00  0.00    +0.000 A 
ATOM     18  C   UNL     1      45.799   1.787   8.438  0.00  0.00    +0.000 A 
ATOM     19  C   UNL     1      44.844   2.366   9.280  0.00  0.00    +0.000 A 
ATOM     20  C   UNL     1      44.683   3.760   9.333  0.00  0.00    +0.000 A 
ATOM     21  C   UNL     1      45.484   4.554   8.492  0.00  0.00    +0.000 A 
ATOM     22  C   UNL     1      46.435   3.978   7.645  0.00  0.00    +0.000 A 
BRANCH  17  24
ATOM     23  N   UNL     1      48.348   1.516   6.022  0.00  0.00    +0.000 NA
ATOM     24  C   UNL     1      47.564   1.994   6.738  0.00  0.00    +0.000 C 
ENDBRANCH  17  24
ENDBRANCH  16  20
ENDBRANCH  14  16
ENDBRANCH   1  14
BRANCH   6  25
ATOM     25  O   UNL     1      45.811   2.759  12.950  0.00  0.00    +0.000 OA
ATOM     26  H   UNL     1      45.169   2.543  13.646  0.00  0.00    +0.000 HD
ENDBRANCH   6  25
TORSDOF 6
ENDMDL
MODEL 2
REMARK VINA RESULT:    -7.761      3.315      7.008
REMARK INTER + INTRA:         -11.196
REMARK INTER:                 -10.573
REMARK INTRA:                  -0.623
REMARK UNBOUND:                -0.940
REMARK  Name = 
REMARK  6 active torsions:
REMARK  status: ('A' for Active; 'I' for Inactive)
REMARK    1  A    between atoms: C_2  and  C_3
REMARK    2  A    between atoms: C_6  and  C_7
REMARK    3  A    between atoms: C_7  and  N_8
REMARK    4  A    between atoms: N_8  and  C_9
REMARK    5  A    between atoms: C_11  and  C_12
REMARK    6  A    between atoms: C_21  and  O_22
REMARK                            x       y       z     vdW  Elec       q    Type
REMARK                         _______ _______ _______ _____ _____    ______ ____
ROOT
ATOM      1  C   UNL     1      44.142   5.589  11.249  0.00  0.00    +0.000 A 
ATOM      2  N   UNL     1      44.891   5.010  10.285  0.00  0.00    +0.000 NA
ATOM      3  C   UNL     1      44.748   3.685  10.036  0.00  0.00    +0.000 A 
ATOM      4  C   UNL     1      43.887   2.884  10.780  0.00  0.00    +0.000 A 
ATOM      5  C   UNL     1      43.133   3.462  11.794  0.00  0.00    +0.000 A 
ATOM      6  C   UNL     1      43.249   4.829  12.021  0.00  0.00    +0.000 A 
ENDROOT
BRANCH   3   7
ATOM      7  C   UNL     1      45.522   3.170   8.895  0.00  0.00    +0.000 A 
ATOM      8  C   UNL     1      45.961   4.028   7.867  0.00  0.00    +0.000 A 
ATOM      9  C   UNL     1      46.637   3.535   6.746  0.00  0.00    +0.000 A 
ATOM     10  C   UNL     1      46.885   2.170   6.630  0.00  0.00    +0.000 A 
ATOM     11  C   UNL     1      46.473   1.318   7.645  0.00  0.00    +0.000 A 
ATOM     12  F   UNL     1      46.704   0.002   7.539  0.00  0.00    +0.000 F 
ATOM     13  C   UNL     1      45.807   1.800   8.765  0.00  0.00    +0.000 A 
ENDBRANCH   3   7
BRANCH   1  14
ATOM     14  N   UNL     1      44.269   6.978  11.476  0.00  0.00    +0.000 N 
ATOM     15  H   UNL     1      44.603   7.397  10.613  0.00  0.00    +0.000 HD
BRANCH  14  16
ATOM     16  C   UNL     1      45.107   7.309  12.626  0.00  0.00    +0.000 C 
BRANCH  16  20
ATOM     17  C   UNL     1      48.986   8.986  11.617  0.00  0.00    +0.000 A 
ATOM     18  C   UNL     1      47.911   9.836  11.901  0.00  0.00    +0.000 A 
ATOM     19  C   UNL     1      46.653   9.309  12.210  0.00  0.00    +0.000 A 
ATOM     20  C   UNL     1      46.437   7.921  12.222  0.00  0.00    +0.000 A 
ATOM     21  C   UNL     1      47.527   7.078  11.947  0.00  0.00    +0.000 A 
ATOM     22  C   UNL     1      48.788   7.600  11.643  0.00  0.00    +0.000 A 
BRANCH  17  24
ATOM     23  N   UNL     1      51.332   9.965  11.081  0.00  0.00    +0.000 NA
ATOM     24  C   UNL     1      50.280   9.525  11.318  0.00  0.00    +0.000 C 
ENDBRANCH  17  24
ENDBRANCH  16  20
ENDBRANCH  14  16
ENDBRANCH   1  14
BRANCH   6  25
ATOM     25  O   UNL     1      42.470   5.420  12.980  0.00  0.00    +0.000 OA
ATOM     26  H   UNL     1      41.572   5.527  12.626  0.00  0.00    +0.000 HD
ENDBRANCH   6  25
TORSDOF 6
ENDMDL
MODEL 3
REMARK VINA RESULT:    -7.702      2.096      2.712
REMARK INTER + INTRA:         -11.119
REMARK INTER:                 -11.086
REMARK INTRA:                  -0.032
REMARK UNBOUND:                -0.940
REMARK  Name = 
REMARK  6 active torsions:
REMARK  status: ('A' for Active; 'I' for Inactive)
REMARK    1  A    between atoms: C_2  and  C_3
REMARK    2  A    between atoms: C_6  and  C_7
REMARK    3  A    between atoms: C_7  and  N_8
REMARK    4  A    between atoms: N_8  and  C_9
REMARK    5  A    between atoms: C_11  and  C_12
REMARK    6  A    between atoms: C_21  and  O_22
REMARK                            x       y       z     vdW  Elec       q    Type
REMARK                         _______ _______ _______ _____ _____    ______ ____
ROOT
ATOM      1  C   UNL     1      44.986   5.441  11.689  0.00  0.00    +0.000 A 
ATOM      2  N   UNL     1      45.911   6.415  11.540  0.00  0.00    +0.000 NA
ATOM      3  C   UNL     1      46.893   6.546  12.465  0.00  0.00    +0.000 A 
ATOM      4  C   UNL     1      46.953   5.739  13.597  0.00  0.00    +0.000 A 
ATOM      5  C   UNL     1      45.991   4.754  13.776  0.00  0.00    +0.000 A 
ATOM      6  C   UNL     1      45.007   4.591  12.807  0.00  0.00    +0.000 A 
ENDROOT
BRANCH   3   7
ATOM      7  C   UNL     1      47.917   7.559  12.158  0.00  0.00    +0.000 A 
ATOM      8  C   UNL     1      47.582   8.924  12.058  0.00  0.00    +0.000 A 
ATOM      9  C   UNL     1      48.535   9.883  11.701  0.00  0.00    +0.000 A 
ATOM     10  C   UNL     1      49.845   9.493  11.433  0.00  0.00    +0.000 A 
ATOM     11  C   UNL     1      50.191   8.154  11.547  0.00  0.00    +0.000 A 
ATOM     12  F   UNL     1      51.448   7.770  11.287  0.00  0.00    +0.000 F 
ATOM     13  C   UNL     1      49.251   7.196  11.908  0.00  0.00    +0.000 A 
ENDBRANCH   3   7
BRANCH   1  14
ATOM     14  N   UNL     1      43.988   5.285  10.701  0.00  0.00    +0.000 N 
ATOM     15  H   UNL     1      43.146   5.737  11.048  0.00  0.00    +0.000 HD
BRANCH  14  16
ATOM     16  C   UNL     1      43.763   3.896  10.309  0.00  0.00    +0.000 C 
BRANCH  16  20
ATOM     17  C   UNL     1      46.685   2.485   7.419  0.00  0.00    +0.000 A 
ATOM     18  C   UNL     1      46.365   3.846   7.480  0.00  0.00    +0.000 A 
ATOM     19  C   UNL     1      45.413   4.311   8.394  0.00  0.00    +0.000 A 
ATOM     20  C   UNL     1      44.746   3.422   9.252  0.00  0.00    +0.000 A 
ATOM     21  C   UNL     1      45.085   2.059   9.190  0.00  0.00    +0.000 A 
ATOM     22  C   UNL     1      46.040   1.591   8.283  0.00  0.00    +0.000 A 
BRANCH  17  24
ATOM     23  N   UNL     1      48.474   1.620   5.747  0.00  0.00    +0.000 NA
ATOM     24  C   UNL     1      47.673   2.011   6.497  0.00  0.00    +0.000 C 
ENDBRANCH  17  24
ENDBRANCH  16  20
ENDBRANCH  14  16
ENDBRANCH   1  14
BRANCH   6  25
ATOM     25  O   UNL     1      44.086   3.587  12.944  0.00  0.00    +0.000 OA
ATOM     26  H   UNL     1      44.080   3.060  12.128  0.00  0.00    +0.000 HD
ENDBRANCH   6  25
TORSDOF 6
ENDMDL
MODEL 4
REMARK VINA RESULT:    -7.512      3.554      7.511
REMARK INTER + INTRA:         -10.867
REMARK INTER:                 -10.287
REMARK INTRA:                  -0.581
REMARK UNBOUND:                -0.940
REMARK  Name = 
REMARK  6 active torsions:
REMARK  status: ('A' for Active; 'I' for Inactive)
REMARK    1  A    between atoms: C_2  and  C_3
REMARK    2  A    between atoms: C_6  and  C_7
REMARK    3  A    between atoms: C_7  and  N_8
REMARK    4  A    between atoms: N_8  and  C_9
REMARK    5  A    between atoms: C_11  and  C_12
REMARK    6  A    between atoms: C_21  and  O_22
REMARK                            x       y       z     vdW  Elec       q    Type
REMARK                         _______ _______ _______ _____ _____    ______ ____
ROOT
ATOM      1  C   UNL     1      44.884   5.521  11.850  0.00  0.00    +0.000 A 
ATOM      2  N   UNL     1      45.497   4.877  10.833  0.00  0.00    +0.000 NA
ATOM      3  C   UNL     1      44.843   3.881  10.186  0.00  0.00    +0.000 A 
ATOM      4  C   UNL     1      43.572   3.462  10.571  0.00  0.00    +0.000 A 
ATOM      5  C   UNL     1      42.945   4.096  11.635  0.00  0.00    +0.000 A 
ATOM      6  C   UNL     1      43.598   5.146  12.271  0.00  0.00    +0.000 A 
ENDROOT
BRANCH   3   7
ATOM      7  C   UNL     1      45.545   3.317   9.021  0.00  0.00    +0.000 A 
ATOM      8  C   UNL     1      45.968   4.140   7.959  0.00  0.00    +0.000 A 
ATOM      9  C   UNL     1      46.574   3.602   6.819  0.00  0.00    +0.000 A 
ATOM     10  C   UNL     1      46.766   2.227   6.718  0.00  0.00    +0.000 A 
ATOM     11  C   UNL     1      46.369   1.408   7.766  0.00  0.00    +0.000 A 
ATOM     12  F   UNL     1      46.546   0.083   7.675  0.00  0.00    +0.000 F 
ATOM     13  C   UNL     1      45.773   1.935   8.905  0.00  0.00    +0.000 A 
ENDBRANCH   3   7
BRANCH   1  14
ATOM     14  N   UNL     1      45.557   6.584  12.494  0.00  0.00    +0.000 N 
ATOM     15  H   UNL     1      45.285   7.443  12.025  0.00  0.00    +0.000 HD
BRANCH  14  16
ATOM     16  C   UNL     1      47.006   6.408  12.556  0.00  0.00    +0.000 C 
BRANCH  16  20
ATOM     17  C   UNL     1      48.181   5.025  16.504  0.00  0.00    +0.000 A 
ATOM     18  C   UNL     1      48.732   6.202  15.985  0.00  0.00    +0.000 A 
ATOM     19  C   UNL     1      48.375   6.650  14.708  0.00  0.00    +0.000 A 
ATOM     20  C   UNL     1      47.476   5.918  13.915  0.00  0.00    +0.000 A 
ATOM     21  C   UNL     1      46.921   4.743  14.452  0.00  0.00    +0.000 A 
ATOM     22  C   UNL     1      47.270   4.296  15.730  0.00  0.00    +0.000 A 
BRANCH  17  24
ATOM     23  N   UNL     1      48.817   4.218  18.889  0.00  0.00    +0.000 NA
ATOM     24  C   UNL     1      48.532   4.576  17.819  0.00  0.00    +0.000 C 
ENDBRANCH  17  24
ENDBRANCH  16  20
ENDBRANCH  14  16
ENDBRANCH   1  14
BRANCH   6  25
ATOM     25  O   UNL     1      42.967   5.817  13.285  0.00  0.00    +0.000 OA
ATOM     26  H   UNL     1      42.109   6.133  12.959  0.00  0.00    +0.000 HD
ENDBRANCH   6  25
TORSDOF 6
ENDMDL
MODEL 5
REMARK VINA RESULT:    -7.106      2.122      2.875
REMARK INTER + INTRA:         -10.331
REMARK INTER:                  -9.649
REMARK INTRA:                  -0.682
REMARK UNBOUND:                -0.940
REMARK  Name = 
REMARK  6 active torsions:
REMARK  status: ('A' for Active; 'I' for Inactive)
REMARK    1  A    between atoms: C_2  and  C_3
REMARK    2  A    between atoms: C_6  and  C_7
REMARK    3  A    between atoms: C_7  and  N_8
REMARK    4  A    between atoms: N_8  and  C_9
REMARK    5  A    between atoms: C_11  and  C_12
REMARK    6  A    between atoms: C_21  and  O_22
REMARK                            x       y       z     vdW  Elec       q    Type
REMARK                         _______ _______ _______ _____ _____    ______ ____
ROOT
ATOM      1  C   UNL     1      44.708   6.684  12.013  0.00  0.00    +0.000 A 
ATOM      2  N   UNL     1      43.988   7.601  11.330  0.00  0.00    +0.000 NA
ATOM      3  C   UNL     1      44.310   8.913  11.436  0.00  0.00    +0.000 A 
ATOM      4  C   UNL     1      45.332   9.356  12.270  0.00  0.00    +0.000 A 
ATOM      5  C   UNL     1      46.059   8.426  13.001  0.00  0.00    +0.000 A 
ATOM      6  C   UNL     1      45.757   7.076  12.860  0.00  0.00    +0.000 A 
ENDROOT
BRANCH   3   7
ATOM      7  C   UNL     1      43.545   9.823  10.568  0.00  0.00    +0.000 A 
ATOM      8  C   UNL     1      44.194  10.664   9.643  0.00  0.00    +0.000 A 
ATOM      9  C   UNL     1      43.479  11.580   8.865  0.00  0.00    +0.000 A 
ATOM     10  C   UNL     1      42.097  11.674   8.999  0.00  0.00    +0.000 A 
ATOM     11  C   UNL     1      41.444  10.838   9.894  0.00  0.00    +0.000 A 
ATOM     12  F   UNL     1      40.114  10.925  10.032  0.00  0.00    +0.000 F 
ATOM     13  C   UNL     1      42.146   9.921  10.666  0.00  0.00    +0.000 A 
ENDBRANCH   3   7
BRANCH   1  14
ATOM     14  N   UNL     1      44.390   5.315  11.868  0.00  0.00    +0.000 N 
ATOM     15  H   UNL     1      45.240   4.786  12.045  0.00  0.00    +0.000 HD
BRANCH  14  16
ATOM     16  C   UNL     1      43.779   4.988  10.582  0.00  0.00    +0.000 C 
BRANCH  16  20
ATOM     17  C   UNL     1      46.271   2.602   7.939  0.00  0.00    +0.000 A 
ATOM     18  C   UNL     1      45.423   1.971   8.857  0.00  0.00    +0.000 A 
ATOM     19  C   UNL     1      44.629   2.727   9.725  0.00  0.00    +0.000 A 
ATOM     20  C   UNL     1      44.681   4.131   9.709  0.00  0.00    +0.000 A 
ATOM     21  C   UNL     1      45.528   4.754   8.775  0.00  0.00    +0.000 A 
ATOM     22  C   UNL     1      46.319   4.002   7.902  0.00  0.00    +0.000 A 
BRANCH  17  24
ATOM     23  N   UNL     1      47.724   1.196   6.309  0.00  0.00    +0.000 NA
ATOM     24  C   UNL     1      47.072   1.829   7.037  0.00  0.00    +0.000 C 
ENDBRANCH  17  24
ENDBRANCH  16  20
ENDBRANCH  14  16
ENDBRANCH   1  14
BRANCH   6  25
ATOM     25  O   UNL     1      46.503   6.145  13.532  0.00  0.00    +0.000 OA
ATOM     26  H   UNL     1      46.102   5.271  13.396  0.00  0.00    +0.000 HD
ENDBRANCH   6  25
TORSDOF 6
ENDMDL
MODEL 6
REMARK VINA RESULT:    -7.029      2.962      4.291
REMARK INTER + INTRA:         -10.229
REMARK INTER:                 -10.431
REMARK INTRA:                   0.202
REMARK UNBOUND:                -0.940
REMARK  Name = 
REMARK  6 active torsions:
REMARK  status: ('A' for Active; 'I' for Inactive)
REMARK    1  A    between atoms: C_2  and  C_3
REMARK    2  A    between atoms: C_6  and  C_7
REMARK    3  A    between atoms: C_7  and  N_8
REMARK    4  A    between atoms: N_8  and  C_9
REMARK    5  A    between atoms: C_11  and  C_12
REMARK    6  A    between atoms: C_21  and  O_22
REMARK                            x       y       z     vdW  Elec       q    Type
REMARK                         _______ _______ _______ _____ _____    ______ ____
ROOT
ATOM      1  C   UNL     1      44.841   5.138  12.245  0.00  0.00    +0.000 A 
ATOM      2  N   UNL     1      45.705   4.825  13.234  0.00  0.00    +0.000 NA
ATOM      3  C   UNL     1      46.502   5.791  13.753  0.00  0.00    +0.000 A 
ATOM      4  C   UNL     1      46.497   7.094  13.262  0.00  0.00    +0.000 A 
ATOM      5  C   UNL     1      45.635   7.421  12.224  0.00  0.00    +0.000 A 
ATOM      6  C   UNL     1      44.787   6.440  11.720  0.00  0.00    +0.000 A 
ENDROOT
BRANCH   3   7
ATOM      7  C   UNL     1      47.327   5.381  14.902  0.00  0.00    +0.000 A 
ATOM      8  C   UNL     1      48.372   6.197  15.376  0.00  0.00    +0.000 A 
ATOM      9  C   UNL     1      49.202   5.783  16.422  0.00  0.00    +0.000 A 
ATOM     10  C   UNL     1      49.003   4.539  17.015  0.00  0.00    +0.000 A 
ATOM     11  C   UNL     1      47.965   3.734  16.569  0.00  0.00    +0.000 A 
ATOM     12  F   UNL     1      47.769   2.534  17.132  0.00  0.00    +0.000 F 
ATOM     13  C   UNL     1      47.132   4.141  15.535  0.00  0.00    +0.000 A 
ENDBRANCH   3   7
BRANCH   1  14
ATOM     14  N   UNL     1      43.987   4.135  11.735  0.00  0.00    +0.000 N 
ATOM     15  H   UNL     1      44.413   3.238  11.948  0.00  0.00    +0.000 HD
BRANCH  14  16
ATOM     16  C   UNL     1      43.679   4.292  10.316  0.00  0.00    +0.000 C 
BRANCH  16  20
ATOM     17  C   UNL     1      46.600   2.559   7.604  0.00  0.00    +0.000 A 
ATOM     18  C   UNL     1      45.849   1.729   8.445  0.00  0.00    +0.000 A 
ATOM     19  C   UNL     1      44.918   2.275   9.335  0.00  0.00    +0.000 A 
ATOM     20  C   UNL     1      44.732   3.665   9.418  0.00  0.00    +0.000 A 
ATOM     21  C   UNL     1      45.484   4.488   8.561  0.00  0.00    +0.000 A 
ATOM     22  C   UNL     1      46.411   3.946   7.666  0.00  0.00    +0.000 A 
BRANCH  17  24
ATOM     23  N   UNL     1      48.308   1.543   5.933  0.00  0.00    +0.000 NA
ATOM     24  C   UNL     1      47.540   1.999   6.680  0.00  0.00    +0.000 C 
ENDBRANCH  17  24
ENDBRANCH  16  20
ENDBRANCH  14  16
ENDBRANCH   1  14
BRANCH   6  25
ATOM     25  O   UNL     1      43.893   6.764  10.735  0.00  0.00    +0.000 OA
ATOM     26  H   UNL     1      43.251   6.041  10.651  0.00  0.00    +0.000 HD
ENDBRANCH   6  25
TORSDOF 6
ENDMDL
MODEL 7
REMARK VINA RESULT:    -6.592      4.184      8.038
REMARK INTER + INTRA:          -9.651
REMARK INTER:                  -9.101
REMARK INTRA:                  -0.550
REMARK UNBOUND:                -0.940
REMARK  Name = 
REMARK  6 active torsions:
REMARK  status: ('A' for Active; 'I' for Inactive)
REMARK    1  A    between atoms: C_2  and  C_3
REMARK    2  A    between atoms: C_6  and  C_7
REMARK    3  A    between atoms: C_7  and  N_8
REMARK    4  A    between atoms: N_8  and  C_9
REMARK    5  A    between atoms: C_11  and  C_12
REMARK    6  A    between atoms: C_21  and  O_22
REMARK                            x       y       z     vdW  Elec       q    Type
REMARK                         _______ _______ _______ _____ _____    ______ ____
ROOT
ATOM      1  C   UNL     1      46.471   6.488  13.020  0.00  0.00    +0.000 A 
ATOM      2  N   UNL     1      46.155   5.494  12.161  0.00  0.00    +0.000 NA
ATOM      3  C   UNL     1      45.306   5.745  11.135  0.00  0.00    +0.000 A 
ATOM      4  C   UNL     1      44.704   6.989  10.964  0.00  0.00    +0.000 A 
ATOM      5  C   UNL     1      44.997   8.010  11.858  0.00  0.00    +0.000 A 
ATOM      6  C   UNL     1      45.901   7.764  12.886  0.00  0.00    +0.000 A 
ENDROOT
BRANCH   3   7
ATOM      7  C   UNL     1      45.112   4.634  10.189  0.00  0.00    +0.000 A 
ATOM      8  C   UNL     1      44.482   3.439  10.590  0.00  0.00    +0.000 A 
ATOM      9  C   UNL     1      44.356   2.355   9.717  0.00  0.00    +0.000 A 
ATOM     10  C   UNL     1      44.860   2.444   8.422  0.00  0.00    +0.000 A 
ATOM     11  C   UNL     1      45.466   3.622   8.010  0.00  0.00    +0.000 A 
ATOM     12  F   UNL     1      45.958   3.715   6.767  0.00  0.00    +0.000 F 
ATOM     13  C   UNL     1      45.590   4.707   8.870  0.00  0.00    +0.000 A 
ENDBRANCH   3   7
BRANCH   1  14
ATOM     14  N   UNL     1      47.387   6.228  14.064  0.00  0.00    +0.000 N 
ATOM     15  H   UNL     1      48.317   6.428  13.708  0.00  0.00    +0.000 HD
BRANCH  14  16
ATOM     16  C   UNL     1      47.273   4.883  14.623  0.00  0.00    +0.000 C 
BRANCH  16  20
ATOM     17  C   UNL     1      48.461   4.678  18.798  0.00  0.00    +0.000 A 
ATOM     18  C   UNL     1      48.867   5.761  18.009  0.00  0.00    +0.000 A 
ATOM     19  C   UNL     1      48.505   5.831  16.659  0.00  0.00    +0.000 A 
ATOM     20  C   UNL     1      47.749   4.808  16.064  0.00  0.00    +0.000 A 
ATOM     21  C   UNL     1      47.338   3.731  16.869  0.00  0.00    +0.000 A 
ATOM     22  C   UNL     1      47.691   3.661  18.219  0.00  0.00    +0.000 A 
BRANCH  17  24
ATOM     23  N   UNL     1      49.109   4.566  21.310  0.00  0.00    +0.000 NA
ATOM     24  C   UNL     1      48.815   4.616  20.184  0.00  0.00    +0.000 C 
ENDBRANCH  17  24
ENDBRANCH  16  20
ENDBRANCH  14  16
ENDBRANCH   1  14
BRANCH   6  25
ATOM     25  O   UNL     1      46.242   8.779  13.740  0.00  0.00    +0.000 OA
ATOM     26  H   UNL     1      46.989   9.267  13.358  0.00  0.00    +0.000 HD
ENDBRANCH   6  25
TORSDOF 6
ENDMDL
MODEL 8
REMARK VINA RESULT:    -6.272      4.731      7.478
REMARK INTER + INTRA:          -9.229
REMARK INTER:                  -8.529
REMARK INTRA:                  -0.700
REMARK UNBOUND:                -0.940
REMARK  Name = 
REMARK  6 active torsions:
REMARK  status: ('A' for Active; 'I' for Inactive)
REMARK    1  A    between atoms: C_2  and  C_3
REMARK    2  A    between atoms: C_6  and  C_7
REMARK    3  A    between atoms: C_7  and  N_8
REMARK    4  A    between atoms: N_8  and  C_9
REMARK    5  A    between atoms: C_11  and  C_12
REMARK    6  A    between atoms: C_21  and  O_22
REMARK                            x       y       z     vdW  Elec       q    Type
REMARK                         _______ _______ _______ _____ _____    ______ ____
ROOT
ATOM      1  C   UNL     1      48.148   6.523  14.455  0.00  0.00    +0.000 A 
ATOM      2  N   UNL     1      46.951   6.091  14.003  0.00  0.00    +0.000 NA
ATOM      3  C   UNL     1      46.667   6.178  12.680  0.00  0.00    +0.000 A 
ATOM      4  C   UNL     1      47.554   6.750  11.773  0.00  0.00    +0.000 A 
ATOM      5  C   UNL     1      48.776   7.226  12.230  0.00  0.00    +0.000 A 
ATOM      6  C   UNL     1      49.084   7.098  13.581  0.00  0.00    +0.000 A 
ENDROOT
BRANCH   3   7
ATOM      7  C   UNL     1      45.388   5.579  12.267  0.00  0.00    +0.000 A 
ATOM      8  C   UNL     1      44.404   6.344  11.610  0.00  0.00    +0.000 A 
ATOM      9  C   UNL     1      43.161   5.799  11.276  0.00  0.00    +0.000 A 
ATOM     10  C   UNL     1      42.875   4.475  11.597  0.00  0.00    +0.000 A 
ATOM     11  C   UNL     1      43.842   3.706  12.227  0.00  0.00    +0.000 A 
ATOM     12  F   UNL     1      43.573   2.432  12.543  0.00  0.00    +0.000 F 
ATOM     13  C   UNL     1      45.083   4.238  12.557  0.00  0.00    +0.000 A 
ENDBRANCH   3   7
BRANCH   1  14
ATOM     14  N   UNL     1      48.451   6.393  15.829  0.00  0.00    +0.000 N 
ATOM     15  H   UNL     1      49.463   6.405  15.919  0.00  0.00    +0.000 HD
BRANCH  14  16
ATOM     16  C   UNL     1      47.842   5.222  16.456  0.00  0.00    +0.000 C 
BRANCH  16  20
ATOM     17  C   UNL     1      50.889   2.286  17.448  0.00  0.00    +0.000 A 
ATOM     18  C   UNL     1      49.673   1.870  16.893  0.00  0.00    +0.000 A 
ATOM     19  C   UNL     1      48.677   2.803  16.585  0.00  0.00    +0.000 A 
ATOM     20  C   UNL     1      48.867   4.170  16.845  0.00  0.00    +0.000 A 
ATOM     21  C   UNL     1      50.097   4.577  17.391  0.00  0.00    +0.000 A 
ATOM     22  C   UNL     1      51.097   3.649  17.695  0.00  0.00    +0.000 A 
BRANCH  17  24
ATOM     23  N   UNL     1      52.747   0.554  17.986  0.00  0.00    +0.000 NA
ATOM     24  C   UNL     1      51.916   1.333  17.746  0.00  0.00    +0.000 C 
ENDBRANCH  17  24
ENDBRANCH  16  20
ENDBRANCH  14  16
ENDBRANCH   1  14
BRANCH   6  25
ATOM     25  O   UNL     1      50.308   7.512  14.035  0.00  0.00    +0.000 OA
ATOM     26  H   UNL     1      50.504   8.380  13.646  0.00  0.00    +0.000 HD
ENDBRANCH   6  25
TORSDOF 6
ENDMDL
MODEL 9
REMARK VINA RESULT:    -6.252      3.929      6.523
REMARK INTER + INTRA:          -9.202
REMARK INTER:                  -8.521
REMARK INTRA:                  -0.681
REMARK UNBOUND:                -0.940
REMARK  Name = 
REMARK  6 active torsions:
REMARK  status: ('A' for Active; 'I' for Inactive)
REMARK    1  A    between atoms: C_2  and  C_3
REMARK    2  A    between atoms: C_6  and  C_7
REMARK    3  A    between atoms: C_7  and  N_8
REMARK    4  A    between atoms: N_8  and  C_9
REMARK    5  A    between atoms: C_11  and  C_12
REMARK    6  A    between atoms: C_21  and  O_22
REMARK                            x       y       z     vdW  Elec       q    Type
REMARK                         _______ _______ _______ _____ _____    ______ ____
ROOT
ATOM      1  C   UNL     1      46.517   4.316  13.361  0.00  0.00    +0.000 A 
ATOM      2  N   UNL     1      47.157   5.481  13.125  0.00  0.00    +0.000 NA
ATOM      3  C   UNL     1      46.755   6.265  12.095  0.00  0.00    +0.000 A 
ATOM      4  C   UNL     1      45.730   5.882  11.234  0.00  0.00    +0.000 A 
ATOM      5  C   UNL     1      45.084   4.672  11.448  0.00  0.00    +0.000 A 
ATOM      6  C   UNL     1      45.469   3.887  12.530  0.00  0.00    +0.000 A 
ENDROOT
BRANCH   3   7
ATOM      7  C   UNL     1      47.436   7.566  11.987  0.00  0.00    +0.000 A 
ATOM      8  C   UNL     1      48.824   7.643  11.755  0.00  0.00    +0.000 A 
ATOM      9  C   UNL     1      49.489   8.872  11.720  0.00  0.00    +0.000 A 
ATOM     10  C   UNL     1      48.777  10.052  11.919  0.00  0.00    +0.000 A 
ATOM     11  C   UNL     1      47.407   9.990  12.130  0.00  0.00    +0.000 A 
ATOM     12  F   UNL     1      46.715  11.120  12.326  0.00  0.00    +0.000 F 
ATOM     13  C   UNL     1      46.737   8.773  12.160  0.00  0.00    +0.000 A 
ENDBRANCH   3   7
BRANCH   1  14
ATOM     14  N   UNL     1      46.916   3.523  14.460  0.00  0.00    +0.000 N 
ATOM     15  H   UNL     1      46.282   2.730  14.509  0.00  0.00    +0.000 HD
BRANCH  14  16
ATOM     16  C   UNL     1      46.994   4.261  15.719  0.00  0.00    +0.000 C 
BRANCH  16  20
ATOM     17  C   UNL     1      50.778   3.569  17.739  0.00  0.00    +0.000 A 
ATOM     18  C   UNL     1      49.979   2.483  17.363  0.00  0.00    +0.000 A 
ATOM     19  C   UNL     1      48.751   2.693  16.728  0.00  0.00    +0.000 A 
ATOM     20  C   UNL     1      48.285   3.993  16.473  0.00  0.00    +0.000 A 
ATOM     21  C   UNL     1      49.102   5.076  16.845  0.00  0.00    +0.000 A 
ATOM     22  C   UNL     1      50.333   4.870  17.474  0.00  0.00    +0.000 A 
BRANCH  17  24
ATOM     23  N   UNL     1      53.073   3.174  18.889  0.00  0.00    +0.000 NA
ATOM     24  C   UNL     1      52.045   3.354  18.373  0.00  0.00    +0.000 C 
ENDBRANCH  17  24
ENDBRANCH  16  20
ENDBRANCH  14  16
ENDBRANCH   1  14
BRANCH   6  25
ATOM     25  O   UNL     1      44.802   2.718  12.785  0.00  0.00    +0.000 OA
ATOM     26  H   UNL     1      44.054   2.911  13.373  0.00  0.00    +0.000 HD
ENDBRANCH   6  25
TORSDOF 6
ENDMDL
