MODEL 1
REMARK VINA RESULT:    -7.511      0.000      0.000
REMARK INTER + INTRA:         -10.030
REMARK INTER:                  -9.268
REMARK INTRA:                  -0.762
REMARK UNBOUND:                -0.762
REMARK  Name = 
REMARK  4 active torsions:
REMARK  status: ('A' for Active; 'I' for Inactive)
REMARK    1  A    between atoms: C_4  and  C_5
REMARK    2  A    between atoms: C_7  and  C_8
REMARK    3  A    between atoms: C_8  and  O_9
REMARK    4  A    between atoms: O_9  and  C_10
REMARK                            x       y       z     vdW  Elec       q    Type
REMARK                         _______ _______ _______ _____ _____    ______ ____
ROOT
ATOM      1  C   UNL     1      47.199   6.247  12.403  0.00  0.00    +0.000 A 
ATOM      2  C   UNL     1      45.969   6.082  11.761  0.00  0.00    +0.000 A 
ATOM      3  C   UNL     1      45.147   4.982  12.054  0.00  0.00    +0.000 A 
ATOM      4  C   UNL     1      45.640   4.053  12.978  0.00  0.00    +0.000 A 
ATOM      5  C   UNL     1      46.869   4.274  13.571  0.00  0.00    +0.000 A 
ATOM      6  N   UNL     1      47.649   5.339  13.307  0.00  0.00    +0.000 NA
ENDROOT
BRANCH   1  10
ATOM      7  C   UNL     1      49.738   9.662  11.699  0.00  0.00    +0.000 A 
ATOM      8  C   UNL     1      50.281   8.381  11.699  0.00  0.00    +0.000 A 
ATOM      9  C   UNL     1      49.464   7.270  11.934  0.00  0.00    +0.000 A 
ATOM     10  C   UNL     1      48.085   7.411  12.178  0.00  0.00    +0.000 A 
ATOM     11  C   UNL     1      47.564   8.720  12.168  0.00  0.00    +0.000 A 
ATOM     12  C   UNL     1      48.378   9.833  11.934  0.00  0.00    +0.000 A 
ENDBRANCH   1  10
BRANCH   3  13
ATOM     13  C   UNL     1      43.776   4.818  11.414  0.00  0.00    +0.000 C 
ATOM     14  C   UNL     1      42.908   6.040  11.187  0.00  0.00    +0.000 C 
ATOM     15  C   UNL     1      42.552   5.094  12.282  0.00  0.00    +0.000 C 
BRANCH  13  16
ATOM     16  O   UNL     1      43.582   3.642  10.592  0.00  0.00    +0.000 OA
BRANCH  16  17
ATOM     17  C   UNL     1      44.517   3.390   9.601  0.00  0.00    +0.000 A 
ATOM     18  C   UNL     1      44.935   2.070   9.490  0.00  0.00    +0.000 A 
ATOM     19  C   UNL     1      45.816   1.736   8.468  0.00  0.00    +0.000 A 
ATOM     20  C   UNL     1      46.242   2.728   7.590  0.00  0.00    +0.000 A 
ATOM     21  C   UNL     1      45.771   4.017   7.781  0.00  0.00    +0.000 A 
ATOM     22  N   UNL     1      44.922   4.374   8.770  0.00  0.00    +0.000 NA
ENDBRANCH  16  17
ENDBRANCH  13  16
ENDBRANCH   3  13
TORSDOF 4
ENDMDL
MODEL 2
REMARK VINA RESULT:    -7.220      2.160      6.332
REMARK INTER + INTRA:          -9.670
REMARK INTER:                  -8.951
REMARK INTRA:                  -0.719
REMARK UNBOUND:                -0.762
REMARK  Name = 
REMARK  4 active torsions:
REMARK  status: ('A' for Active; 'I' for Inactive)
REMARK    1  A    between atoms: C_4  and  C_5
REMARK    2  A    between atoms: C_7  and  C_8
REMARK    3  A    between atoms: C_8  and  O_9
REMARK    4  A    between atoms: O_9  and  C_10
REMARK                            x       y       z     vdW  Elec       q    Type
REMARK                         _______ _______ _______ _____ _____    ______ ____
ROOT
ATOM      1  C   UNL     1      45.144   4.421   9.635  0.00  0.00    +0.000 A 
ATOM      2  C   UNL     1      45.921   5.338  10.347  0.00  0.00    +0.000 A 
ATOM      3  C   UNL     1      45.349   6.144  11.344  0.00  0.00    +0.000 A 
ATOM      4  C   UNL     1      43.972   6.009  11.552  0.00  0.00    +0.000 A 
ATOM      5  C   UNL     1      43.261   5.087  10.807  0.00  0.00    +0.000 A 
ATOM      6  N   UNL     1      43.812   4.298   9.866  0.00  0.00    +0.000 NA
ENDROOT
BRANCH   1  10
ATOM      7  C   UNL     1      46.797   1.729   6.698  0.00  0.00    +0.000 A 
ATOM      8  C   UNL     1      46.762   3.097   6.444  0.00  0.00    +0.000 A 
ATOM      9  C   UNL     1      46.220   3.974   7.390  0.00  0.00    +0.000 A 
ATOM     10  C   UNL     1      45.698   3.507   8.611  0.00  0.00    +0.000 A 
ATOM     11  C   UNL     1      45.751   2.117   8.840  0.00  0.00    +0.000 A 
ATOM     12  C   UNL     1      46.292   1.237   7.897  0.00  0.00    +0.000 A 
ENDBRANCH   1  10
BRANCH   3  13
ATOM     13  C   UNL     1      46.190   7.102  12.175  0.00  0.00    +0.000 C 
ATOM     14  C   UNL     1      45.507   8.189  12.979  0.00  0.00    +0.000 C 
ATOM     15  C   UNL     1      46.241   8.563  11.737  0.00  0.00    +0.000 C 
BRANCH  13  16
ATOM     16  O   UNL     1      47.498   6.629  12.580  0.00  0.00    +0.000 OA
BRANCH  16  17
ATOM     17  C   UNL     1      47.612   6.051  13.834  0.00  0.00    +0.000 A 
ATOM     18  C   UNL     1      46.886   4.883  14.025  0.00  0.00    +0.000 A 
ATOM     19  C   UNL     1      47.013   4.212  15.236  0.00  0.00    +0.000 A 
ATOM     20  C   UNL     1      47.866   4.726  16.208  0.00  0.00    +0.000 A 
ATOM     21  C   UNL     1      48.548   5.899  15.927  0.00  0.00    +0.000 A 
ATOM     22  N   UNL     1      48.438   6.578  14.763  0.00  0.00    +0.000 NA
ENDBRANCH  16  17
ENDBRANCH  13  16
ENDBRANCH   3  13
TORSDOF 4
ENDMDL
MODEL 3
REMARK VINA RESULT:    -7.151      2.579      6.543
REMARK INTER + INTRA:          -9.586
REMARK INTER:                  -8.923
REMARK INTRA:                  -0.663
REMARK UNBOUND:                -0.762
REMARK  Name = 
REMARK  4 active torsions:
REMARK  status: ('A' for Active; 'I' for Inactive)
REMARK    1  A    between atoms: C_4  and  C_5
REMARK    2  A    between atoms: C_7  and  C_8
REMARK    3  A    between atoms: C_8  and  O_9
REMARK    4  A    between atoms: O_9  and  C_10
REMARK                            x       y       z     vdW  Elec       q    Type
REMARK                         _______ _______ _______ _____ _____    ______ ____
ROOT
ATOM      1  C   UNL     1      45.133   4.285   9.517  0.00  0.00    +0.000 A 
ATOM      2  C   UNL     1      45.807   5.299  10.200  0.00  0.00    +0.000 A 
ATOM      3  C   UNL     1      45.166   6.035  11.209  0.00  0.00    +0.000 A 
ATOM      4  C   UNL     1      43.823   5.731  11.457  0.00  0.00    +0.000 A 
ATOM      5  C   UNL     1      43.213   4.720  10.738  0.00  0.00    +0.000 A 
ATOM      6  N   UNL     1      43.833   3.998   9.786  0.00  0.00    +0.000 NA
ENDROOT
BRANCH   1  10
ATOM      7  C   UNL     1      47.026   1.790   6.550  0.00  0.00    +0.000 A 
ATOM      8  C   UNL     1      46.920   3.162   6.339  0.00  0.00    +0.000 A 
ATOM      9  C   UNL     1      46.300   3.975   7.295  0.00  0.00    +0.000 A 
ATOM     10  C   UNL     1      45.769   3.438   8.483  0.00  0.00    +0.000 A 
ATOM     11  C   UNL     1      45.895   2.047   8.669  0.00  0.00    +0.000 A 
ATOM     12  C   UNL     1      46.513   1.231   7.716  0.00  0.00    +0.000 A 
ENDBRANCH   1  10
BRANCH   3  13
ATOM     13  C   UNL     1      45.902   7.099  12.011  0.00  0.00    +0.000 C 
ATOM     14  C   UNL     1      47.392   7.290  11.806  0.00  0.00    +0.000 C 
ATOM     15  C   UNL     1      46.913   6.629  13.053  0.00  0.00    +0.000 C 
BRANCH  13  16
ATOM     16  O   UNL     1      45.104   8.198  12.513  0.00  0.00    +0.000 OA
BRANCH  16  17
ATOM     17  C   UNL     1      45.051   9.354  11.750  0.00  0.00    +0.000 A 
ATOM     18  C   UNL     1      43.991   9.437  10.857  0.00  0.00    +0.000 A 
ATOM     19  C   UNL     1      43.837  10.602  10.114  0.00  0.00    +0.000 A 
ATOM     20  C   UNL     1      44.741  11.644  10.295  0.00  0.00    +0.000 A 
ATOM     21  C   UNL     1      45.769  11.469  11.209  0.00  0.00    +0.000 A 
ATOM     22  N   UNL     1      45.949  10.345  11.938  0.00  0.00    +0.000 NA
ENDBRANCH  16  17
ENDBRANCH  13  16
ENDBRANCH   3  13
TORSDOF 4
ENDMDL
MODEL 4
REMARK VINA RESULT:    -6.691      1.996      3.727
REMARK INTER + INTRA:          -9.018
REMARK INTER:                  -8.831
REMARK INTRA:                  -0.187
REMARK UNBOUND:                -0.762
REMARK  Name = 
REMARK  4 active torsions:
REMARK  status: ('A' for Active; 'I' for Inactive)
REMARK    1  A    between atoms: C_4  and  C_5
REMARK    2  A    between atoms: C_7  and  C_8
REMARK    3  A    between atoms: C_8  and  O_9
REMARK    4  A    between atoms: O_9  and  C_10
REMARK                            x       y       z     vdW  Elec       q    Type
REMARK                         _______ _______ _______ _____ _____    ______ ____
ROOT
ATOM      1  C   UNL     1      47.112   5.258  14.197  0.00  0.00    +0.000 A 
ATOM      2  C   UNL     1      45.881   4.850  13.677  0.00  0.00    +0.000 A 
ATOM      3  C   UNL     1      45.438   5.318  12.429  0.00  0.00    +0.000 A 
ATOM      4  C   UNL     1      46.264   6.233  11.767  0.00  0.00    +0.000 A 
ATOM      5  C   UNL     1      47.466   6.601  12.343  0.00  0.00    +0.000 A 
ATOM      6  N   UNL     1      47.903   6.137  13.529  0.00  0.00    +0.000 NA
ENDROOT
BRANCH   1  10
ATOM      7  C   UNL     1      48.642   3.788  17.952  0.00  0.00    +0.000 A 
ATOM      8  C   UNL     1      48.962   5.074  17.528  0.00  0.00    +0.000 A 
ATOM      9  C   UNL     1      48.474   5.554  16.307  0.00  0.00    +0.000 A 
ATOM     10  C   UNL     1      47.658   4.760  15.479  0.00  0.00    +0.000 A 
ATOM     11  C   UNL     1      47.349   3.464  15.938  0.00  0.00    +0.000 A 
ATOM     12  C   UNL     1      47.835   2.981  17.157  0.00  0.00    +0.000 A 
ENDBRANCH   1  10
BRANCH   3  13
ATOM     13  C   UNL     1      44.132   4.836  11.815  0.00  0.00    +0.000 C 
ATOM     14  C   UNL     1      43.088   5.849  11.389  0.00  0.00    +0.000 C 
ATOM     15  C   UNL     1      42.851   5.042  12.620  0.00  0.00    +0.000 C 
BRANCH  13  16
ATOM     16  O   UNL     1      44.154   3.529  11.191  0.00  0.00    +0.000 OA
BRANCH  16  17
ATOM     17  C   UNL     1      44.822   3.406   9.984  0.00  0.00    +0.000 A 
ATOM     18  C   UNL     1      45.091   2.106   9.575  0.00  0.00    +0.000 A 
ATOM     19  C   UNL     1      45.694   1.909   8.338  0.00  0.00    +0.000 A 
ATOM     20  C   UNL     1      45.998   3.014   7.550  0.00  0.00    +0.000 A 
ATOM     21  C   UNL     1      45.693   4.274   8.043  0.00  0.00    +0.000 A 
ATOM     22  N   UNL     1      45.116   4.497   9.245  0.00  0.00    +0.000 NA
ENDBRANCH  16  17
ENDBRANCH  13  16
ENDBRANCH   3  13
TORSDOF 4
ENDMDL
MODEL 5
REMARK VINA RESULT:    -6.298      2.798      6.802
REMARK INTER + INTRA:          -8.533
REMARK INTER:                  -7.895
REMARK INTRA:                  -0.638
REMARK UNBOUND:                -0.762
REMARK  Name = 
REMARK  4 active torsions:
REMARK  status: ('A' for Active; 'I' for Inactive)
REMARK    1  A    between atoms: C_4  and  C_5
REMARK    2  A    between atoms: C_7  and  C_8
REMARK    3  A    between atoms: C_8  and  O_9
REMARK    4  A    between atoms: O_9  and  C_10
REMARK                            x       y       z     vdW  Elec       q    Type
REMARK                         _______ _______ _______ _____ _____    ______ ____
ROOT
ATOM      1  C   UNL     1      45.640   6.213  11.364  0.00  0.00    +0.000 A 
ATOM      2  C   UNL     1      46.799   6.275  12.142  0.00  0.00    +0.000 A 
ATOM      3  C   UNL     1      47.034   7.364  12.996  0.00  0.00    +0.000 A 
ATOM      4  C   UNL     1      46.079   8.388  12.992  0.00  0.00    +0.000 A 
ATOM      5  C   UNL     1      44.959   8.267  12.192  0.00  0.00    +0.000 A 
ATOM      6  N   UNL     1      44.721   7.213  11.388  0.00  0.00    +0.000 NA
ENDROOT
BRANCH   1  10
ATOM      7  C   UNL     1      44.704   2.835   8.851  0.00  0.00    +0.000 A 
ATOM      8  C   UNL     1      45.375   3.932   8.318  0.00  0.00    +0.000 A 
ATOM      9  C   UNL     1      45.675   5.034   9.127  0.00  0.00    +0.000 A 
ATOM     10  C   UNL     1      45.309   5.069  10.486  0.00  0.00    +0.000 A 
ATOM     11  C   UNL     1      44.634   3.942  10.996  0.00  0.00    +0.000 A 
ATOM     12  C   UNL     1      44.332   2.839  10.191  0.00  0.00    +0.000 A 
ENDBRANCH   1  10
BRANCH   3  13
ATOM     13  C   UNL     1      48.256   7.419  13.900  0.00  0.00    +0.000 C 
ATOM     14  C   UNL     1      48.536   8.675  14.702  0.00  0.00    +0.000 C 
ATOM     15  C   UNL     1      49.383   8.373  13.512  0.00  0.00    +0.000 C 
BRANCH  13  16
ATOM     16  O   UNL     1      48.780   6.149  14.358  0.00  0.00    +0.000 OA
BRANCH  16  17
ATOM     17  C   UNL     1      48.300   5.652  15.559  0.00  0.00    +0.000 A 
ATOM     18  C   UNL     1      47.414   4.587  15.458  0.00  0.00    +0.000 A 
ATOM     19  C   UNL     1      46.952   3.994  16.628  0.00  0.00    +0.000 A 
ATOM     20  C   UNL     1      47.396   4.479  17.854  0.00  0.00    +0.000 A 
ATOM     21  C   UNL     1      48.279   5.547  17.854  0.00  0.00    +0.000 A 
ATOM     22  N   UNL     1      48.739   6.150  16.735  0.00  0.00    +0.000 NA
ENDBRANCH  16  17
ENDBRANCH  13  16
ENDBRANCH   3  13
TORSDOF 4
ENDMDL
MODEL 6
REMARK VINA RESULT:    -6.293      3.040      3.955
REMARK INTER + INTRA:          -8.527
REMARK INTER:                  -7.812
REMARK INTRA:                  -0.715
REMARK UNBOUND:                -0.762
REMARK  Name = 
REMARK  4 active torsions:
REMARK  status: ('A' for Active; 'I' for Inactive)
REMARK    1  A    between atoms: C_4  and  C_5
REMARK    2  A    between atoms: C_7  and  C_8
REMARK    3  A    between atoms: C_8  and  O_9
REMARK    4  A    between atoms: O_9  and  C_10
REMARK                            x       y       z     vdW  Elec       q    Type
REMARK                         _______ _______ _______ _____ _____    ______ ____
ROOT
ATOM      1  C   UNL     1      44.821   9.096  11.575  0.00  0.00    +0.000 A 
ATOM      2  C   UNL     1      44.198   7.853  11.440  0.00  0.00    +0.000 A 
ATOM      3  C   UNL     1      44.719   6.714  12.076  0.00  0.00    +0.000 A 
ATOM      4  C   UNL     1      45.901   6.883  12.805  0.00  0.00    +0.000 A 
ATOM      5  C   UNL     1      46.471   8.140  12.892  0.00  0.00    +0.000 A 
ATOM      6  N   UNL     1      45.961   9.237  12.301  0.00  0.00    +0.000 NA
ENDROOT
BRANCH   1  10
ATOM      7  C   UNL     1      43.269  12.750   9.889  0.00  0.00    +0.000 A 
ATOM      8  C   UNL     1      42.769  11.522   9.466  0.00  0.00    +0.000 A 
ATOM      9  C   UNL     1      43.274  10.333  10.004  0.00  0.00    +0.000 A 
ATOM     10  C   UNL     1      44.292  10.341  10.976  0.00  0.00    +0.000 A 
ATOM     11  C   UNL     1      44.775  11.599  11.386  0.00  0.00    +0.000 A 
ATOM     12  C   UNL     1      44.274  12.790  10.850  0.00  0.00    +0.000 A 
ENDBRANCH   1  10
BRANCH   3  13
ATOM     13  C   UNL     1      44.019   5.365  11.995  0.00  0.00    +0.000 C 
ATOM     14  C   UNL     1      42.541   5.310  11.665  0.00  0.00    +0.000 C 
ATOM     15  C   UNL     1      42.979   5.041  13.064  0.00  0.00    +0.000 C 
BRANCH  13  16
ATOM     16  O   UNL     1      44.857   4.218  11.713  0.00  0.00    +0.000 OA
BRANCH  16  17
ATOM     17  C   UNL     1      44.956   3.805  10.394  0.00  0.00    +0.000 A 
ATOM     18  C   UNL     1      45.476   4.739   9.508  0.00  0.00    +0.000 A 
ATOM     19  C   UNL     1      45.671   4.363   8.184  0.00  0.00    +0.000 A 
ATOM     20  C   UNL     1      45.348   3.067   7.794  0.00  0.00    +0.000 A 
ATOM     21  C   UNL     1      44.834   2.205   8.750  0.00  0.00    +0.000 A 
ATOM     22  N   UNL     1      44.624   2.544  10.041  0.00  0.00    +0.000 NA
ENDBRANCH  16  17
ENDBRANCH  13  16
ENDBRANCH   3  13
TORSDOF 4
ENDMDL
MODEL 7
REMARK VINA RESULT:    -5.932      2.068      2.438
REMARK INTER + INTRA:          -8.082
REMARK INTER:                  -7.721
REMARK INTRA:                  -0.361
REMARK UNBOUND:                -0.762
REMARK  Name = 
REMARK  4 active torsions:
REMARK  status: ('A' for Active; 'I' for Inactive)
REMARK    1  A    between atoms: C_4  and  C_5
REMARK    2  A    between atoms: C_7  and  C_8
REMARK    3  A    between atoms: C_8  and  O_9
REMARK    4  A    between atoms: O_9  and  C_10
REMARK                            x       y       z     vdW  Elec       q    Type
REMARK                         _______ _______ _______ _____ _____    ______ ____
ROOT
ATOM      1  C   UNL     1      47.259   5.281  14.042  0.00  0.00    +0.000 A 
ATOM      2  C   UNL     1      46.439   5.774  13.024  0.00  0.00    +0.000 A 
ATOM      3  C   UNL     1      45.589   4.917  12.307  0.00  0.00    +0.000 A 
ATOM      4  C   UNL     1      45.640   3.558  12.634  0.00  0.00    +0.000 A 
ATOM      5  C   UNL     1      46.479   3.135  13.648  0.00  0.00    +0.000 A 
ATOM      6  N   UNL     1      47.279   3.959  14.351  0.00  0.00    +0.000 NA
ENDROOT
BRANCH   1  10
ATOM      7  C   UNL     1      49.856   7.790  16.401  0.00  0.00    +0.000 A 
ATOM      8  C   UNL     1      49.422   6.569  16.908  0.00  0.00    +0.000 A 
ATOM      9  C   UNL     1      48.573   5.754  16.150  0.00  0.00    +0.000 A 
ATOM     10  C   UNL     1      48.135   6.140  14.870  0.00  0.00    +0.000 A 
ATOM     11  C   UNL     1      48.594   7.380  14.383  0.00  0.00    +0.000 A 
ATOM     12  C   UNL     1      49.442   8.197  15.137  0.00  0.00    +0.000 A 
ENDBRANCH   1  10
BRANCH   3  13
ATOM     13  C   UNL     1      44.642   5.445  11.239  0.00  0.00    +0.000 C 
ATOM     14  C   UNL     1      44.713   6.903  10.833  0.00  0.00    +0.000 C 
ATOM     15  C   UNL     1      43.570   6.442  11.672  0.00  0.00    +0.000 C 
BRANCH  13  16
ATOM     16  O   UNL     1      44.107   4.470  10.311  0.00  0.00    +0.000 OA
BRANCH  16  17
ATOM     17  C   UNL     1      44.979   3.919   9.386  0.00  0.00    +0.000 A 
ATOM     18  C   UNL     1      45.020   2.531   9.352  0.00  0.00    +0.000 A 
ATOM     19  C   UNL     1      45.820   1.913   8.396  0.00  0.00    +0.000 A 
ATOM     20  C   UNL     1      46.541   2.701   7.506  0.00  0.00    +0.000 A 
ATOM     21  C   UNL     1      46.438   4.079   7.618  0.00  0.00    +0.000 A 
ATOM     22  N   UNL     1      45.677   4.708   8.541  0.00  0.00    +0.000 NA
ENDBRANCH  16  17
ENDBRANCH  13  16
ENDBRANCH   3  13
TORSDOF 4
ENDMDL
MODEL 8
REMARK VINA RESULT:    -5.736      2.018      2.830
REMARK INTER + INTRA:          -7.840
REMARK INTER:                  -7.069
REMARK INTRA:                  -0.771
REMARK UNBOUND:                -0.762
REMARK  Name = 
REMARK  4 active torsions:
REMARK  status: ('A' for Active; 'I' for Inactive)
REMARK    1  A    between atoms: C_4  and  C_5
REMARK    2  A    between atoms: C_7  and  C_8
REMARK    3  A    between atoms: C_8  and  O_9
REMARK    4  A    between atoms: O_9  and  C_10
REMARK                            x       y       z     vdW  Elec       q    Type
REMARK                         _______ _______ _______ _____ _____    ______ ____
ROOT
ATOM      1  C   UNL     1      46.255   8.897  12.263  0.00  0.00    +0.000 A 
ATOM      2  C   UNL     1      45.768   7.590  12.348  0.00  0.00    +0.000 A 
ATOM      3  C   UNL     1      44.523   7.250  11.796  0.00  0.00    +0.000 A 
ATOM      4  C   UNL     1      43.791   8.285  11.203  0.00  0.00    +0.000 A 
ATOM      5  C   UNL     1      44.328   9.557  11.159  0.00  0.00    +0.000 A 
ATOM      6  N   UNL     1      45.531   9.881  11.670  0.00  0.00    +0.000 NA
ENDROOT
BRANCH   1  10
ATOM      7  C   UNL     1      50.149  10.064  13.706  0.00  0.00    +0.000 A 
ATOM      8  C   UNL     1      49.286   9.350  14.534  0.00  0.00    +0.000 A 
ATOM      9  C   UNL     1      48.019   8.976  14.073  0.00  0.00    +0.000 A 
ATOM     10  C   UNL     1      47.581   9.306  12.777  0.00  0.00    +0.000 A 
ATOM     11  C   UNL     1      48.478  10.025  11.962  0.00  0.00    +0.000 A 
ATOM     12  C   UNL     1      49.745  10.402  12.419  0.00  0.00    +0.000 A 
ENDBRANCH   1  10
BRANCH   3  13
ATOM     13  C   UNL     1      44.004   5.820  11.820  0.00  0.00    +0.000 C 
ATOM     14  C   UNL     1      42.547   5.549  11.503  0.00  0.00    +0.000 C 
ATOM     15  C   UNL     1      43.010   5.445  12.916  0.00  0.00    +0.000 C 
BRANCH  13  16
ATOM     16  O   UNL     1      44.984   4.772  11.620  0.00  0.00    +0.000 OA
BRANCH  16  17
ATOM     17  C   UNL     1      45.013   4.147  10.384  0.00  0.00    +0.000 A 
ATOM     18  C   UNL     1      45.559   4.891   9.347  0.00  0.00    +0.000 A 
ATOM     19  C   UNL     1      45.686   4.295   8.097  0.00  0.00    +0.000 A 
ATOM     20  C   UNL     1      45.270   2.978   7.930  0.00  0.00    +0.000 A 
ATOM     21  C   UNL     1      44.735   2.316   9.024  0.00  0.00    +0.000 A 
ATOM     22  N   UNL     1      44.591   2.871  10.248  0.00  0.00    +0.000 NA
ENDBRANCH  16  17
ENDBRANCH  13  16
ENDBRANCH   3  13
TORSDOF 4
ENDMDL
MODEL 9
REMARK VINA RESULT:    -5.715      2.871      7.124
REMARK INTER + INTRA:          -7.814
REMARK INTER:                  -7.115
REMARK INTRA:                  -0.699
REMARK UNBOUND:                -0.762
REMARK  Name = 
REMARK  4 active torsions:
REMARK  status: ('A' for Active; 'I' for Inactive)
REMARK    1  A    between atoms: C_4  and  C_5
REMARK    2  A    between atoms: C_7  and  C_8
REMARK    3  A    between atoms: C_8  and  O_9
REMARK    4  A    between atoms: O_9  and  C_10
REMARK                            x       y       z     vdW  Elec       q    Type
REMARK                         _______ _______ _______ _____ _____    ______ ____
ROOT
ATOM      1  C   UNL     1      45.720   6.527  11.378  0.00  0.00    +0.000 A 
ATOM      2  C   UNL     1      47.055   6.878  11.592  0.00  0.00    +0.000 A 
ATOM      3  C   UNL     1      47.388   8.060  12.272  0.00  0.00    +0.000 A 
ATOM      4  C   UNL     1      46.325   8.875  12.679  0.00  0.00    +0.000 A 
ATOM      5  C   UNL     1      45.027   8.472  12.428  0.00  0.00    +0.000 A 
ATOM      6  N   UNL     1      44.706   7.328  11.795  0.00  0.00    +0.000 NA
ENDROOT
BRANCH   1  10
ATOM      7  C   UNL     1      44.482   2.899   9.400  0.00  0.00    +0.000 A 
ATOM      8  C   UNL     1      44.213   3.078  10.754  0.00  0.00    +0.000 A 
ATOM      9  C   UNL     1      44.619   4.250  11.403  0.00  0.00    +0.000 A 
ATOM     10  C   UNL     1      45.305   5.270  10.716  0.00  0.00    +0.000 A 
ATOM     11  C   UNL     1      45.559   5.060   9.346  0.00  0.00    +0.000 A 
ATOM     12  C   UNL     1      45.156   3.890   8.695  0.00  0.00    +0.000 A 
ENDBRANCH   1  10
BRANCH   3  13
ATOM     13  C   UNL     1      48.833   8.428  12.573  0.00  0.00    +0.000 C 
ATOM     14  C   UNL     1      49.187   9.866  12.894  0.00  0.00    +0.000 C 
ATOM     15  C   UNL     1      49.565   9.308  11.564  0.00  0.00    +0.000 C 
BRANCH  13  16
ATOM     16  O   UNL     1      49.686   7.360  13.053  0.00  0.00    +0.000 OA
BRANCH  16  17
ATOM     17  C   UNL     1      49.660   7.077  14.409  0.00  0.00    +0.000 A 
ATOM     18  C   UNL     1      50.642   7.696  15.171  0.00  0.00    +0.000 A 
ATOM     19  C   UNL     1      50.626   7.514  16.549  0.00  0.00    +0.000 A 
ATOM     20  C   UNL     1      49.629   6.728  17.117  0.00  0.00    +0.000 A 
ATOM     21  C   UNL     1      48.692   6.149  16.275  0.00  0.00    +0.000 A 
ATOM     22  N   UNL     1      48.686   6.301  14.932  0.00  0.00    +0.000 NA
ENDBRANCH  16  17
ENDBRANCH  13  16
ENDBRANCH   3  13
TORSDOF 4
ENDMDL
