MODEL 1
REMARK VINA RESULT:    -8.094      0.000      0.000
REMARK INTER + INTRA:         -11.031
REMARK INTER:                 -10.460
REMARK INTRA:                  -0.572
REMARK UNBOUND:                -0.572
REMARK  Name = 
REMARK  5 active torsions:
REMARK  status: ('A' for Active; 'I' for Inactive)
REMARK    1  A    between atoms: C_2  and  C_3
REMARK    2  A    between atoms: C_6  and  O_7
REMARK    3  A    between atoms: O_7  and  C_8
REMARK    4  A    between atoms: C_8  and  C_9
REMARK    5  A    between atoms: C_14  and  C_15
REMARK                            x       y       z     vdW  Elec       q    Type
REMARK                         _______ _______ _______ _____ _____    ______ ____
ROOT
ATOM      1  C   UNL     1      44.996   3.894  11.961  0.00  0.00    +0.000 A 
ATOM      2  C   UNL     1      45.761   3.195  12.897  0.00  0.00    +0.000 A 
ATOM      3  C   UNL     1      46.744   3.862  13.613  0.00  0.00    +0.000 A 
ATOM      4  F   UNL     1      47.470   3.190  14.516  0.00  0.00    +0.000 F 
ATOM      5  C   UNL     1      46.980   5.221  13.424  0.00  0.00    +0.000 A 
ATOM      6  C   UNL     1      46.238   5.963  12.489  0.00  0.00    +0.000 A 
ATOM      7  C   UNL     1      45.250   5.266  11.759  0.00  0.00    +0.000 A 
ENDROOT
BRANCH   6   8
ATOM      8  C   UNL     1      46.471   7.417  12.299  0.00  0.00    +0.000 A 
ATOM      9  C   UNL     1      47.765   7.935  12.103  0.00  0.00    +0.000 A 
ATOM     10  C   UNL     1      47.994   9.309  11.964  0.00  0.00    +0.000 A 
ATOM     11  C   UNL     1      46.927  10.200  11.999  0.00  0.00    +0.000 A 
ATOM     12  C   UNL     1      45.635   9.718  12.172  0.00  0.00    +0.000 A 
ATOM     13  C   UNL     1      45.412   8.345  12.326  0.00  0.00    +0.000 A 
ENDBRANCH   6   8
BRANCH   1  14
ATOM     14  C   UNL     1      43.875   3.205  11.219  0.00  0.00    +0.000 C 
BRANCH  14  15
ATOM     15  O   UNL     1      43.721   3.799   9.927  0.00  0.00    +0.000 OA
BRANCH  15  19
ATOM     16  C   UNL     1      46.618   2.465   7.408  0.00  0.00    +0.000 A 
ATOM     17  C   UNL     1      46.226   3.795   7.384  0.00  0.00    +0.000 A 
ATOM     18  N   UNL     1      45.261   4.288   8.201  0.00  0.00    +0.000 NA
ATOM     19  C   UNL     1      44.700   3.394   9.048  0.00  0.00    +0.000 A 
ATOM     20  C   UNL     1      45.087   2.061   9.068  0.00  0.00    +0.000 A 
ATOM     21  N   UNL     1      46.054   1.564   8.253  0.00  0.00    +0.000 NA
BRANCH  16  23
ATOM     22  N   UNL     1      48.454   1.604   5.792  0.00  0.00    +0.000 NA
ATOM     23  C   UNL     1      47.654   1.997   6.537  0.00  0.00    +0.000 C 
ENDBRANCH  16  23
ENDBRANCH  15  19
ENDBRANCH  14  15
ENDBRANCH   1  14
TORSDOF 5
ENDMDL
MODEL 2
REMARK VINA RESULT:    -8.072      0.586      1.423
REMARK INTER + INTRA:         -11.003
REMARK INTER:                 -10.323
REMARK INTRA:                  -0.680
REMARK UNBOUND:                -0.572
REMARK  Name = 
REMARK  5 active torsions:
REMARK  status: ('A' for Active; 'I' for Inactive)
REMARK    1  A    between atoms: C_2  and  C_3
REMARK    2  A    between atoms: C_6  and  O_7
REMARK    3  A    between atoms: O_7  and  C_8
REMARK    4  A    between atoms: C_8  and  C_9
REMARK    5  A    between atoms: C_14  and  C_15
REMARK                            x       y       z     vdW  Elec       q    Type
REMARK                         _______ _______ _______ _____ _____    ______ ____
ROOT
ATOM      1  C   UNL     1      44.848   4.053  12.004  0.00  0.00    +0.000 A 
ATOM      2  C   UNL     1      45.645   3.317  12.883  0.00  0.00    +0.000 A 
ATOM      3  C   UNL     1      46.676   3.948  13.564  0.00  0.00    +0.000 A 
ATOM      4  F   UNL     1      47.433   3.239  14.412  0.00  0.00    +0.000 F 
ATOM      5  C   UNL     1      46.929   5.306  13.396  0.00  0.00    +0.000 A 
ATOM      6  C   UNL     1      46.155   6.084  12.518  0.00  0.00    +0.000 A 
ATOM      7  C   UNL     1      45.119   5.425  11.823  0.00  0.00    +0.000 A 
ENDROOT
BRANCH   6   8
ATOM      8  C   UNL     1      46.407   7.538  12.352  0.00  0.00    +0.000 A 
ATOM      9  C   UNL     1      45.352   8.471  12.342  0.00  0.00    +0.000 A 
ATOM     10  C   UNL     1      45.580   9.838  12.145  0.00  0.00    +0.000 A 
ATOM     11  C   UNL     1      46.877  10.309  11.972  0.00  0.00    +0.000 A 
ATOM     12  C   UNL     1      47.942   9.417  11.997  0.00  0.00    +0.000 A 
ATOM     13  C   UNL     1      47.708   8.048  12.178  0.00  0.00    +0.000 A 
ENDBRANCH   6   8
BRANCH   1  14
ATOM     14  C   UNL     1      43.677   3.403  11.303  0.00  0.00    +0.000 C 
BRANCH  14  15
ATOM     15  O   UNL     1      43.598   3.885   9.959  0.00  0.00    +0.000 OA
BRANCH  15  19
ATOM     16  C   UNL     1      46.533   2.479   7.524  0.00  0.00    +0.000 A 
ATOM     17  C   UNL     1      45.862   1.621   8.381  0.00  0.00    +0.000 A 
ATOM     18  N   UNL     1      44.879   2.041   9.216  0.00  0.00    +0.000 NA
ATOM     19  C   UNL     1      44.590   3.362   9.160  0.00  0.00    +0.000 A 
ATOM     20  C   UNL     1      45.266   4.224   8.307  0.00  0.00    +0.000 A 
ATOM     21  N   UNL     1      46.250   3.806   7.468  0.00  0.00    +0.000 NA
BRANCH  16  23
ATOM     22  N   UNL     1      48.370   1.626   5.905  0.00  0.00    +0.000 NA
ATOM     23  C   UNL     1      47.552   1.983   6.648  0.00  0.00    +0.000 C 
ENDBRANCH  16  23
ENDBRANCH  15  19
ENDBRANCH  14  15
ENDBRANCH   1  14
TORSDOF 5
ENDMDL
MODEL 3
REMARK VINA RESULT:    -7.827      3.384      6.779
REMARK INTER + INTRA:         -10.687
REMARK INTER:                  -9.964
REMARK INTRA:                  -0.722
REMARK UNBOUND:                -0.572
REMARK  Name = 
REMARK  5 active torsions:
REMARK  status: ('A' for Active; 'I' for Inactive)
REMARK    1  A    between atoms: C_2  and  C_3
REMARK    2  A    between atoms: C_6  and  O_7
REMARK    3  A    between atoms: O_7  and  C_8
REMARK    4  A    between atoms: C_8  and  C_9
REMARK    5  A    between atoms: C_14  and  C_15
REMARK                            x       y       z     vdW  Elec       q    Type
REMARK                         _______ _______ _______ _____ _____    ______ ____
ROOT
ATOM      1  C   UNL     1      44.372   5.056  10.856  0.00  0.00    +0.000 A 
ATOM      2  C   UNL     1      43.593   4.123  11.543  0.00  0.00    +0.000 A 
ATOM      3  C   UNL     1      43.562   2.805  11.110  0.00  0.00    +0.000 A 
ATOM      4  F   UNL     1      42.820   1.912  11.776  0.00  0.00    +0.000 F 
ATOM      5  C   UNL     1      44.303   2.389  10.007  0.00  0.00    +0.000 A 
ATOM      6  C   UNL     1      45.097   3.295   9.284  0.00  0.00    +0.000 A 
ATOM      7  C   UNL     1      45.106   4.635   9.729  0.00  0.00    +0.000 A 
ENDROOT
BRANCH   6   8
ATOM      8  C   UNL     1      45.906   2.852   8.120  0.00  0.00    +0.000 A 
ATOM      9  C   UNL     1      46.410   1.540   8.031  0.00  0.00    +0.000 A 
ATOM     10  C   UNL     1      47.206   1.129   6.956  0.00  0.00    +0.000 A 
ATOM     11  C   UNL     1      47.503   2.019   5.930  0.00  0.00    +0.000 A 
ATOM     12  C   UNL     1      47.005   3.316   5.978  0.00  0.00    +0.000 A 
ATOM     13  C   UNL     1      46.221   3.727   7.063  0.00  0.00    +0.000 A 
ENDBRANCH   6   8
BRANCH   1  14
ATOM     14  C   UNL     1      44.473   6.481  11.349  0.00  0.00    +0.000 C 
BRANCH  14  15
ATOM     15  O   UNL     1      44.748   6.483  12.752  0.00  0.00    +0.000 OA
BRANCH  15  19
ATOM     16  C   UNL     1      48.611   7.420  13.601  0.00  0.00    +0.000 A 
ATOM     17  C   UNL     1      47.683   8.422  13.360  0.00  0.00    +0.000 A 
ATOM     18  N   UNL     1      46.384   8.161  13.068  0.00  0.00    +0.000 NA
ATOM     19  C   UNL     1      46.046   6.851  13.027  0.00  0.00    +0.000 A 
ATOM     20  C   UNL     1      46.976   5.848  13.260  0.00  0.00    +0.000 A 
ATOM     21  N   UNL     1      48.278   6.105  13.555  0.00  0.00    +0.000 NA
BRANCH  16  23
ATOM     22  N   UNL     1      51.075   8.029  14.128  0.00  0.00    +0.000 NA
ATOM     23  C   UNL     1      49.968   7.748  13.923  0.00  0.00    +0.000 C 
ENDBRANCH  16  23
ENDBRANCH  15  19
ENDBRANCH  14  15
ENDBRANCH   1  14
TORSDOF 5
ENDMDL
MODEL 4
REMARK VINA RESULT:    -7.616      4.075      7.227
REMARK INTER + INTRA:         -10.414
REMARK INTER:                  -9.772
REMARK INTRA:                  -0.642
REMARK UNBOUND:                -0.572
REMARK  Name = 
REMARK  5 active torsions:
REMARK  status: ('A' for Active; 'I' for Inactive)
REMARK    1  A    between atoms: C_2  and  C_3
REMARK    2  A    between atoms: C_6  and  O_7
REMARK    3  A    between atoms: O_7  and  C_8
REMARK    4  A    between atoms: C_8  and  C_9
REMARK    5  A    between atoms: C_14  and  C_15
REMARK                            x       y       z     vdW  Elec       q    Type
REMARK                         _______ _______ _______ _____ _____    ______ ____
ROOT
ATOM      1  C   UNL     1      45.227   6.165  11.983  0.00  0.00    +0.000 A 
ATOM      2  C   UNL     1      43.846   6.181  12.196  0.00  0.00    +0.000 A 
ATOM      3  C   UNL     1      43.020   5.416  11.386  0.00  0.00    +0.000 A 
ATOM      4  F   UNL     1      41.698   5.428  11.600  0.00  0.00    +0.000 F 
ATOM      5  C   UNL     1      43.539   4.622  10.368  0.00  0.00    +0.000 A 
ATOM      6  C   UNL     1      44.920   4.580  10.114  0.00  0.00    +0.000 A 
ATOM      7  C   UNL     1      45.746   5.374  10.938  0.00  0.00    +0.000 A 
ENDROOT
BRANCH   6   8
ATOM      8  C   UNL     1      45.481   3.718   9.043  0.00  0.00    +0.000 A 
ATOM      9  C   UNL     1      45.483   2.314   9.153  0.00  0.00    +0.000 A 
ATOM     10  C   UNL     1      46.046   1.499   8.165  0.00  0.00    +0.000 A 
ATOM     11  C   UNL     1      46.607   2.070   7.028  0.00  0.00    +0.000 A 
ATOM     12  C   UNL     1      46.604   3.452   6.880  0.00  0.00    +0.000 A 
ATOM     13  C   UNL     1      46.053   4.265   7.878  0.00  0.00    +0.000 A 
ENDBRANCH   6   8
BRANCH   1  14
ATOM     14  C   UNL     1      46.152   6.937  12.894  0.00  0.00    +0.000 C 
BRANCH  14  15
ATOM     15  O   UNL     1      47.417   6.275  12.962  0.00  0.00    +0.000 OA
BRANCH  15  19
ATOM     16  C   UNL     1      47.950   4.478  16.569  0.00  0.00    +0.000 A 
ATOM     17  C   UNL     1      48.618   5.655  16.266  0.00  0.00    +0.000 A 
ATOM     18  N   UNL     1      48.477   6.291  15.076  0.00  0.00    +0.000 NA
ATOM     19  C   UNL     1      47.638   5.700  14.194  0.00  0.00    +0.000 A 
ATOM     20  C   UNL     1      46.975   4.518  14.493  0.00  0.00    +0.000 A 
ATOM     21  N   UNL     1      47.111   3.880  15.685  0.00  0.00    +0.000 NA
BRANCH  16  23
ATOM     22  N   UNL     1      48.308   3.335  18.868  0.00  0.00    +0.000 NA
ATOM     23  C   UNL     1      48.118   3.855  17.847  0.00  0.00    +0.000 C 
ENDBRANCH  16  23
ENDBRANCH  15  19
ENDBRANCH  14  15
ENDBRANCH   1  14
TORSDOF 5
ENDMDL
MODEL 5
REMARK VINA RESULT:    -7.592      1.368      2.140
REMARK INTER + INTRA:         -10.383
REMARK INTER:                  -9.582
REMARK INTRA:                  -0.801
REMARK UNBOUND:                -0.572
REMARK  Name = 
REMARK  5 active torsions:
REMARK  status: ('A' for Active; 'I' for Inactive)
REMARK    1  A    between atoms: C_2  and  C_3
REMARK    2  A    between atoms: C_6  and  O_7
REMARK    3  A    between atoms: O_7  and  C_8
REMARK    4  A    between atoms: C_8  and  C_9
REMARK    5  A    between atoms: C_14  and  C_15
REMARK                            x       y       z     vdW  Elec       q    Type
REMARK                         _______ _______ _______ _____ _____    ______ ____
ROOT
ATOM      1  C   UNL     1      44.851   5.410  11.825  0.00  0.00    +0.000 A 
ATOM      2  C   UNL     1      46.026   5.123  12.523  0.00  0.00    +0.000 A 
ATOM      3  C   UNL     1      46.867   6.159  12.902  0.00  0.00    +0.000 A 
ATOM      4  F   UNL     1      47.989   5.880  13.578  0.00  0.00    +0.000 F 
ATOM      5  C   UNL     1      46.559   7.484  12.610  0.00  0.00    +0.000 A 
ATOM      6  C   UNL     1      45.390   7.819  11.906  0.00  0.00    +0.000 A 
ATOM      7  C   UNL     1      44.552   6.752  11.515  0.00  0.00    +0.000 A 
ENDROOT
BRANCH   6   8
ATOM      8  C   UNL     1      45.046   9.233  11.610  0.00  0.00    +0.000 A 
ATOM      9  C   UNL     1      43.850   9.576  10.952  0.00  0.00    +0.000 A 
ATOM     10  C   UNL     1      43.539  10.904  10.635  0.00  0.00    +0.000 A 
ATOM     11  C   UNL     1      44.413  11.926  10.988  0.00  0.00    +0.000 A 
ATOM     12  C   UNL     1      45.593  11.622  11.656  0.00  0.00    +0.000 A 
ATOM     13  C   UNL     1      45.907  10.291  11.958  0.00  0.00    +0.000 A 
ENDBRANCH   6   8
BRANCH   1  14
ATOM     14  C   UNL     1      43.887   4.305  11.461  0.00  0.00    +0.000 C 
BRANCH  14  15
ATOM     15  O   UNL     1      43.558   4.397  10.072  0.00  0.00    +0.000 OA
BRANCH  15  19
ATOM     16  C   UNL     1      46.378   2.565   7.791  0.00  0.00    +0.000 A 
ATOM     17  C   UNL     1      46.153   3.928   7.668  0.00  0.00    +0.000 A 
ATOM     18  N   UNL     1      45.221   4.585   8.402  0.00  0.00    +0.000 NA
ATOM     19  C   UNL     1      44.518   3.822   9.271  0.00  0.00    +0.000 A 
ATOM     20  C   UNL     1      44.738   2.456   9.390  0.00  0.00    +0.000 A 
ATOM     21  N   UNL     1      45.672   1.795   8.657  0.00  0.00    +0.000 NA
BRANCH  16  23
ATOM     22  N   UNL     1      48.194   1.349   6.395  0.00  0.00    +0.000 NA
ATOM     23  C   UNL     1      47.387   1.921   7.004  0.00  0.00    +0.000 C 
ENDBRANCH  16  23
ENDBRANCH  15  19
ENDBRANCH  14  15
ENDBRANCH   1  14
TORSDOF 5
ENDMDL
MODEL 6
REMARK VINA RESULT:    -7.570      2.168      3.878
REMARK INTER + INTRA:         -10.355
REMARK INTER:                  -9.827
REMARK INTRA:                  -0.528
REMARK UNBOUND:                -0.572
REMARK  Name = 
REMARK  5 active torsions:
REMARK  status: ('A' for Active; 'I' for Inactive)
REMARK    1  A    between atoms: C_2  and  C_3
REMARK    2  A    between atoms: C_6  and  O_7
REMARK    3  A    between atoms: O_7  and  C_8
REMARK    4  A    between atoms: C_8  and  C_9
REMARK    5  A    between atoms: C_14  and  C_15
REMARK                            x       y       z     vdW  Elec       q    Type
REMARK                         _______ _______ _______ _____ _____    ______ ____
ROOT
ATOM      1  C   UNL     1      45.289   4.847  12.178  0.00  0.00    +0.000 A 
ATOM      2  C   UNL     1      45.677   6.074  11.634  0.00  0.00    +0.000 A 
ATOM      3  C   UNL     1      46.659   6.823  12.264  0.00  0.00    +0.000 A 
ATOM      4  F   UNL     1      47.033   7.995  11.734  0.00  0.00    +0.000 F 
ATOM      5  C   UNL     1      47.277   6.373  13.427  0.00  0.00    +0.000 A 
ATOM      6  C   UNL     1      46.916   5.148  14.013  0.00  0.00    +0.000 A 
ATOM      7  C   UNL     1      45.905   4.404  13.367  0.00  0.00    +0.000 A 
ENDROOT
BRANCH   6   8
ATOM      8  C   UNL     1      47.587   4.653  15.241  0.00  0.00    +0.000 A 
ATOM      9  C   UNL     1      47.634   3.280  15.552  0.00  0.00    +0.000 A 
ATOM     10  C   UNL     1      48.230   2.812  16.728  0.00  0.00    +0.000 A 
ATOM     11  C   UNL     1      48.813   3.708  17.618  0.00  0.00    +0.000 A 
ATOM     12  C   UNL     1      48.800   5.068  17.331  0.00  0.00    +0.000 A 
ATOM     13  C   UNL     1      48.190   5.533  16.160  0.00  0.00    +0.000 A 
ENDBRANCH   6   8
BRANCH   1  14
ATOM     14  C   UNL     1      44.270   3.983  11.473  0.00  0.00    +0.000 C 
BRANCH  14  15
ATOM     15  O   UNL     1      44.064   4.474  10.146  0.00  0.00    +0.000 OA
BRANCH  15  19
ATOM     16  C   UNL     1      46.622   2.671   7.554  0.00  0.00    +0.000 A 
ATOM     17  C   UNL     1      46.453   4.047   7.529  0.00  0.00    +0.000 A 
ATOM     18  N   UNL     1      45.609   4.695   8.370  0.00  0.00    +0.000 NA
ATOM     19  C   UNL     1      44.936   3.910   9.242  0.00  0.00    +0.000 A 
ATOM     20  C   UNL     1      45.099   2.531   9.263  0.00  0.00    +0.000 A 
ATOM     21  N   UNL     1      45.946   1.878   8.424  0.00  0.00    +0.000 NA
BRANCH  16  23
ATOM     22  N   UNL     1      48.326   1.526   5.969  0.00  0.00    +0.000 NA
ATOM     23  C   UNL     1      47.540   2.034   6.657  0.00  0.00    +0.000 C 
ENDBRANCH  16  23
ENDBRANCH  15  19
ENDBRANCH  14  15
ENDBRANCH   1  14
TORSDOF 5
ENDMDL
MODEL 7
REMARK VINA RESULT:    -7.017      2.584      3.533
REMARK INTER + INTRA:          -9.639
REMARK INTER:                  -8.937
REMARK INTRA:                  -0.702
REMARK UNBOUND:                -0.572
REMARK  Name = 
REMARK  5 active torsions:
REMARK  status: ('A' for Active; 'I' for Inactive)
REMARK    1  A    between atoms: C_2  and  C_3
REMARK    2  A    between atoms: C_6  and  O_7
REMARK    3  A    between atoms: O_7  and  C_8
REMARK    4  A    between atoms: C_8  and  C_9
REMARK    5  A    between atoms: C_14  and  C_15
REMARK                            x       y       z     vdW  Elec       q    Type
REMARK                         _______ _______ _______ _____ _____    ______ ____
ROOT
ATOM      1  C   UNL     1      44.909   6.520  11.740  0.00  0.00    +0.000 A 
ATOM      2  C   UNL     1      45.779   6.970  12.736  0.00  0.00    +0.000 A 
ATOM      3  C   UNL     1      45.877   8.329  12.997  0.00  0.00    +0.000 A 
ATOM      4  F   UNL     1      46.707   8.755  13.958  0.00  0.00    +0.000 F 
ATOM      5  C   UNL     1      45.116   9.257  12.293  0.00  0.00    +0.000 A 
ATOM      6  C   UNL     1      44.231   8.850  11.280  0.00  0.00    +0.000 A 
ATOM      7  C   UNL     1      44.154   7.466  11.016  0.00  0.00    +0.000 A 
ENDROOT
BRANCH   6   8
ATOM      8  C   UNL     1      43.401   9.835  10.540  0.00  0.00    +0.000 A 
ATOM      9  C   UNL     1      43.961  10.687   9.569  0.00  0.00    +0.000 A 
ATOM     10  C   UNL     1      43.191  11.644   8.898  0.00  0.00    +0.000 A 
ATOM     11  C   UNL     1      41.832  11.759   9.169  0.00  0.00    +0.000 A 
ATOM     12  C   UNL     1      41.245  10.919  10.109  0.00  0.00    +0.000 A 
ATOM     13  C   UNL     1      42.022   9.974  10.788  0.00  0.00    +0.000 A 
ENDBRANCH   6   8
BRANCH   1  14
ATOM     14  C   UNL     1      44.737   5.042  11.484  0.00  0.00    +0.000 C 
BRANCH  14  15
ATOM     15  O   UNL     1      44.126   4.847  10.206  0.00  0.00    +0.000 OA
BRANCH  15  19
ATOM     16  C   UNL     1      46.549   2.769   7.689  0.00  0.00    +0.000 A 
ATOM     17  C   UNL     1      46.522   4.155   7.652  0.00  0.00    +0.000 A 
ATOM     18  N   UNL     1      45.728   4.894   8.467  0.00  0.00    +0.000 NA
ATOM     19  C   UNL     1      44.957   4.188   9.327  0.00  0.00    +0.000 A 
ATOM     20  C   UNL     1      44.978   2.801   9.360  0.00  0.00    +0.000 A 
ATOM     21  N   UNL     1      45.773   2.057   8.547  0.00  0.00    +0.000 NA
BRANCH  16  23
ATOM     22  N   UNL     1      48.167   1.466   6.138  0.00  0.00    +0.000 NA
ATOM     23  C   UNL     1      47.418   2.035   6.819  0.00  0.00    +0.000 C 
ENDBRANCH  16  23
ENDBRANCH  15  19
ENDBRANCH  14  15
ENDBRANCH   1  14
TORSDOF 5
ENDMDL
MODEL 8
REMARK VINA RESULT:    -6.978      4.059      7.250
REMARK INTER + INTRA:          -9.590
REMARK INTER:                  -8.929
REMARK INTRA:                  -0.660
REMARK UNBOUND:                -0.572
REMARK  Name = 
REMARK  5 active torsions:
REMARK  status: ('A' for Active; 'I' for Inactive)
REMARK    1  A    between atoms: C_2  and  C_3
REMARK    2  A    between atoms: C_6  and  O_7
REMARK    3  A    between atoms: O_7  and  C_8
REMARK    4  A    between atoms: C_8  and  C_9
REMARK    5  A    between atoms: C_14  and  C_15
REMARK                            x       y       z     vdW  Elec       q    Type
REMARK                         _______ _______ _______ _____ _____    ______ ____
ROOT
ATOM      1  C   UNL     1      45.218   6.649  11.177  0.00  0.00    +0.000 A 
ATOM      2  C   UNL     1      43.909   6.453  11.624  0.00  0.00    +0.000 A 
ATOM      3  C   UNL     1      43.182   5.369  11.155  0.00  0.00    +0.000 A 
ATOM      4  F   UNL     1      41.930   5.180  11.592  0.00  0.00    +0.000 F 
ATOM      5  C   UNL     1      43.733   4.462  10.255  0.00  0.00    +0.000 A 
ATOM      6  C   UNL     1      45.045   4.623   9.776  0.00  0.00    +0.000 A 
ATOM      7  C   UNL     1      45.767   5.739  10.251  0.00  0.00    +0.000 A 
ENDROOT
BRANCH   6   8
ATOM      8  C   UNL     1      45.645   3.647   8.831  0.00  0.00    +0.000 A 
ATOM      9  C   UNL     1      46.341   4.068   7.682  0.00  0.00    +0.000 A 
ATOM     10  C   UNL     1      46.874   3.152   6.767  0.00  0.00    +0.000 A 
ATOM     11  C   UNL     1      46.740   1.787   6.992  0.00  0.00    +0.000 A 
ATOM     12  C   UNL     1      46.076   1.338   8.127  0.00  0.00    +0.000 A 
ATOM     13  C   UNL     1      45.531   2.258   9.032  0.00  0.00    +0.000 A 
ENDBRANCH   6   8
BRANCH   1  14
ATOM     14  C   UNL     1      46.053   7.784  11.724  0.00  0.00    +0.000 C 
BRANCH  14  15
ATOM     15  O   UNL     1      45.992   7.776  13.152  0.00  0.00    +0.000 OA
BRANCH  15  19
ATOM     16  C   UNL     1      49.661   7.414  14.862  0.00  0.00    +0.000 A 
ATOM     17  C   UNL     1      49.123   8.668  14.615  0.00  0.00    +0.000 A 
ATOM     18  N   UNL     1      47.906   8.842  14.043  0.00  0.00    +0.000 NA
ATOM     19  C   UNL     1      47.242   7.706  13.725  0.00  0.00    +0.000 A 
ATOM     20  C   UNL     1      47.783   6.451  13.966  0.00  0.00    +0.000 A 
ATOM     21  N   UNL     1      49.002   6.273  14.540  0.00  0.00    +0.000 NA
BRANCH  16  23
ATOM     22  N   UNL     1      52.008   7.172  15.937  0.00  0.00    +0.000 NA
ATOM     23  C   UNL     1      50.945   7.284  15.485  0.00  0.00    +0.000 C 
ENDBRANCH  16  23
ENDBRANCH  15  19
ENDBRANCH  14  15
ENDBRANCH   1  14
TORSDOF 5
ENDMDL
MODEL 9
REMARK VINA RESULT:    -6.663      3.790      7.069
REMARK INTER + INTRA:          -9.183
REMARK INTER:                  -8.480
REMARK INTRA:                  -0.703
REMARK UNBOUND:                -0.572
REMARK  Name = 
REMARK  5 active torsions:
REMARK  status: ('A' for Active; 'I' for Inactive)
REMARK    1  A    between atoms: C_2  and  C_3
REMARK    2  A    between atoms: C_6  and  O_7
REMARK    3  A    between atoms: O_7  and  C_8
REMARK    4  A    between atoms: C_8  and  C_9
REMARK    5  A    between atoms: C_14  and  C_15
REMARK                            x       y       z     vdW  Elec       q    Type
REMARK                         _______ _______ _______ _____ _____    ______ ____
ROOT
ATOM      1  C   UNL     1      45.238   6.575  11.623  0.00  0.00    +0.000 A 
ATOM      2  C   UNL     1      43.895   6.465  11.991  0.00  0.00    +0.000 A 
ATOM      3  C   UNL     1      43.097   5.505  11.388  0.00  0.00    +0.000 A 
ATOM      4  F   UNL     1      41.811   5.399  11.750  0.00  0.00    +0.000 F 
ATOM      5  C   UNL     1      43.608   4.638  10.428  0.00  0.00    +0.000 A 
ATOM      6  C   UNL     1      44.952   4.715  10.023  0.00  0.00    +0.000 A 
ATOM      7  C   UNL     1      45.748   5.707  10.636  0.00  0.00    +0.000 A 
ENDROOT
BRANCH   6   8
ATOM      8  C   UNL     1      45.509   3.778   9.014  0.00  0.00    +0.000 A 
ATOM      9  C   UNL     1      45.418   2.383   9.178  0.00  0.00    +0.000 A 
ATOM     10  C   UNL     1      45.976   1.496   8.251  0.00  0.00    +0.000 A 
ATOM     11  C   UNL     1      46.625   1.985   7.122  0.00  0.00    +0.000 A 
ATOM     12  C   UNL     1      46.715   3.357   6.922  0.00  0.00    +0.000 A 
ATOM     13  C   UNL     1      46.168   4.242   7.860  0.00  0.00    +0.000 A 
ENDBRANCH   6   8
BRANCH   1  14
ATOM     14  C   UNL     1      46.144   7.568  12.313  0.00  0.00    +0.000 C 
BRANCH  14  15
ATOM     15  O   UNL     1      47.449   7.003  12.460  0.00  0.00    +0.000 OA
BRANCH  15  19
ATOM     16  C   UNL     1      50.268   9.707  11.338  0.00  0.00    +0.000 A 
ATOM     17  C   UNL     1      50.598   8.367  11.480  0.00  0.00    +0.000 A 
ATOM     18  N   UNL     1      49.695   7.427  11.856  0.00  0.00    +0.000 NA
ATOM     19  C   UNL     1      48.441   7.881  12.086  0.00  0.00    +0.000 A 
ATOM     20  C   UNL     1      48.112   9.222  11.952  0.00  0.00    +0.000 A 
ATOM     21  N   UNL     1      49.013  10.167  11.573  0.00  0.00    +0.000 NA
BRANCH  16  23
ATOM     22  N   UNL     1      52.074  11.430  10.637  0.00  0.00    +0.000 NA
ATOM     23  C   UNL     1      51.254  10.659  10.921  0.00  0.00    +0.000 C 
ENDBRANCH  16  23
ENDBRANCH  15  19
ENDBRANCH  14  15
ENDBRANCH   1  14
TORSDOF 5
ENDMDL
