MODEL 1
REMARK VINA RESULT:    -8.042      0.000      0.000
REMARK INTER + INTRA:         -13.061
REMARK INTER:                 -11.803
REMARK INTRA:                  -1.257
REMARK UNBOUND:                -1.257
REMARK  Name = 
REMARK  9 active torsions:
REMARK  status: ('A' for Active; 'I' for Inactive)
REMARK    1  A    between atoms: C_1  and  O_2
REMARK    2  A    between atoms: O_2  and  C_3
REMARK    3  A    between atoms: C_7  and  C_8
REMARK    4  A    between atoms: C_8  and  O_9
REMARK    5  A    between atoms: O_9  and  C_10
REMARK    6  A    between atoms: C_10  and  C_11
REMARK    7  A    between atoms: C_14  and  C_15
REMARK    8  A    between atoms: C_15  and  N_16
REMARK    9  A    between atoms: C_17  and  C_19
REMARK                            x       y       z     vdW  Elec       q    Type
REMARK                         _______ _______ _______ _____ _____    ______ ____
ROOT
ATOM      1  C   UNL     1      44.387   4.846  12.185  0.00  0.00    +0.000 A 
ATOM      2  C   UNL     1      44.916   5.947  11.512  0.00  0.00    +0.000 A 
ATOM      3  C   UNL     1      46.110   6.506  11.960  0.00  0.00    +0.000 A 
ATOM      4  C   UNL     1      46.760   5.951  13.063  0.00  0.00    +0.000 A 
ATOM      5  C   UNL     1      46.138   4.879  13.696  0.00  0.00    +0.000 A 
ATOM      6  N   UNL     1      44.976   4.318  13.287  0.00  0.00    +0.000 NA
ENDROOT
BRANCH   1   7
ATOM      7  C   UNL     1      43.149   4.165  11.653  0.00  0.00    +0.000 C 
BRANCH   7   8
ATOM      8  O   UNL     1      43.408   3.797  10.299  0.00  0.00    +0.000 OA
BRANCH   8   9
ATOM      9  C   UNL     1      44.158   2.591  10.190  0.00  0.00    +0.000 C 
BRANCH   9  14
ATOM     10  C   UNL     1      46.692   1.689   7.678  0.00  0.00    +0.000 A 
ATOM     11  C   UNL     1      46.974   2.868   7.009  0.00  0.00    +0.000 A 
ATOM     12  C   UNL     1      46.323   4.026   7.416  0.00  0.00    +0.000 A 
ATOM     13  C   UNL     1      45.411   3.956   8.465  0.00  0.00    +0.000 A 
ATOM     14  C   UNL     1      45.163   2.723   9.070  0.00  0.00    +0.000 A 
ATOM     15  N   UNL     1      45.812   1.593   8.698  0.00  0.00    +0.000 NA
BRANCH  10  17
ATOM     16  C   UNL     1      46.666  -0.641   7.583  0.00  0.00    +0.000 C 
ATOM     17  O   UNL     1      47.356   0.558   7.243  0.00  0.00    +0.000 OA
ENDBRANCH  10  17
ENDBRANCH   9  14
ENDBRANCH   8   9
ENDBRANCH   7   8
ENDBRANCH   1   7
BRANCH   4  18
ATOM     18  C   UNL     1      48.069   6.485  13.557  0.00  0.00    +0.000 C 
BRANCH  18  19
ATOM     19  N   UNL     1      48.125   6.526  14.997  0.00  0.00    +0.000 N 
ATOM     20  C   UNL     1      49.280   6.900  15.638  0.00  0.00    +0.000 C 
ATOM     21  O   UNL     1      50.276   7.260  15.015  0.00  0.00    +0.000 OA
ATOM     22  H   UNL     1      47.396   6.044  15.515  0.00  0.00    +0.000 HD
BRANCH  20  23
ATOM     23  C   UNL     1      49.255   6.904  17.105  0.00  0.00    +0.000 A 
ATOM     24  C   UNL     1      49.439   8.101  17.786  0.00  0.00    +0.000 A 
ATOM     25  S   UNL     1      49.372   7.943  19.481  0.00  0.00    +0.000 S 
ATOM     26  C   UNL     1      49.140   6.261  19.369  0.00  0.00    +0.000 A 
ATOM     27  N   UNL     1      49.042   5.495  20.486  0.00  0.00    +0.000 NA
ATOM     28  C   UNL     1      48.894   4.232  20.258  0.00  0.00    +0.000 A 
ATOM     29  N   UNL     1      48.829   3.669  19.007  0.00  0.00    +0.000 N 
ATOM     30  C   UNL     1      48.888   4.408  17.851  0.00  0.00    +0.000 A 
ATOM     31  O   UNL     1      48.766   3.883  16.748  0.00  0.00    +0.000 OA
ATOM     32  C   UNL     1      49.081   5.832  18.053  0.00  0.00    +0.000 A 
ATOM     33  H   UNL     1      48.695   2.675  18.898  0.00  0.00    +0.000 HD
ENDBRANCH  20  23
ENDBRANCH  18  19
ENDBRANCH   4  18
TORSDOF 8
ENDMDL
MODEL 2
REMARK VINA RESULT:    -7.589      1.718      2.135
REMARK INTER + INTRA:         -12.395
REMARK INTER:                 -11.344
REMARK INTRA:                  -1.052
REMARK UNBOUND:                -1.257
REMARK  Name = 
REMARK  9 active torsions:
REMARK  status: ('A' for Active; 'I' for Inactive)
REMARK    1  A    between atoms: C_1  and  O_2
REMARK    2  A    between atoms: O_2  and  C_3
REMARK    3  A    between atoms: C_7  and  C_8
REMARK    4  A    between atoms: C_8  and  O_9
REMARK    5  A    between atoms: O_9  and  C_10
REMARK    6  A    between atoms: C_10  and  C_11
REMARK    7  A    between atoms: C_14  and  C_15
REMARK    8  A    between atoms: C_15  and  N_16
REMARK    9  A    between atoms: C_17  and  C_19
REMARK                            x       y       z     vdW  Elec       q    Type
REMARK                         _______ _______ _______ _____ _____    ______ ____
ROOT
ATOM      1  C   UNL     1      44.699   5.582  12.712  0.00  0.00    +0.000 A 
ATOM      2  C   UNL     1      45.656   4.725  13.256  0.00  0.00    +0.000 A 
ATOM      3  C   UNL     1      46.897   5.240  13.622  0.00  0.00    +0.000 A 
ATOM      4  C   UNL     1      47.157   6.600  13.449  0.00  0.00    +0.000 A 
ATOM      5  C   UNL     1      46.158   7.370  12.861  0.00  0.00    +0.000 A 
ATOM      6  N   UNL     1      44.945   6.897  12.491  0.00  0.00    +0.000 NA
ENDROOT
BRANCH   1   7
ATOM      7  C   UNL     1      43.314   5.062  12.406  0.00  0.00    +0.000 C 
BRANCH   7   8
ATOM      8  O   UNL     1      43.441   4.073  11.387  0.00  0.00    +0.000 OA
BRANCH   8   9
ATOM      9  C   UNL     1      43.623   4.636  10.092  0.00  0.00    +0.000 C 
BRANCH   9  14
ATOM     10  C   UNL     1      45.953   3.483   7.486  0.00  0.00    +0.000 A 
ATOM     11  C   UNL     1      46.127   2.130   7.729  0.00  0.00    +0.000 A 
ATOM     12  C   UNL     1      45.426   1.558   8.783  0.00  0.00    +0.000 A 
ATOM     13  C   UNL     1      44.591   2.360   9.555  0.00  0.00    +0.000 A 
ATOM     14  C   UNL     1      44.490   3.720   9.262  0.00  0.00    +0.000 A 
ATOM     15  N   UNL     1      45.149   4.283   8.220  0.00  0.00    +0.000 NA
BRANCH  10  17
ATOM     16  C   UNL     1      47.033   3.036   5.468  0.00  0.00    +0.000 C 
ATOM     17  O   UNL     1      46.667   4.018   6.432  0.00  0.00    +0.000 OA
ENDBRANCH  10  17
ENDBRANCH   9  14
ENDBRANCH   8   9
ENDBRANCH   7   8
ENDBRANCH   1   7
BRANCH   4  18
ATOM     18  C   UNL     1      48.458   7.212  13.867  0.00  0.00    +0.000 C 
BRANCH  18  19
ATOM     19  N   UNL     1      48.417   7.686  15.228  0.00  0.00    +0.000 N 
ATOM     20  C   UNL     1      48.973   6.944  16.240  0.00  0.00    +0.000 C 
ATOM     21  O   UNL     1      49.563   5.890  16.018  0.00  0.00    +0.000 OA
ATOM     22  H   UNL     1      47.768   8.435  15.452  0.00  0.00    +0.000 HD
BRANCH  20  23
ATOM     23  C   UNL     1      48.879   7.494  17.598  0.00  0.00    +0.000 A 
ATOM     24  C   UNL     1      49.511   8.696  17.890  0.00  0.00    +0.000 A 
ATOM     25  S   UNL     1      49.299   9.207  19.502  0.00  0.00    +0.000 S 
ATOM     26  C   UNL     1      48.392   7.818  19.880  0.00  0.00    +0.000 A 
ATOM     27  N   UNL     1      47.928   7.610  21.140  0.00  0.00    +0.000 NA
ATOM     28  C   UNL     1      47.279   6.504  21.295  0.00  0.00    +0.000 A 
ATOM     29  N   UNL     1      47.047   5.589  20.297  0.00  0.00    +0.000 N 
ATOM     30  C   UNL     1      47.466   5.775  19.002  0.00  0.00    +0.000 A 
ATOM     31  O   UNL     1      47.192   4.968  18.118  0.00  0.00    +0.000 OA
ATOM     32  C   UNL     1      48.226   6.991  18.781  0.00  0.00    +0.000 A 
ATOM     33  H   UNL     1      46.516   4.752  20.480  0.00  0.00    +0.000 HD
ENDBRANCH  20  23
ENDBRANCH  18  19
ENDBRANCH   4  18
TORSDOF 8
ENDMDL
MODEL 3
REMARK VINA RESULT:    -7.461      3.873      5.846
REMARK INTER + INTRA:         -12.208
REMARK INTER:                 -10.810
REMARK INTRA:                  -1.398
REMARK UNBOUND:                -1.257
REMARK  Name = 
REMARK  9 active torsions:
REMARK  status: ('A' for Active; 'I' for Inactive)
REMARK    1  A    between atoms: C_1  and  O_2
REMARK    2  A    between atoms: O_2  and  C_3
REMARK    3  A    between atoms: C_7  and  C_8
REMARK    4  A    between atoms: C_8  and  O_9
REMARK    5  A    between atoms: O_9  and  C_10
REMARK    6  A    between atoms: C_10  and  C_11
REMARK    7  A    between atoms: C_14  and  C_15
REMARK    8  A    between atoms: C_15  and  N_16
REMARK    9  A    between atoms: C_17  and  C_19
REMARK                            x       y       z     vdW  Elec       q    Type
REMARK                         _______ _______ _______ _____ _____    ______ ____
ROOT
ATOM      1  C   UNL     1      44.490   5.218  12.997  0.00  0.00    +0.000 A 
ATOM      2  C   UNL     1      44.821   6.400  12.336  0.00  0.00    +0.000 A 
ATOM      3  C   UNL     1      46.146   6.829  12.338  0.00  0.00    +0.000 A 
ATOM      4  C   UNL     1      47.116   6.067  12.988  0.00  0.00    +0.000 A 
ATOM      5  C   UNL     1      46.687   4.924  13.655  0.00  0.00    +0.000 A 
ATOM      6  N   UNL     1      45.407   4.485  13.676  0.00  0.00    +0.000 NA
ENDROOT
BRANCH   1   7
ATOM      7  C   UNL     1      43.079   4.684  12.919  0.00  0.00    +0.000 C 
BRANCH   7   8
ATOM      8  O   UNL     1      42.843   4.287  11.569  0.00  0.00    +0.000 OA
BRANCH   8   9
ATOM      9  C   UNL     1      43.363   2.993  11.278  0.00  0.00    +0.000 C 
BRANCH   9  14
ATOM     10  C   UNL     1      45.671   1.979   8.596  0.00  0.00    +0.000 A 
ATOM     11  C   UNL     1      45.910   3.133   7.868  0.00  0.00    +0.000 A 
ATOM     12  C   UNL     1      45.307   4.311   8.290  0.00  0.00    +0.000 A 
ATOM     13  C   UNL     1      44.485   4.286   9.413  0.00  0.00    +0.000 A 
ATOM     14  C   UNL     1      44.274   3.077  10.076  0.00  0.00    +0.000 A 
ATOM     15  N   UNL     1      44.877   1.927   9.688  0.00  0.00    +0.000 NA
BRANCH  10  17
ATOM     16  C   UNL     1      47.314   1.092   7.198  0.00  0.00    +0.000 C 
ATOM     17  O   UNL     1      46.284   0.826   8.145  0.00  0.00    +0.000 OA
ENDBRANCH  10  17
ENDBRANCH   9  14
ENDBRANCH   8   9
ENDBRANCH   7   8
ENDBRANCH   1   7
BRANCH   4  18
ATOM     18  C   UNL     1      48.561   6.460  12.982  0.00  0.00    +0.000 C 
BRANCH  18  19
ATOM     19  N   UNL     1      48.802   7.615  12.154  0.00  0.00    +0.000 N 
ATOM     20  C   UNL     1      49.854   8.456  12.421  0.00  0.00    +0.000 C 
ATOM     21  O   UNL     1      50.648   8.227  13.331  0.00  0.00    +0.000 OA
ATOM     22  H   UNL     1      48.053   7.926  11.542  0.00  0.00    +0.000 HD
BRANCH  20  23
ATOM     23  C   UNL     1      50.021   9.614  11.536  0.00  0.00    +0.000 A 
ATOM     24  C   UNL     1      51.253   9.841  10.937  0.00  0.00    +0.000 A 
ATOM     25  S   UNL     1      51.285  11.215   9.930  0.00  0.00    +0.000 S 
ATOM     26  C   UNL     1      49.664  11.585  10.294  0.00  0.00    +0.000 A 
ATOM     27  N   UNL     1      49.068  12.690   9.777  0.00  0.00    +0.000 NA
ATOM     28  C   UNL     1      47.846  12.866  10.156  0.00  0.00    +0.000 A 
ATOM     29  N   UNL     1      47.164  12.027  11.003  0.00  0.00    +0.000 N 
ATOM     30  C   UNL     1      47.715  10.880  11.521  0.00  0.00    +0.000 A 
ATOM     31  O   UNL     1      47.061  10.118  12.227  0.00  0.00    +0.000 OA
ATOM     32  C   UNL     1      49.098  10.651  11.147  0.00  0.00    +0.000 A 
ATOM     33  H   UNL     1      46.203  12.212  11.246  0.00  0.00    +0.000 HD
ENDBRANCH  20  23
ENDBRANCH  18  19
ENDBRANCH   4  18
TORSDOF 8
ENDMDL
MODEL 4
REMARK VINA RESULT:    -7.406      1.969      2.190
REMARK INTER + INTRA:         -12.127
REMARK INTER:                 -10.775
REMARK INTRA:                  -1.352
REMARK UNBOUND:                -1.257
REMARK  Name = 
REMARK  9 active torsions:
REMARK  status: ('A' for Active; 'I' for Inactive)
REMARK    1  A    between atoms: C_1  and  O_2
REMARK    2  A    between atoms: O_2  and  C_3
REMARK    3  A    between atoms: C_7  and  C_8
REMARK    4  A    between atoms: C_8  and  O_9
REMARK    5  A    between atoms: O_9  and  C_10
REMARK    6  A    between atoms: C_10  and  C_11
REMARK    7  A    between atoms: C_14  and  C_15
REMARK    8  A    between atoms: C_15  and  N_16
REMARK    9  A    between atoms: C_17  and  C_19
REMARK                            x       y       z     vdW  Elec       q    Type
REMARK                         _______ _______ _______ _____ _____    ______ ____
ROOT
ATOM      1  C   UNL     1      44.873   5.171  13.156  0.00  0.00    +0.000 A 
ATOM      2  C   UNL     1      44.835   6.440  12.577  0.00  0.00    +0.000 A 
ATOM      3  C   UNL     1      46.004   7.194  12.520  0.00  0.00    +0.000 A 
ATOM      4  C   UNL     1      47.191   6.666  13.030  0.00  0.00    +0.000 A 
ATOM      5  C   UNL     1      47.125   5.410  13.624  0.00  0.00    +0.000 A 
ATOM      6  N   UNL     1      46.004   4.656  13.700  0.00  0.00    +0.000 NA
ENDROOT
BRANCH   1   7
ATOM      7  C   UNL     1      43.640   4.299  13.135  0.00  0.00    +0.000 C 
BRANCH   7   8
ATOM      8  O   UNL     1      43.998   3.061  12.525  0.00  0.00    +0.000 OA
BRANCH   8   9
ATOM      9  C   UNL     1      43.279   2.812  11.321  0.00  0.00    +0.000 C 
BRANCH   9  14
ATOM     10  C   UNL     1      45.661   1.993   8.637  0.00  0.00    +0.000 A 
ATOM     11  C   UNL     1      45.872   3.185   7.964  0.00  0.00    +0.000 A 
ATOM     12  C   UNL     1      45.223   4.323   8.426  0.00  0.00    +0.000 A 
ATOM     13  C   UNL     1      44.385   4.222   9.533  0.00  0.00    +0.000 A 
ATOM     14  C   UNL     1      44.205   2.978  10.139  0.00  0.00    +0.000 A 
ATOM     15  N   UNL     1      44.853   1.867   9.712  0.00  0.00    +0.000 NA
BRANCH  10  17
ATOM     16  C   UNL     1      47.322   1.221   7.193  0.00  0.00    +0.000 C 
ATOM     17  O   UNL     1      46.320   0.883   8.147  0.00  0.00    +0.000 OA
ENDBRANCH  10  17
ENDBRANCH   9  14
ENDBRANCH   8   9
ENDBRANCH   7   8
ENDBRANCH   1   7
BRANCH   4  18
ATOM     18  C   UNL     1      48.484   7.416  12.952  0.00  0.00    +0.000 C 
BRANCH  18  19
ATOM     19  N   UNL     1      49.460   6.906  13.882  0.00  0.00    +0.000 N 
ATOM     20  C   UNL     1      50.191   7.765  14.664  0.00  0.00    +0.000 C 
ATOM     21  O   UNL     1      50.005   8.979  14.637  0.00  0.00    +0.000 OA
ATOM     22  H   UNL     1      49.766   5.944  13.770  0.00  0.00    +0.000 HD
BRANCH  20  23
ATOM     23  C   UNL     1      51.171   7.164  15.577  0.00  0.00    +0.000 A 
ATOM     24  C   UNL     1      52.508   7.526  15.475  0.00  0.00    +0.000 A 
ATOM     25  S   UNL     1      53.516   6.752  16.610  0.00  0.00    +0.000 S 
ATOM     26  C   UNL     1      52.209   5.870  17.250  0.00  0.00    +0.000 A 
ATOM     27  N   UNL     1      52.399   4.970  18.250  0.00  0.00    +0.000 NA
ATOM     28  C   UNL     1      51.328   4.351  18.622  0.00  0.00    +0.000 A 
ATOM     29  N   UNL     1      50.081   4.559  18.087  0.00  0.00    +0.000 N 
ATOM     30  C   UNL     1      49.837   5.484  17.101  0.00  0.00    +0.000 A 
ATOM     31  O   UNL     1      48.701   5.691  16.684  0.00  0.00    +0.000 OA
ATOM     32  C   UNL     1      51.014   6.188  16.626  0.00  0.00    +0.000 A 
ATOM     33  H   UNL     1      49.281   4.054  18.436  0.00  0.00    +0.000 HD
ENDBRANCH  20  23
ENDBRANCH  18  19
ENDBRANCH   4  18
TORSDOF 8
ENDMDL
MODEL 5
REMARK VINA RESULT:    -7.276      2.861      8.690
REMARK INTER + INTRA:         -11.937
REMARK INTER:                 -10.424
REMARK INTRA:                  -1.513
REMARK UNBOUND:                -1.257
REMARK  Name = 
REMARK  9 active torsions:
REMARK  status: ('A' for Active; 'I' for Inactive)
REMARK    1  A    between atoms: C_1  and  O_2
REMARK    2  A    between atoms: O_2  and  C_3
REMARK    3  A    between atoms: C_7  and  C_8
REMARK    4  A    between atoms: C_8  and  O_9
REMARK    5  A    between atoms: O_9  and  C_10
REMARK    6  A    between atoms: C_10  and  C_11
REMARK    7  A    between atoms: C_14  and  C_15
REMARK    8  A    between atoms: C_15  and  N_16
REMARK    9  A    between atoms: C_17  and  C_19
REMARK                            x       y       z     vdW  Elec       q    Type
REMARK                         _______ _______ _______ _____ _____    ______ ____
ROOT
ATOM      1  C   UNL     1      49.506   7.983  15.645  0.00  0.00    +0.000 A 
ATOM      2  C   UNL     1      48.715   9.068  15.270  0.00  0.00    +0.000 A 
ATOM      3  C   UNL     1      48.098   9.058  14.022  0.00  0.00    +0.000 A 
ATOM      4  C   UNL     1      48.272   7.963  13.176  0.00  0.00    +0.000 A 
ATOM      5  C   UNL     1      49.110   6.944  13.617  0.00  0.00    +0.000 A 
ATOM      6  N   UNL     1      49.727   6.928  14.822  0.00  0.00    +0.000 NA
ENDROOT
BRANCH   1   7
ATOM      7  C   UNL     1      50.099   7.930  17.034  0.00  0.00    +0.000 C 
BRANCH   7   8
ATOM      8  O   UNL     1      49.142   7.305  17.887  0.00  0.00    +0.000 OA
BRANCH   8   9
ATOM      9  C   UNL     1      49.697   6.235  18.646  0.00  0.00    +0.000 C 
BRANCH   9  14
ATOM     10  C   UNL     1      47.905   3.710  16.655  0.00  0.00    +0.000 A 
ATOM     11  C   UNL     1      48.704   2.580  16.699  0.00  0.00    +0.000 A 
ATOM     12  C   UNL     1      49.878   2.636  17.440  0.00  0.00    +0.000 A 
ATOM     13  C   UNL     1      50.209   3.818  18.096  0.00  0.00    +0.000 A 
ATOM     14  C   UNL     1      49.363   4.921  17.980  0.00  0.00    +0.000 A 
ATOM     15  N   UNL     1      48.203   4.870  17.281  0.00  0.00    +0.000 NA
BRANCH  10  17
ATOM     16  C   UNL     1      46.855   4.291  14.655  0.00  0.00    +0.000 C 
ATOM     17  O   UNL     1      46.748   3.620  15.906  0.00  0.00    +0.000 OA
ENDBRANCH  10  17
ENDBRANCH   9  14
ENDBRANCH   8   9
ENDBRANCH   7   8
ENDBRANCH   1   7
BRANCH   4  18
ATOM     18  C   UNL     1      47.594   7.882  11.843  0.00  0.00    +0.000 C 
BRANCH  18  19
ATOM     19  N   UNL     1      46.905   6.628  11.665  0.00  0.00    +0.000 N 
ATOM     20  C   UNL     1      45.535   6.593  11.584  0.00  0.00    +0.000 C 
ATOM     21  O   UNL     1      44.860   7.619  11.607  0.00  0.00    +0.000 OA
ATOM     22  H   UNL     1      47.420   5.772  11.848  0.00  0.00    +0.000 HD
BRANCH  20  23
ATOM     23  C   UNL     1      44.912   5.275  11.412  0.00  0.00    +0.000 A 
ATOM     24  C   UNL     1      44.165   4.735  12.451  0.00  0.00    +0.000 A 
ATOM     25  S   UNL     1      43.498   3.208  12.095  0.00  0.00    +0.000 S 
ATOM     26  C   UNL     1      44.221   3.192  10.555  0.00  0.00    +0.000 A 
ATOM     27  N   UNL     1      44.077   2.124   9.728  0.00  0.00    +0.000 NA
ATOM     28  C   UNL     1      44.699   2.232   8.601  0.00  0.00    +0.000 A 
ATOM     29  N   UNL     1      45.449   3.319   8.225  0.00  0.00    +0.000 N 
ATOM     30  C   UNL     1      45.593   4.435   9.014  0.00  0.00    +0.000 A 
ATOM     31  O   UNL     1      46.220   5.416   8.625  0.00  0.00    +0.000 OA
ATOM     32  C   UNL     1      44.935   4.353  10.304  0.00  0.00    +0.000 A 
ATOM     33  H   UNL     1      45.896   3.348   7.322  0.00  0.00    +0.000 HD
ENDBRANCH  20  23
ENDBRANCH  18  19
ENDBRANCH   4  18
TORSDOF 8
ENDMDL
MODEL 6
REMARK VINA RESULT:    -6.814      3.810      8.560
REMARK INTER + INTRA:         -11.259
REMARK INTER:                  -9.763
REMARK INTRA:                  -1.496
REMARK UNBOUND:                -1.257
REMARK  Name = 
REMARK  9 active torsions:
REMARK  status: ('A' for Active; 'I' for Inactive)
REMARK    1  A    between atoms: C_1  and  O_2
REMARK    2  A    between atoms: O_2  and  C_3
REMARK    3  A    between atoms: C_7  and  C_8
REMARK    4  A    between atoms: C_8  and  O_9
REMARK    5  A    between atoms: O_9  and  C_10
REMARK    6  A    between atoms: C_10  and  C_11
REMARK    7  A    between atoms: C_14  and  C_15
REMARK    8  A    between atoms: C_15  and  N_16
REMARK    9  A    between atoms: C_17  and  C_19
REMARK                            x       y       z     vdW  Elec       q    Type
REMARK                         _______ _______ _______ _____ _____    ______ ____
ROOT
ATOM      1  C   UNL     1      50.277   7.118  18.273  0.00  0.00    +0.000 A 
ATOM      2  C   UNL     1      50.835   6.657  17.081  0.00  0.00    +0.000 A 
ATOM      3  C   UNL     1      50.263   7.041  15.871  0.00  0.00    +0.000 A 
ATOM      4  C   UNL     1      49.153   7.885  15.871  0.00  0.00    +0.000 A 
ATOM      5  C   UNL     1      48.639   8.262  17.108  0.00  0.00    +0.000 A 
ATOM      6  N   UNL     1      49.170   7.901  18.299  0.00  0.00    +0.000 NA
ENDROOT
BRANCH   1   7
ATOM      7  C   UNL     1      50.944   6.796  19.589  0.00  0.00    +0.000 C 
BRANCH   7   8
ATOM      8  O   UNL     1      50.885   5.382  19.768  0.00  0.00    +0.000 OA
BRANCH   8   9
ATOM      9  C   UNL     1      49.564   4.915  20.021  0.00  0.00    +0.000 C 
BRANCH   9  14
ATOM     10  C   UNL     1      49.398   2.644  17.128  0.00  0.00    +0.000 A 
ATOM     11  C   UNL     1      48.138   2.841  16.586  0.00  0.00    +0.000 A 
ATOM     12  C   UNL     1      47.308   3.783  17.179  0.00  0.00    +0.000 A 
ATOM     13  C   UNL     1      47.765   4.482  18.293  0.00  0.00    +0.000 A 
ATOM     14  C   UNL     1      49.037   4.207  18.795  0.00  0.00    +0.000 A 
ATOM     15  N   UNL     1      49.865   3.308  18.208  0.00  0.00    +0.000 NA
BRANCH  10  17
ATOM     16  C   UNL     1      51.373   1.412  17.261  0.00  0.00    +0.000 C 
ATOM     17  O   UNL     1      50.194   1.698  16.514  0.00  0.00    +0.000 OA
ENDBRANCH  10  17
ENDBRANCH   9  14
ENDBRANCH   8   9
ENDBRANCH   7   8
ENDBRANCH   1   7
BRANCH   4  18
ATOM     18  C   UNL     1      48.528   8.364  14.597  0.00  0.00    +0.000 C 
BRANCH  18  19
ATOM     19  N   UNL     1      47.445   7.510  14.174  0.00  0.00    +0.000 N 
ATOM     20  C   UNL     1      47.678   6.467  13.314  0.00  0.00    +0.000 C 
ATOM     21  O   UNL     1      48.810   6.194  12.920  0.00  0.00    +0.000 OA
ATOM     22  H   UNL     1      46.496   7.839  14.320  0.00  0.00    +0.000 HD
BRANCH  20  23
ATOM     23  C   UNL     1      46.520   5.654  12.925  0.00  0.00    +0.000 A 
ATOM     24  C   UNL     1      46.558   4.279  13.117  0.00  0.00    +0.000 A 
ATOM     25  S   UNL     1      45.136   3.478  12.627  0.00  0.00    +0.000 S 
ATOM     26  C   UNL     1      44.434   4.935  12.099  0.00  0.00    +0.000 A 
ATOM     27  N   UNL     1      43.203   4.947  11.523  0.00  0.00    +0.000 NA
ATOM     28  C   UNL     1      42.802   6.115  11.143  0.00  0.00    +0.000 A 
ATOM     29  N   UNL     1      43.522   7.275  11.295  0.00  0.00    +0.000 N 
ATOM     30  C   UNL     1      44.753   7.314  11.903  0.00  0.00    +0.000 A 
ATOM     31  O   UNL     1      45.346   8.375  12.079  0.00  0.00    +0.000 OA
ATOM     32  C   UNL     1      45.263   6.022  12.323  0.00  0.00    +0.000 A 
ATOM     33  H   UNL     1      43.143   8.159  10.992  0.00  0.00    +0.000 HD
ENDBRANCH  20  23
ENDBRANCH  18  19
ENDBRANCH   4  18
TORSDOF 8
ENDMDL
MODEL 7
REMARK VINA RESULT:    -6.614      2.149      3.124
REMARK INTER + INTRA:         -10.965
REMARK INTER:                  -9.976
REMARK INTRA:                  -0.989
REMARK UNBOUND:                -1.257
REMARK  Name = 
REMARK  9 active torsions:
REMARK  status: ('A' for Active; 'I' for Inactive)
REMARK    1  A    between atoms: C_1  and  O_2
REMARK    2  A    between atoms: O_2  and  C_3
REMARK    3  A    between atoms: C_7  and  C_8
REMARK    4  A    between atoms: C_8  and  O_9
REMARK    5  A    between atoms: O_9  and  C_10
REMARK    6  A    between atoms: C_10  and  C_11
REMARK    7  A    between atoms: C_14  and  C_15
REMARK    8  A    between atoms: C_15  and  N_16
REMARK    9  A    between atoms: C_17  and  C_19
REMARK                            x       y       z     vdW  Elec       q    Type
REMARK                         _______ _______ _______ _____ _____    ______ ____
ROOT
ATOM      1  C   UNL     1      46.058   7.002  12.348  0.00  0.00    +0.000 A 
ATOM      2  C   UNL     1      46.328   8.215  12.980  0.00  0.00    +0.000 A 
ATOM      3  C   UNL     1      47.508   8.352  13.708  0.00  0.00    +0.000 A 
ATOM      4  C   UNL     1      48.400   7.282  13.782  0.00  0.00    +0.000 A 
ATOM      5  C   UNL     1      48.028   6.098  13.154  0.00  0.00    +0.000 A 
ATOM      6  N   UNL     1      46.887   5.933  12.444  0.00  0.00    +0.000 NA
ENDROOT
BRANCH   1   7
ATOM      7  C   UNL     1      44.835   6.869  11.471  0.00  0.00    +0.000 C 
BRANCH   7   8
ATOM      8  O   UNL     1      44.375   5.523  11.573  0.00  0.00    +0.000 OA
BRANCH   8   9
ATOM      9  C   UNL     1      43.576   5.128  10.462  0.00  0.00    +0.000 C 
BRANCH   9  14
ATOM     10  C   UNL     1      45.745   3.691   7.859  0.00  0.00    +0.000 A 
ATOM     11  C   UNL     1      45.764   2.330   8.114  0.00  0.00    +0.000 A 
ATOM     12  C   UNL     1      45.008   1.851   9.177  0.00  0.00    +0.000 A 
ATOM     13  C   UNL     1      44.274   2.750   9.944  0.00  0.00    +0.000 A 
ATOM     14  C   UNL     1      44.329   4.110   9.638  0.00  0.00    +0.000 A 
ATOM     15  N   UNL     1      45.043   4.585   8.588  0.00  0.00    +0.000 NA
BRANCH  10  17
ATOM     16  C   UNL     1      46.849   3.080   5.897  0.00  0.00    +0.000 C 
ATOM     17  O   UNL     1      46.511   4.131   6.797  0.00  0.00    +0.000 OA
ENDBRANCH  10  17
ENDBRANCH   9  14
ENDBRANCH   8   9
ENDBRANCH   7   8
ENDBRANCH   1   7
BRANCH   4  18
ATOM     18  C   UNL     1      49.702   7.391  14.513  0.00  0.00    +0.000 C 
BRANCH  18  19
ATOM     19  N   UNL     1      49.511   7.556  15.933  0.00  0.00    +0.000 N 
ATOM     20  C   UNL     1      49.252   6.470  16.730  0.00  0.00    +0.000 C 
ATOM     21  O   UNL     1      49.226   5.328  16.277  0.00  0.00    +0.000 OA
ATOM     22  H   UNL     1      49.326   8.492  16.282  0.00  0.00    +0.000 HD
BRANCH  20  23
ATOM     23  C   UNL     1      49.059   6.726  18.163  0.00  0.00    +0.000 A 
ATOM     24  C   UNL     1      49.531   5.805  19.088  0.00  0.00    +0.000 A 
ATOM     25  S   UNL     1      49.242   6.250  20.707  0.00  0.00    +0.000 S 
ATOM     26  C   UNL     1      48.436   7.670  20.229  0.00  0.00    +0.000 A 
ATOM     27  N   UNL     1      47.892   8.507  21.151  0.00  0.00    +0.000 NA
ATOM     28  C   UNL     1      47.286   9.532  20.650  0.00  0.00    +0.000 A 
ATOM     29  N   UNL     1      47.183   9.799  19.307  0.00  0.00    +0.000 N 
ATOM     30  C   UNL     1      47.748   9.000  18.342  0.00  0.00    +0.000 A 
ATOM     31  O   UNL     1      47.690   9.296  17.152  0.00  0.00    +0.000 OA
ATOM     32  C   UNL     1      48.417   7.818  18.852  0.00  0.00    +0.000 A 
ATOM     33  H   UNL     1      46.710  10.628  18.982  0.00  0.00    +0.000 HD
ENDBRANCH  20  23
ENDBRANCH  18  19
ENDBRANCH   4  18
TORSDOF 8
ENDMDL
MODEL 8
REMARK VINA RESULT:    -6.578      5.243     10.091
REMARK INTER + INTRA:         -10.912
REMARK INTER:                 -10.189
REMARK INTRA:                  -0.723
REMARK UNBOUND:                -1.257
REMARK  Name = 
REMARK  9 active torsions:
REMARK  status: ('A' for Active; 'I' for Inactive)
REMARK    1  A    between atoms: C_1  and  O_2
REMARK    2  A    between atoms: O_2  and  C_3
REMARK    3  A    between atoms: C_7  and  C_8
REMARK    4  A    between atoms: C_8  and  O_9
REMARK    5  A    between atoms: O_9  and  C_10
REMARK    6  A    between atoms: C_10  and  C_11
REMARK    7  A    between atoms: C_14  and  C_15
REMARK    8  A    between atoms: C_15  and  N_16
REMARK    9  A    between atoms: C_17  and  C_19
REMARK                            x       y       z     vdW  Elec       q    Type
REMARK                         _______ _______ _______ _____ _____    ______ ____
ROOT
ATOM      1  C   UNL     1      51.460   2.643  17.515  0.00  0.00    +0.000 A 
ATOM      2  C   UNL     1      50.980   3.888  17.920  0.00  0.00    +0.000 A 
ATOM      3  C   UNL     1      49.630   4.182  17.747  0.00  0.00    +0.000 A 
ATOM      4  C   UNL     1      48.783   3.226  17.185  0.00  0.00    +0.000 A 
ATOM      5  C   UNL     1      49.358   2.028  16.774  0.00  0.00    +0.000 A 
ATOM      6  N   UNL     1      50.666   1.716  16.924  0.00  0.00    +0.000 NA
ENDROOT
BRANCH   1   7
ATOM      7  C   UNL     1      52.898   2.269  17.788  0.00  0.00    +0.000 C 
BRANCH   7   8
ATOM      8  O   UNL     1      52.911   0.923  18.261  0.00  0.00    +0.000 OA
BRANCH   8   9
ATOM      9  C   UNL     1      54.222   0.463  18.575  0.00  0.00    +0.000 C 
BRANCH   9  14
ATOM     10  C   UNL     1      53.599  -3.047  19.494  0.00  0.00    +0.000 A 
ATOM     11  C   UNL     1      54.209  -3.795  18.501  0.00  0.00    +0.000 A 
ATOM     12  C   UNL     1      54.884  -3.119  17.491  0.00  0.00    +0.000 A 
ATOM     13  C   UNL     1      54.911  -1.728  17.510  0.00  0.00    +0.000 A 
ATOM     14  C   UNL     1      54.248  -1.047  18.531  0.00  0.00    +0.000 A 
ATOM     15  N   UNL     1      53.609  -1.697  19.535  0.00  0.00    +0.000 NA
BRANCH  10  17
ATOM     16  C   UNL     1      53.185  -3.233  21.781  0.00  0.00    +0.000 C 
ATOM     17  O   UNL     1      52.935  -3.752  20.478  0.00  0.00    +0.000 OA
ENDBRANCH  10  17
ENDBRANCH   9  14
ENDBRANCH   8   9
ENDBRANCH   7   8
ENDBRANCH   1   7
BRANCH   4  18
ATOM     18  C   UNL     1      47.315   3.475  17.019  0.00  0.00    +0.000 C 
BRANCH  18  19
ATOM     19  N   UNL     1      47.050   4.505  16.046  0.00  0.00    +0.000 N 
ATOM     20  C   UNL     1      47.094   4.222  14.703  0.00  0.00    +0.000 C 
ATOM     21  O   UNL     1      47.307   3.084  14.290  0.00  0.00    +0.000 OA
ATOM     22  H   UNL     1      47.078   5.471  16.357  0.00  0.00    +0.000 HD
BRANCH  20  23
ATOM     23  C   UNL     1      46.822   5.330  13.780  0.00  0.00    +0.000 A 
ATOM     24  C   UNL     1      47.788   6.309  13.589  0.00  0.00    +0.000 A 
ATOM     25  S   UNL     1      47.328   7.519  12.481  0.00  0.00    +0.000 S 
ATOM     26  C   UNL     1      45.803   6.802  12.249  0.00  0.00    +0.000 A 
ATOM     27  N   UNL     1      44.881   7.373  11.430  0.00  0.00    +0.000 NA
ATOM     28  C   UNL     1      43.757   6.740  11.366  0.00  0.00    +0.000 A 
ATOM     29  N   UNL     1      43.476   5.580  12.046  0.00  0.00    +0.000 N 
ATOM     30  C   UNL     1      44.388   4.949  12.856  0.00  0.00    +0.000 A 
ATOM     31  O   UNL     1      44.128   3.882  13.404  0.00  0.00    +0.000 OA
ATOM     32  C   UNL     1      45.660   5.636  12.984  0.00  0.00    +0.000 A 
ATOM     33  H   UNL     1      42.582   5.125  11.939  0.00  0.00    +0.000 HD
ENDBRANCH  20  23
ENDBRANCH  18  19
ENDBRANCH   4  18
TORSDOF 8
ENDMDL
MODEL 9
REMARK VINA RESULT:    -6.296      5.123      9.884
REMARK INTER + INTRA:         -10.498
REMARK INTER:                  -9.371
REMARK INTRA:                  -1.126
REMARK UNBOUND:                -1.257
REMARK  Name = 
REMARK  9 active torsions:
REMARK  status: ('A' for Active; 'I' for Inactive)
REMARK    1  A    between atoms: C_1  and  O_2
REMARK    2  A    between atoms: O_2  and  C_3
REMARK    3  A    between atoms: C_7  and  C_8
REMARK    4  A    between atoms: C_8  and  O_9
REMARK    5  A    between atoms: O_9  and  C_10
REMARK    6  A    between atoms: C_10  and  C_11
REMARK    7  A    between atoms: C_14  and  C_15
REMARK    8  A    between atoms: C_15  and  N_16
REMARK    9  A    between atoms: C_17  and  C_19
REMARK                            x       y       z     vdW  Elec       q    Type
REMARK                         _______ _______ _______ _____ _____    ______ ____
ROOT
ATOM      1  C   UNL     1      51.406   3.094  17.920  0.00  0.00    +0.000 A 
ATOM      2  C   UNL     1      50.750   2.054  17.260  0.00  0.00    +0.000 A 
ATOM      3  C   UNL     1      49.398   2.190  16.959  0.00  0.00    +0.000 A 
ATOM      4  C   UNL     1      48.727   3.362  17.310  0.00  0.00    +0.000 A 
ATOM      5  C   UNL     1      49.452   4.327  18.001  0.00  0.00    +0.000 A 
ATOM      6  N   UNL     1      50.764   4.222  18.313  0.00  0.00    +0.000 NA
ENDROOT
BRANCH   1   7
ATOM      7  C   UNL     1      52.894   3.007  18.164  0.00  0.00    +0.000 C 
BRANCH   7   8
ATOM      8  O   UNL     1      53.200   1.653  18.490  0.00  0.00    +0.000 OA
BRANCH   8   9
ATOM      9  C   UNL     1      54.232   1.109  17.673  0.00  0.00    +0.000 C 
BRANCH   9  14
ATOM     10  C   UNL     1      54.086  -2.106  19.458  0.00  0.00    +0.000 A 
ATOM     11  C   UNL     1      54.575  -3.041  18.561  0.00  0.00    +0.000 A 
ATOM     12  C   UNL     1      55.001  -2.595  17.316  0.00  0.00    +0.000 A 
ATOM     13  C   UNL     1      54.911  -1.239  17.015  0.00  0.00    +0.000 A 
ATOM     14  C   UNL     1      54.381  -0.365  17.965  0.00  0.00    +0.000 A 
ATOM     15  N   UNL     1      53.987  -0.786  19.192  0.00  0.00    +0.000 NA
BRANCH  10  17
ATOM     16  C   UNL     1      54.573  -2.255  21.734  0.00  0.00    +0.000 C 
ATOM     17  O   UNL     1      53.669  -2.586  20.685  0.00  0.00    +0.000 OA
ENDBRANCH  10  17
ENDBRANCH   9  14
ENDBRANCH   8   9
ENDBRANCH   7   8
ENDBRANCH   1   7
BRANCH   4  18
ATOM     18  C   UNL     1      47.285   3.576  16.968  0.00  0.00    +0.000 C 
BRANCH  18  19
ATOM     19  N   UNL     1      47.116   4.585  15.951  0.00  0.00    +0.000 N 
ATOM     20  C   UNL     1      47.160   4.246  14.622  0.00  0.00    +0.000 C 
ATOM     21  O   UNL     1      47.290   3.080  14.257  0.00  0.00    +0.000 OA
ATOM     22  H   UNL     1      47.215   5.558  16.226  0.00  0.00    +0.000 HD
BRANCH  20  23
ATOM     23  C   UNL     1      46.990   5.334  13.652  0.00  0.00    +0.000 A 
ATOM     24  C   UNL     1      45.937   5.282  12.748  0.00  0.00    +0.000 A 
ATOM     25  S   UNL     1      45.867   6.622  11.698  0.00  0.00    +0.000 S 
ATOM     26  C   UNL     1      47.269   7.299  12.383  0.00  0.00    +0.000 A 
ATOM     27  N   UNL     1      47.788   8.461  11.905  0.00  0.00    +0.000 NA
ATOM     28  C   UNL     1      48.868   8.848  12.498  0.00  0.00    +0.000 A 
ATOM     29  N   UNL     1      49.472   8.179  13.534  0.00  0.00    +0.000 N 
ATOM     30  C   UNL     1      48.964   7.022  14.072  0.00  0.00    +0.000 A 
ATOM     31  O   UNL     1      49.493   6.479  15.038  0.00  0.00    +0.000 OA
ATOM     32  C   UNL     1      47.764   6.528  13.422  0.00  0.00    +0.000 A 
ATOM     33  H   UNL     1      50.306   8.546  13.966  0.00  0.00    +0.000 HD
ENDBRANCH  20  23
ENDBRANCH  18  19
ENDBRANCH   4  18
TORSDOF 8
ENDMDL
