MODEL 1
REMARK VINA RESULT:    -8.543      0.000      0.000
REMARK INTER + INTRA:         -13.283
REMARK INTER:                 -12.538
REMARK INTRA:                  -0.745
REMARK UNBOUND:                -0.745
REMARK  Name = 
REMARK  10 active torsions:
REMARK  status: ('A' for Active; 'I' for Inactive)
REMARK    1  A    between atoms: C_1  and  C_2
REMARK    2  A    between atoms: C_2  and  N_3
REMARK    3  A    between atoms: C_2  and  C_21
REMARK    4  A    between atoms: N_3  and  C_4
REMARK    5  A    between atoms: C_4  and  C_5
REMARK    6  A    between atoms: C_9  and  C_10
REMARK    7  A    between atoms: C_10  and  N_11
REMARK    8  A    between atoms: N_11  and  C_12
REMARK    9  A    between atoms: N_11  and  C_13
REMARK   10  A    between atoms: C_13  and  C_14
REMARK                            x       y       z     vdW  Elec       q    Type
REMARK                         _______ _______ _______ _____ _____    ______ ____
ROOT
ATOM      1  C   UNL     1      47.282   4.134  15.102  0.00  0.00    +0.000 C 
ENDROOT
BRANCH   1   2
ATOM      2  C   UNL     1      46.975   4.960  13.867  0.00  0.00    +0.000 A 
ATOM      3  C   UNL     1      47.671   6.152  13.613  0.00  0.00    +0.000 A 
ATOM      4  C   UNL     1      47.366   6.933  12.499  0.00  0.00    +0.000 A 
ATOM      5  C   UNL     1      46.397   6.508  11.592  0.00  0.00    +0.000 A 
ATOM      6  C   UNL     1      45.732   5.290  11.782  0.00  0.00    +0.000 A 
ATOM      7  C   UNL     1      46.010   4.535  12.935  0.00  0.00    +0.000 A 
BRANCH   6   8
ATOM      8  C   UNL     1      44.805   4.760  10.704  0.00  0.00    +0.000 C 
BRANCH   8   9
ATOM      9  N   UNL     1      44.630   3.294  10.700  0.00  0.00    +0.000 NA
ATOM     10  C   UNL     1      43.549   2.902  11.614  0.00  0.00    +0.000 C 
BRANCH   9  11
ATOM     11  C   UNL     1      44.282   2.838   9.331  0.00  0.00    +0.000 C 
BRANCH  11  12
ATOM     12  C   UNL     1      45.470   2.498   8.446  0.00  0.00    +0.000 A 
ATOM     13  C   UNL     1      46.089   3.489   7.685  0.00  0.00    +0.000 A 
ATOM     14  C   UNL     1      47.191   3.149   6.906  0.00  0.00    +0.000 A 
ATOM     15  C   UNL     1      47.645   1.836   6.903  0.00  0.00    +0.000 A 
ATOM     16  C   UNL     1      46.968   0.909   7.677  0.00  0.00    +0.000 A 
ATOM     17  N   UNL     1      45.897   1.207   8.446  0.00  0.00    +0.000 NA
ENDBRANCH  11  12
ENDBRANCH   9  11
ENDBRANCH   8   9
ENDBRANCH   6   8
ENDBRANCH   1   2
BRANCH   1  18
ATOM     18  N   UNL     1      48.260   4.807  15.956  0.00  0.00    +0.000 NA
ATOM     19  H   UNL     1      49.192   4.521  15.664  0.00  0.00    +0.000 HD
BRANCH  18  21
ATOM     20  C   UNL     1      47.372   5.617  18.142  0.00  0.00    +0.000 C 
ATOM     21  C   UNL     1      48.128   4.515  17.389  0.00  0.00    +0.000 C 
BRANCH  21  22
ATOM     22  C   UNL     1      49.555   4.387  17.909  0.00  0.00    +0.000 A 
ATOM     23  C   UNL     1      50.189   5.384  18.639  0.00  0.00    +0.000 A 
ATOM     24  S   UNL     1      51.796   5.009  19.056  0.00  0.00    +0.000 S 
ATOM     25  C   UNL     1      51.712   3.505  18.266  0.00  0.00    +0.000 A 
ATOM     26  N   UNL     1      52.790   2.675  18.230  0.00  0.00    +0.000 NA
ATOM     27  C   UNL     1      52.585   1.569  17.596  0.00  0.00    +0.000 A 
ATOM     28  N   UNL     1      51.398   1.210  17.007  0.00  0.00    +0.000 N 
ATOM     29  C   UNL     1      50.271   2.007  17.034  0.00  0.00    +0.000 A 
ATOM     30  O   UNL     1      49.218   1.640  16.523  0.00  0.00    +0.000 OA
ATOM     31  C   UNL     1      50.462   3.276  17.715  0.00  0.00    +0.000 A 
ATOM     32  H   UNL     1      51.300   0.324  16.542  0.00  0.00    +0.000 HD
ENDBRANCH  21  22
ENDBRANCH  18  21
ENDBRANCH   1  18
TORSDOF 8
ENDMDL
MODEL 2
REMARK VINA RESULT:    -8.531      2.110      2.940
REMARK INTER + INTRA:         -13.266
REMARK INTER:                 -11.888
REMARK INTRA:                  -1.378
REMARK UNBOUND:                -0.745
REMARK  Name = 
REMARK  10 active torsions:
REMARK  status: ('A' for Active; 'I' for Inactive)
REMARK    1  A    between atoms: C_1  and  C_2
REMARK    2  A    between atoms: C_2  and  N_3
REMARK    3  A    between atoms: C_2  and  C_21
REMARK    4  A    between atoms: N_3  and  C_4
REMARK    5  A    between atoms: C_4  and  C_5
REMARK    6  A    between atoms: C_9  and  C_10
REMARK    7  A    between atoms: C_10  and  N_11
REMARK    8  A    between atoms: N_11  and  C_12
REMARK    9  A    between atoms: N_11  and  C_13
REMARK   10  A    between atoms: C_13  and  C_14
REMARK                            x       y       z     vdW  Elec       q    Type
REMARK                         _______ _______ _______ _____ _____    ______ ____
ROOT
ATOM      1  C   UNL     1      48.877   7.114  12.164  0.00  0.00    +0.000 C 
ENDROOT
BRANCH   1   2
ATOM      2  C   UNL     1      47.386   7.295  11.946  0.00  0.00    +0.000 A 
ATOM      3  C   UNL     1      46.789   8.557  12.095  0.00  0.00    +0.000 A 
ATOM      4  C   UNL     1      45.415   8.719  11.932  0.00  0.00    +0.000 A 
ATOM      5  C   UNL     1      44.622   7.634  11.566  0.00  0.00    +0.000 A 
ATOM      6  C   UNL     1      45.197   6.376  11.345  0.00  0.00    +0.000 A 
ATOM      7  C   UNL     1      46.576   6.211  11.561  0.00  0.00    +0.000 A 
BRANCH   6   8
ATOM      8  C   UNL     1      44.351   5.248  10.784  0.00  0.00    +0.000 C 
BRANCH   8   9
ATOM      9  N   UNL     1      44.970   3.910  10.864  0.00  0.00    +0.000 NA
ATOM     10  C   UNL     1      44.666   3.277  12.154  0.00  0.00    +0.000 C 
BRANCH   9  11
ATOM     11  C   UNL     1      44.436   3.050   9.777  0.00  0.00    +0.000 C 
BRANCH  11  12
ATOM     12  C   UNL     1      45.439   2.691   8.693  0.00  0.00    +0.000 A 
ATOM     13  C   UNL     1      45.861   3.653   7.775  0.00  0.00    +0.000 A 
ATOM     14  C   UNL     1      46.800   3.298   6.811  0.00  0.00    +0.000 A 
ATOM     15  C   UNL     1      47.291   1.998   6.784  0.00  0.00    +0.000 A 
ATOM     16  C   UNL     1      46.813   1.100   7.722  0.00  0.00    +0.000 A 
ATOM     17  N   UNL     1      45.903   1.414   8.672  0.00  0.00    +0.000 NA
ENDBRANCH  11  12
ENDBRANCH   9  11
ENDBRANCH   8   9
ENDBRANCH   6   8
ENDBRANCH   1   2
BRANCH   1  18
ATOM     18  N   UNL     1      49.150   6.522  13.474  0.00  0.00    +0.000 NA
ATOM     19  H   UNL     1      48.644   5.641  13.539  0.00  0.00    +0.000 HD
BRANCH  18  21
ATOM     20  C   UNL     1      49.527   8.677  14.672  0.00  0.00    +0.000 C 
ATOM     21  C   UNL     1      48.756   7.352  14.618  0.00  0.00    +0.000 C 
BRANCH  21  22
ATOM     22  C   UNL     1      49.047   6.507  15.852  0.00  0.00    +0.000 A 
ATOM     23  C   UNL     1      50.043   6.819  16.768  0.00  0.00    +0.000 A 
ATOM     24  S   UNL     1      50.194   5.685  18.028  0.00  0.00    +0.000 S 
ATOM     25  C   UNL     1      48.942   4.725  17.392  0.00  0.00    +0.000 A 
ATOM     26  N   UNL     1      48.575   3.564  18.000  0.00  0.00    +0.000 NA
ATOM     27  C   UNL     1      47.615   2.938  17.409  0.00  0.00    +0.000 A 
ATOM     28  N   UNL     1      46.977   3.370  16.273  0.00  0.00    +0.000 N 
ATOM     29  C   UNL     1      47.298   4.550  15.631  0.00  0.00    +0.000 A 
ATOM     30  O   UNL     1      46.685   4.919  14.635  0.00  0.00    +0.000 OA
ATOM     31  C   UNL     1      48.393   5.278  16.246  0.00  0.00    +0.000 A 
ATOM     32  H   UNL     1      46.222   2.841  15.871  0.00  0.00    +0.000 HD
ENDBRANCH  21  22
ENDBRANCH  18  21
ENDBRANCH   1  18
TORSDOF 8
ENDMDL
MODEL 3
REMARK VINA RESULT:    -8.471      0.913      1.142
REMARK INTER + INTRA:         -13.178
REMARK INTER:                 -12.167
REMARK INTRA:                  -1.011
REMARK UNBOUND:                -0.745
REMARK  Name = 
REMARK  10 active torsions:
REMARK  status: ('A' for Active; 'I' for Inactive)
REMARK    1  A    between atoms: C_1  and  C_2
REMARK    2  A    between atoms: C_2  and  N_3
REMARK    3  A    between atoms: C_2  and  C_21
REMARK    4  A    between atoms: N_3  and  C_4
REMARK    5  A    between atoms: C_4  and  C_5
REMARK    6  A    between atoms: C_9  and  C_10
REMARK    7  A    between atoms: C_10  and  N_11
REMARK    8  A    between atoms: N_11  and  C_12
REMARK    9  A    between atoms: N_11  and  C_13
REMARK   10  A    between atoms: C_13  and  C_14
REMARK                            x       y       z     vdW  Elec       q    Type
REMARK                         _______ _______ _______ _____ _____    ______ ____
ROOT
ATOM      1  C   UNL     1      47.494   4.768  15.241  0.00  0.00    +0.000 C 
ENDROOT
BRANCH   1   2
ATOM      2  C   UNL     1      47.248   5.504  13.937  0.00  0.00    +0.000 A 
ATOM      3  C   UNL     1      48.229   6.352  13.398  0.00  0.00    +0.000 A 
ATOM      4  C   UNL     1      47.992   7.058  12.220  0.00  0.00    +0.000 A 
ATOM      5  C   UNL     1      46.792   6.888  11.533  0.00  0.00    +0.000 A 
ATOM      6  C   UNL     1      45.821   5.998  12.009  0.00  0.00    +0.000 A 
ATOM      7  C   UNL     1      46.048   5.330  13.225  0.00  0.00    +0.000 A 
BRANCH   6   8
ATOM      8  C   UNL     1      44.596   5.697  11.166  0.00  0.00    +0.000 C 
BRANCH   8   9
ATOM      9  N   UNL     1      44.434   4.278  10.790  0.00  0.00    +0.000 NA
ATOM     10  C   UNL     1      43.293   3.683  11.498  0.00  0.00    +0.000 C 
BRANCH   9  11
ATOM     11  C   UNL     1      44.191   4.175   9.329  0.00  0.00    +0.000 C 
BRANCH  11  12
ATOM     12  C   UNL     1      45.258   3.420   8.553  0.00  0.00    +0.000 A 
ATOM     13  C   UNL     1      45.447   2.054   8.759  0.00  0.00    +0.000 A 
ATOM     14  C   UNL     1      46.414   1.387   8.014  0.00  0.00    +0.000 A 
ATOM     15  C   UNL     1      47.169   2.097   7.087  0.00  0.00    +0.000 A 
ATOM     16  C   UNL     1      46.928   3.452   6.950  0.00  0.00    +0.000 A 
ATOM     17  N   UNL     1      45.995   4.128   7.657  0.00  0.00    +0.000 NA
ENDBRANCH  11  12
ENDBRANCH   9  11
ENDBRANCH   8   9
ENDBRANCH   6   8
ENDBRANCH   1   2
BRANCH   1  18
ATOM     18  N   UNL     1      48.666   5.303  15.934  0.00  0.00    +0.000 NA
ATOM     19  H   UNL     1      49.485   4.777  15.634  0.00  0.00    +0.000 HD
BRANCH  18  21
ATOM     20  C   UNL     1      48.231   6.579  18.033  0.00  0.00    +0.000 C 
ATOM     21  C   UNL     1      48.599   5.232  17.399  0.00  0.00    +0.000 C 
BRANCH  21  22
ATOM     22  C   UNL     1      49.986   4.785  17.846  0.00  0.00    +0.000 A 
ATOM     23  C   UNL     1      50.880   5.623  18.499  0.00  0.00    +0.000 A 
ATOM     24  S   UNL     1      52.377   4.891  18.844  0.00  0.00    +0.000 S 
ATOM     25  C   UNL     1      51.894   3.428  18.124  0.00  0.00    +0.000 A 
ATOM     26  N   UNL     1      52.743   2.366  18.065  0.00  0.00    +0.000 NA
ATOM     27  C   UNL     1      52.246   1.323  17.490  0.00  0.00    +0.000 A 
ATOM     28  N   UNL     1      50.974   1.238  16.981  0.00  0.00    +0.000 N 
ATOM     29  C   UNL     1      50.069   2.279  17.035  0.00  0.00    +0.000 A 
ATOM     30  O   UNL     1      48.930   2.157  16.597  0.00  0.00    +0.000 OA
ATOM     31  C   UNL     1      50.594   3.486  17.651  0.00  0.00    +0.000 A 
ATOM     32  H   UNL     1      50.642   0.387  16.560  0.00  0.00    +0.000 HD
ENDBRANCH  21  22
ENDBRANCH  18  21
ENDBRANCH   1  18
TORSDOF 8
ENDMDL
MODEL 4
REMARK VINA RESULT:    -7.780      2.348      3.460
REMARK INTER + INTRA:         -12.163
REMARK INTER:                 -11.197
REMARK INTRA:                  -0.967
REMARK UNBOUND:                -0.745
REMARK  Name = 
REMARK  10 active torsions:
REMARK  status: ('A' for Active; 'I' for Inactive)
REMARK    1  A    between atoms: C_1  and  C_2
REMARK    2  A    between atoms: C_2  and  N_3
REMARK    3  A    between atoms: C_2  and  C_21
REMARK    4  A    between atoms: N_3  and  C_4
REMARK    5  A    between atoms: C_4  and  C_5
REMARK    6  A    between atoms: C_9  and  C_10
REMARK    7  A    between atoms: C_10  and  N_11
REMARK    8  A    between atoms: N_11  and  C_12
REMARK    9  A    between atoms: N_11  and  C_13
REMARK   10  A    between atoms: C_13  and  C_14
REMARK                            x       y       z     vdW  Elec       q    Type
REMARK                         _______ _______ _______ _____ _____    ______ ____
ROOT
ATOM      1  C   UNL     1      47.029   4.211  15.297  0.00  0.00    +0.000 C 
ENDROOT
BRANCH   1   2
ATOM      2  C   UNL     1      46.923   5.050  14.037  0.00  0.00    +0.000 A 
ATOM      3  C   UNL     1      47.895   6.019  13.739  0.00  0.00    +0.000 A 
ATOM      4  C   UNL     1      47.781   6.816  12.602  0.00  0.00    +0.000 A 
ATOM      5  C   UNL     1      46.723   6.624  11.716  0.00  0.00    +0.000 A 
ATOM      6  C   UNL     1      45.774   5.621  11.951  0.00  0.00    +0.000 A 
ATOM      7  C   UNL     1      45.869   4.856  13.127  0.00  0.00    +0.000 A 
BRANCH   6   8
ATOM      8  C   UNL     1      44.727   5.311  10.897  0.00  0.00    +0.000 C 
BRANCH   8   9
ATOM      9  N   UNL     1      44.711   3.910  10.431  0.00  0.00    +0.000 NA
ATOM     10  C   UNL     1      43.607   3.171  11.059  0.00  0.00    +0.000 C 
BRANCH   9  11
ATOM     11  C   UNL     1      44.525   3.877   8.958  0.00  0.00    +0.000 C 
BRANCH  11  12
ATOM     12  C   UNL     1      45.537   3.032   8.203  0.00  0.00    +0.000 A 
ATOM     13  C   UNL     1      46.317   3.599   7.195  0.00  0.00    +0.000 A 
ATOM     14  C   UNL     1      47.253   2.804   6.540  0.00  0.00    +0.000 A 
ATOM     15  C   UNL     1      47.387   1.469   6.904  0.00  0.00    +0.000 A 
ATOM     16  C   UNL     1      46.568   0.980   7.907  0.00  0.00    +0.000 A 
ATOM     17  N   UNL     1      45.651   1.726   8.563  0.00  0.00    +0.000 NA
ENDBRANCH  11  12
ENDBRANCH   9  11
ENDBRANCH   8   9
ENDBRANCH   6   8
ENDBRANCH   1   2
BRANCH   1  18
ATOM     18  N   UNL     1      47.441   5.027  16.440  0.00  0.00    +0.000 NA
ATOM     19  H   UNL     1      47.548   5.989  16.125  0.00  0.00    +0.000 HD
BRANCH  18  21
ATOM     20  C   UNL     1      48.886   3.092  17.066  0.00  0.00    +0.000 C 
ATOM     21  C   UNL     1      48.704   4.615  17.065  0.00  0.00    +0.000 C 
BRANCH  21  22
ATOM     22  C   UNL     1      48.644   5.153  18.489  0.00  0.00    +0.000 A 
ATOM     23  C   UNL     1      48.651   4.334  19.611  0.00  0.00    +0.000 A 
ATOM     24  S   UNL     1      48.527   5.185  21.080  0.00  0.00    +0.000 S 
ATOM     25  C   UNL     1      48.446   6.681  20.274  0.00  0.00    +0.000 A 
ATOM     26  N   UNL     1      48.308   7.842  20.971  0.00  0.00    +0.000 NA
ATOM     27  C   UNL     1      48.259   8.899  20.233  0.00  0.00    +0.000 A 
ATOM     28  N   UNL     1      48.347   8.905  18.863  0.00  0.00    +0.000 N 
ATOM     29  C   UNL     1      48.508   7.757  18.113  0.00  0.00    +0.000 A 
ATOM     30  O   UNL     1      48.614   7.804  16.891  0.00  0.00    +0.000 OA
ATOM     31  C   UNL     1      48.543   6.537  18.900  0.00  0.00    +0.000 A 
ATOM     32  H   UNL     1      48.318   9.768  18.347  0.00  0.00    +0.000 HD
ENDBRANCH  21  22
ENDBRANCH  18  21
ENDBRANCH   1  18
TORSDOF 8
ENDMDL
MODEL 5
REMARK VINA RESULT:    -7.667      2.154      2.625
REMARK INTER + INTRA:         -11.998
REMARK INTER:                 -10.821
REMARK INTRA:                  -1.177
REMARK UNBOUND:                -0.745
REMARK  Name = 
REMARK  10 active torsions:
REMARK  status: ('A' for Active; 'I' for Inactive)
REMARK    1  A    between atoms: C_1  and  C_2
REMARK    2  A    between atoms: C_2  and  N_3
REMARK    3  A    between atoms: C_2  and  C_21
REMARK    4  A    between atoms: N_3  and  C_4
REMARK    5  A    between atoms: C_4  and  C_5
REMARK    6  A    between atoms: C_9  and  C_10
REMARK    7  A    between atoms: C_10  and  N_11
REMARK    8  A    between atoms: N_11  and  C_12
REMARK    9  A    between atoms: N_11  and  C_13
REMARK   10  A    between atoms: C_13  and  C_14
REMARK                            x       y       z     vdW  Elec       q    Type
REMARK                         _______ _______ _______ _____ _____    ______ ____
ROOT
ATOM      1  C   UNL     1      48.232   5.917  15.094  0.00  0.00    +0.000 C 
ENDROOT
BRANCH   1   2
ATOM      2  C   UNL     1      47.563   6.108  13.745  0.00  0.00    +0.000 A 
ATOM      3  C   UNL     1      48.233   6.761  12.699  0.00  0.00    +0.000 A 
ATOM      4  C   UNL     1      47.608   6.970  11.472  0.00  0.00    +0.000 A 
ATOM      5  C   UNL     1      46.322   6.483  11.251  0.00  0.00    +0.000 A 
ATOM      6  C   UNL     1      45.651   5.769  12.252  0.00  0.00    +0.000 A 
ATOM      7  C   UNL     1      46.270   5.608  13.504  0.00  0.00    +0.000 A 
BRANCH   6   8
ATOM      8  C   UNL     1      44.324   5.101  11.942  0.00  0.00    +0.000 C 
BRANCH   8   9
ATOM      9  N   UNL     1      44.430   3.733  11.397  0.00  0.00    +0.000 NA
ATOM     10  C   UNL     1      43.572   2.810  12.150  0.00  0.00    +0.000 C 
BRANCH   9  11
ATOM     11  C   UNL     1      43.997   3.729   9.976  0.00  0.00    +0.000 C 
BRANCH  11  12
ATOM     12  C   UNL     1      45.040   3.230   8.989  0.00  0.00    +0.000 A 
ATOM     13  C   UNL     1      45.701   4.126   8.149  0.00  0.00    +0.000 A 
ATOM     14  C   UNL     1      46.670   3.640   7.275  0.00  0.00    +0.000 A 
ATOM     15  C   UNL     1      46.952   2.280   7.260  0.00  0.00    +0.000 A 
ATOM     16  C   UNL     1      46.244   1.456   8.117  0.00  0.00    +0.000 A 
ATOM     17  N   UNL     1      45.300   1.896   8.978  0.00  0.00    +0.000 NA
ENDBRANCH  11  12
ENDBRANCH   9  11
ENDBRANCH   8   9
ENDBRANCH   6   8
ENDBRANCH   1   2
BRANCH   1  18
ATOM     18  N   UNL     1      47.376   5.157  16.004  0.00  0.00    +0.000 NA
ATOM     19  H   UNL     1      46.801   5.813  16.528  0.00  0.00    +0.000 HD
BRANCH  18  21
ATOM     20  C   UNL     1      47.281   3.096  17.406  0.00  0.00    +0.000 C 
ATOM     21  C   UNL     1      48.097   4.319  16.970  0.00  0.00    +0.000 C 
BRANCH  21  22
ATOM     22  C   UNL     1      48.385   5.228  18.158  0.00  0.00    +0.000 A 
ATOM     23  C   UNL     1      47.401   5.669  19.033  0.00  0.00    +0.000 A 
ATOM     24  S   UNL     1      47.982   6.714  20.245  0.00  0.00    +0.000 S 
ATOM     25  C   UNL     1      49.569   6.628  19.641  0.00  0.00    +0.000 A 
ATOM     26  N   UNL     1      50.577   7.329  20.227  0.00  0.00    +0.000 NA
ATOM     27  C   UNL     1      51.728   7.172  19.664  0.00  0.00    +0.000 A 
ATOM     28  N   UNL     1      51.967   6.369  18.577  0.00  0.00    +0.000 N 
ATOM     29  C   UNL     1      50.983   5.623  17.960  0.00  0.00    +0.000 A 
ATOM     30  O   UNL     1      51.240   4.892  17.008  0.00  0.00    +0.000 OA
ATOM     31  C   UNL     1      49.663   5.788  18.544  0.00  0.00    +0.000 A 
ATOM     32  H   UNL     1      52.893   6.277  18.196  0.00  0.00    +0.000 HD
ENDBRANCH  21  22
ENDBRANCH  18  21
ENDBRANCH   1  18
TORSDOF 8
ENDMDL
MODEL 6
REMARK VINA RESULT:    -7.506      1.804      2.141
REMARK INTER + INTRA:         -11.761
REMARK INTER:                 -10.852
REMARK INTRA:                  -0.909
REMARK UNBOUND:                -0.745
REMARK  Name = 
REMARK  10 active torsions:
REMARK  status: ('A' for Active; 'I' for Inactive)
REMARK    1  A    between atoms: C_1  and  C_2
REMARK    2  A    between atoms: C_2  and  N_3
REMARK    3  A    between atoms: C_2  and  C_21
REMARK    4  A    between atoms: N_3  and  C_4
REMARK    5  A    between atoms: C_4  and  C_5
REMARK    6  A    between atoms: C_9  and  C_10
REMARK    7  A    between atoms: C_10  and  N_11
REMARK    8  A    between atoms: N_11  and  C_12
REMARK    9  A    between atoms: N_11  and  C_13
REMARK   10  A    between atoms: C_13  and  C_14
REMARK                            x       y       z     vdW  Elec       q    Type
REMARK                         _______ _______ _______ _____ _____    ______ ____
ROOT
ATOM      1  C   UNL     1      47.333   4.760  15.151  0.00  0.00    +0.000 C 
ENDROOT
BRANCH   1   2
ATOM      2  C   UNL     1      47.018   5.345  13.786  0.00  0.00    +0.000 A 
ATOM      3  C   UNL     1      47.865   6.302  13.205  0.00  0.00    +0.000 A 
ATOM      4  C   UNL     1      47.559   6.868  11.969  0.00  0.00    +0.000 A 
ATOM      5  C   UNL     1      46.429   6.450  11.269  0.00  0.00    +0.000 A 
ATOM      6  C   UNL     1      45.600   5.449  11.792  0.00  0.00    +0.000 A 
ATOM      7  C   UNL     1      45.889   4.920  13.062  0.00  0.00    +0.000 A 
BRANCH   6   8
ATOM      8  C   UNL     1      44.473   4.885  10.946  0.00  0.00    +0.000 C 
BRANCH   8   9
ATOM      9  N   UNL     1      44.491   3.418  10.786  0.00  0.00    +0.000 NA
ATOM     10  C   UNL     1      43.495   2.791  11.665  0.00  0.00    +0.000 C 
BRANCH   9  11
ATOM     11  C   UNL     1      44.170   3.067   9.380  0.00  0.00    +0.000 C 
BRANCH  11  12
ATOM     12  C   UNL     1      45.376   2.862   8.478  0.00  0.00    +0.000 A 
ATOM     13  C   UNL     1      45.945   1.596   8.338  0.00  0.00    +0.000 A 
ATOM     14  C   UNL     1      47.033   1.437   7.484  0.00  0.00    +0.000 A 
ATOM     15  C   UNL     1      47.525   2.540   6.796  0.00  0.00    +0.000 A 
ATOM     16  C   UNL     1      46.911   3.763   6.998  0.00  0.00    +0.000 A 
ATOM     17  N   UNL     1      45.852   3.950   7.818  0.00  0.00    +0.000 NA
ENDBRANCH  11  12
ENDBRANCH   9  11
ENDBRANCH   8   9
ENDBRANCH   6   8
ENDBRANCH   1   2
BRANCH   1  18
ATOM     18  N   UNL     1      47.819   5.792  16.066  0.00  0.00    +0.000 NA
ATOM     19  H   UNL     1      48.295   6.507  15.521  0.00  0.00    +0.000 HD
BRANCH  18  21
ATOM     20  C   UNL     1      48.300   5.677  18.512  0.00  0.00    +0.000 C 
ATOM     21  C   UNL     1      48.753   5.313  17.092  0.00  0.00    +0.000 C 
BRANCH  21  22
ATOM     22  C   UNL     1      50.087   5.972  16.765  0.00  0.00    +0.000 A 
ATOM     23  C   UNL     1      50.191   7.175  16.079  0.00  0.00    +0.000 A 
ATOM     24  S   UNL     1      51.797   7.668  15.800  0.00  0.00    +0.000 S 
ATOM     25  C   UNL     1      52.416   6.286  16.574  0.00  0.00    +0.000 A 
ATOM     26  N   UNL     1      53.759   6.080  16.663  0.00  0.00    +0.000 NA
ATOM     27  C   UNL     1      54.087   4.992  17.274  0.00  0.00    +0.000 A 
ATOM     28  N   UNL     1      53.198   4.096  17.816  0.00  0.00    +0.000 N 
ATOM     29  C   UNL     1      51.830   4.271  17.770  0.00  0.00    +0.000 A 
ATOM     30  O   UNL     1      51.067   3.464  18.292  0.00  0.00    +0.000 OA
ATOM     31  C   UNL     1      51.411   5.471  17.067  0.00  0.00    +0.000 A 
ATOM     32  H   UNL     1      53.522   3.273  18.295  0.00  0.00    +0.000 HD
ENDBRANCH  21  22
ENDBRANCH  18  21
ENDBRANCH   1  18
TORSDOF 8
ENDMDL
MODEL 7
REMARK VINA RESULT:    -7.391      2.582      3.518
REMARK INTER + INTRA:         -11.592
REMARK INTER:                 -10.382
REMARK INTRA:                  -1.210
REMARK UNBOUND:                -0.745
REMARK  Name = 
REMARK  10 active torsions:
REMARK  status: ('A' for Active; 'I' for Inactive)
REMARK    1  A    between atoms: C_1  and  C_2
REMARK    2  A    between atoms: C_2  and  N_3
REMARK    3  A    between atoms: C_2  and  C_21
REMARK    4  A    between atoms: N_3  and  C_4
REMARK    5  A    between atoms: C_4  and  C_5
REMARK    6  A    between atoms: C_9  and  C_10
REMARK    7  A    between atoms: C_10  and  N_11
REMARK    8  A    between atoms: N_11  and  C_12
REMARK    9  A    between atoms: N_11  and  C_13
REMARK   10  A    between atoms: C_13  and  C_14
REMARK                            x       y       z     vdW  Elec       q    Type
REMARK                         _______ _______ _______ _____ _____    ______ ____
ROOT
ATOM      1  C   UNL     1      48.275   7.768  14.198  0.00  0.00    +0.000 C 
ENDROOT
BRANCH   1   2
ATOM      2  C   UNL     1      47.514   6.550  13.705  0.00  0.00    +0.000 A 
ATOM      3  C   UNL     1      47.390   5.409  14.514  0.00  0.00    +0.000 A 
ATOM      4  C   UNL     1      46.724   4.276  14.050  0.00  0.00    +0.000 A 
ATOM      5  C   UNL     1      46.126   4.283  12.792  0.00  0.00    +0.000 A 
ATOM      6  C   UNL     1      46.176   5.429  11.988  0.00  0.00    +0.000 A 
ATOM      7  C   UNL     1      46.893   6.549  12.443  0.00  0.00    +0.000 A 
BRANCH   6   8
ATOM      8  C   UNL     1      45.380   5.480  10.697  0.00  0.00    +0.000 C 
BRANCH   8   9
ATOM      9  N   UNL     1      44.585   4.270  10.409  0.00  0.00    +0.000 NA
ATOM     10  C   UNL     1      43.249   4.376  11.011  0.00  0.00    +0.000 C 
BRANCH   9  11
ATOM     11  C   UNL     1      44.432   4.113   8.940  0.00  0.00    +0.000 C 
BRANCH  11  12
ATOM     12  C   UNL     1      45.465   3.215   8.280  0.00  0.00    +0.000 A 
ATOM     13  C   UNL     1      46.375   3.742   7.364  0.00  0.00    +0.000 A 
ATOM     14  C   UNL     1      47.326   2.898   6.797  0.00  0.00    +0.000 A 
ATOM     15  C   UNL     1      47.344   1.555   7.155  0.00  0.00    +0.000 A 
ATOM     16  C   UNL     1      46.400   1.108   8.063  0.00  0.00    +0.000 A 
ATOM     17  N   UNL     1      45.466   1.902   8.632  0.00  0.00    +0.000 NA
ENDBRANCH  11  12
ENDBRANCH   9  11
ENDBRANCH   8   9
ENDBRANCH   6   8
ENDBRANCH   1   2
BRANCH   1  18
ATOM     18  N   UNL     1      48.312   7.809  15.660  0.00  0.00    +0.000 NA
ATOM     19  H   UNL     1      47.841   8.656  15.969  0.00  0.00    +0.000 HD
BRANCH  18  21
ATOM     20  C   UNL     1      50.752   7.603  15.182  0.00  0.00    +0.000 C 
ATOM     21  C   UNL     1      49.661   7.808  16.240  0.00  0.00    +0.000 C 
BRANCH  21  22
ATOM     22  C   UNL     1      49.666   6.667  17.250  0.00  0.00    +0.000 A 
ATOM     23  C   UNL     1      50.407   5.505  17.077  0.00  0.00    +0.000 A 
ATOM     24  S   UNL     1      50.197   4.368  18.328  0.00  0.00    +0.000 S 
ATOM     25  C   UNL     1      49.099   5.380  19.142  0.00  0.00    +0.000 A 
ATOM     26  N   UNL     1      48.515   4.982  20.305  0.00  0.00    +0.000 NA
ATOM     27  C   UNL     1      47.703   5.847  20.812  0.00  0.00    +0.000 A 
ATOM     28  N   UNL     1      47.430   7.079  20.272  0.00  0.00    +0.000 N 
ATOM     29  C   UNL     1      48.012   7.537  19.106  0.00  0.00    +0.000 A 
ATOM     30  O   UNL     1      47.768   8.657  18.670  0.00  0.00    +0.000 OA
ATOM     31  C   UNL     1      48.916   6.585  18.484  0.00  0.00    +0.000 A 
ATOM     32  H   UNL     1      46.798   7.715  20.728  0.00  0.00    +0.000 HD
ENDBRANCH  21  22
ENDBRANCH  18  21
ENDBRANCH   1  18
TORSDOF 8
ENDMDL
MODEL 8
REMARK VINA RESULT:    -7.311      3.381      8.863
REMARK INTER + INTRA:         -11.476
REMARK INTER:                 -10.021
REMARK INTRA:                  -1.455
REMARK UNBOUND:                -0.745
REMARK  Name = 
REMARK  10 active torsions:
REMARK  status: ('A' for Active; 'I' for Inactive)
REMARK    1  A    between atoms: C_1  and  C_2
REMARK    2  A    between atoms: C_2  and  N_3
REMARK    3  A    between atoms: C_2  and  C_21
REMARK    4  A    between atoms: N_3  and  C_4
REMARK    5  A    between atoms: C_4  and  C_5
REMARK    6  A    between atoms: C_9  and  C_10
REMARK    7  A    between atoms: C_10  and  N_11
REMARK    8  A    between atoms: N_11  and  C_12
REMARK    9  A    between atoms: N_11  and  C_13
REMARK   10  A    between atoms: C_13  and  C_14
REMARK                            x       y       z     vdW  Elec       q    Type
REMARK                         _______ _______ _______ _____ _____    ______ ____
ROOT
ATOM      1  C   UNL     1      47.268   6.211  12.663  0.00  0.00    +0.000 C 
ENDROOT
BRANCH   1   2
ATOM      2  C   UNL     1      48.548   6.970  12.961  0.00  0.00    +0.000 A 
ATOM      3  C   UNL     1      49.110   7.830  12.005  0.00  0.00    +0.000 A 
ATOM      4  C   UNL     1      50.304   8.500  12.262  0.00  0.00    +0.000 A 
ATOM      5  C   UNL     1      50.931   8.362  13.498  0.00  0.00    +0.000 A 
ATOM      6  C   UNL     1      50.361   7.563  14.498  0.00  0.00    +0.000 A 
ATOM      7  C   UNL     1      49.183   6.852  14.211  0.00  0.00    +0.000 A 
BRANCH   6   8
ATOM      8  C   UNL     1      50.961   7.556  15.892  0.00  0.00    +0.000 C 
BRANCH   8   9
ATOM      9  N   UNL     1      51.366   6.226  16.386  0.00  0.00    +0.000 NA
ATOM     10  C   UNL     1      52.810   6.192  16.655  0.00  0.00    +0.000 C 
BRANCH   9  11
ATOM     11  C   UNL     1      50.643   5.922  17.648  0.00  0.00    +0.000 C 
BRANCH  11  12
ATOM     12  C   UNL     1      49.516   4.912  17.513  0.00  0.00    +0.000 A 
ATOM     13  C   UNL     1      49.800   3.557  17.340  0.00  0.00    +0.000 A 
ATOM     14  C   UNL     1      48.745   2.654  17.246  0.00  0.00    +0.000 A 
ATOM     15  C   UNL     1      47.439   3.123  17.326  0.00  0.00    +0.000 A 
ATOM     16  C   UNL     1      47.241   4.483  17.488  0.00  0.00    +0.000 A 
ATOM     17  N   UNL     1      48.244   5.384  17.584  0.00  0.00    +0.000 NA
ENDBRANCH  11  12
ENDBRANCH   9  11
ENDBRANCH   8   9
ENDBRANCH   6   8
ENDBRANCH   1   2
BRANCH   1  18
ATOM     18  N   UNL     1      46.798   6.485  11.305  0.00  0.00    +0.000 NA
ATOM     19  H   UNL     1      47.286   7.308  10.956  0.00  0.00    +0.000 HD
BRANCH  18  21
ATOM     20  C   UNL     1      44.817   7.571  12.362  0.00  0.00    +0.000 C 
ATOM     21  C   UNL     1      45.356   6.737  11.193  0.00  0.00    +0.000 C 
BRANCH  21  22
ATOM     22  C   UNL     1      44.705   5.360  11.166  0.00  0.00    +0.000 A 
ATOM     23  C   UNL     1      43.893   4.884  12.187  0.00  0.00    +0.000 A 
ATOM     24  S   UNL     1      43.333   3.297  11.932  0.00  0.00    +0.000 S 
ATOM     25  C   UNL     1      44.165   3.179  10.453  0.00  0.00    +0.000 A 
ATOM     26  N   UNL     1      44.118   2.035   9.717  0.00  0.00    +0.000 NA
ATOM     27  C   UNL     1      44.796   2.085   8.620  0.00  0.00    +0.000 A 
ATOM     28  N   UNL     1      45.505   3.177   8.183  0.00  0.00    +0.000 N 
ATOM     29  C   UNL     1      45.567   4.365   8.884  0.00  0.00    +0.000 A 
ATOM     30  O   UNL     1      46.186   5.330   8.447  0.00  0.00    +0.000 OA
ATOM     31  C   UNL     1      44.839   4.347  10.141  0.00  0.00    +0.000 A 
ATOM     32  H   UNL     1      46.000   3.155   7.308  0.00  0.00    +0.000 HD
ENDBRANCH  21  22
ENDBRANCH  18  21
ENDBRANCH   1  18
TORSDOF 8
ENDMDL
MODEL 9
REMARK VINA RESULT:    -7.010      3.310      4.146
REMARK INTER + INTRA:         -11.033
REMARK INTER:                  -9.802
REMARK INTRA:                  -1.232
REMARK UNBOUND:                -0.745
REMARK  Name = 
REMARK  10 active torsions:
REMARK  status: ('A' for Active; 'I' for Inactive)
REMARK    1  A    between atoms: C_1  and  C_2
REMARK    2  A    between atoms: C_2  and  N_3
REMARK    3  A    between atoms: C_2  and  C_21
REMARK    4  A    between atoms: N_3  and  C_4
REMARK    5  A    between atoms: C_4  and  C_5
REMARK    6  A    between atoms: C_9  and  C_10
REMARK    7  A    between atoms: C_10  and  N_11
REMARK    8  A    between atoms: N_11  and  C_12
REMARK    9  A    between atoms: N_11  and  C_13
REMARK   10  A    between atoms: C_13  and  C_14
REMARK                            x       y       z     vdW  Elec       q    Type
REMARK                         _______ _______ _______ _____ _____    ______ ____
ROOT
ATOM      1  C   UNL     1      49.030   7.487  11.714  0.00  0.00    +0.000 C 
ENDROOT
BRANCH   1   2
ATOM      2  C   UNL     1      47.518   7.583  11.789  0.00  0.00    +0.000 A 
ATOM      3  C   UNL     1      46.894   8.788  12.150  0.00  0.00    +0.000 A 
ATOM      4  C   UNL     1      45.507   8.869  12.257  0.00  0.00    +0.000 A 
ATOM      5  C   UNL     1      44.717   7.763  11.953  0.00  0.00    +0.000 A 
ATOM      6  C   UNL     1      45.305   6.565  11.526  0.00  0.00    +0.000 A 
ATOM      7  C   UNL     1      46.707   6.478  11.471  0.00  0.00    +0.000 A 
BRANCH   6   8
ATOM      8  C   UNL     1      44.429   5.426  11.038  0.00  0.00    +0.000 C 
BRANCH   8   9
ATOM      9  N   UNL     1      45.091   4.108  10.997  0.00  0.00    +0.000 NA
ATOM     10  C   UNL     1      44.956   3.421  12.288  0.00  0.00    +0.000 C 
BRANCH   9  11
ATOM     11  C   UNL     1      44.462   3.268   9.946  0.00  0.00    +0.000 C 
BRANCH  11  12
ATOM     12  C   UNL     1      45.385   2.867   8.807  0.00  0.00    +0.000 A 
ATOM     13  C   UNL     1      45.805   3.814   7.873  0.00  0.00    +0.000 A 
ATOM     14  C   UNL     1      46.670   3.421   6.857  0.00  0.00    +0.000 A 
ATOM     15  C   UNL     1      47.093   2.098   6.796  0.00  0.00    +0.000 A 
ATOM     16  C   UNL     1      46.623   1.218   7.754  0.00  0.00    +0.000 A 
ATOM     17  N   UNL     1      45.783   1.569   8.754  0.00  0.00    +0.000 NA
ENDBRANCH  11  12
ENDBRANCH   9  11
ENDBRANCH   8   9
ENDBRANCH   6   8
ENDBRANCH   1   2
BRANCH   1  18
ATOM     18  N   UNL     1      49.610   7.258  13.037  0.00  0.00    +0.000 NA
ATOM     19  H   UNL     1      48.850   7.153  13.707  0.00  0.00    +0.000 HD
BRANCH  18  21
ATOM     20  C   UNL     1      51.745   8.490  12.654  0.00  0.00    +0.000 C 
ATOM     21  C   UNL     1      50.487   8.333  13.518  0.00  0.00    +0.000 C 
BRANCH  21  22
ATOM     22  C   UNL     1      50.857   7.946  14.945  0.00  0.00    +0.000 A 
ATOM     23  C   UNL     1      52.118   7.492  15.305  0.00  0.00    +0.000 A 
ATOM     24  S   UNL     1      52.252   7.081  16.952  0.00  0.00    +0.000 S 
ATOM     25  C   UNL     1      50.626   7.483  17.244  0.00  0.00    +0.000 A 
ATOM     26  N   UNL     1      50.084   7.336  18.484  0.00  0.00    +0.000 NA
ATOM     27  C   UNL     1      48.841   7.677  18.562  0.00  0.00    +0.000 A 
ATOM     28  N   UNL     1      48.094   8.163  17.518  0.00  0.00    +0.000 N 
ATOM     29  C   UNL     1      48.603   8.348  16.248  0.00  0.00    +0.000 A 
ATOM     30  O   UNL     1      47.913   8.814  15.347  0.00  0.00    +0.000 OA
ATOM     31  C   UNL     1      49.993   7.953  16.106  0.00  0.00    +0.000 A 
ATOM     32  H   UNL     1      47.132   8.426  17.650  0.00  0.00    +0.000 HD
ENDBRANCH  21  22
ENDBRANCH  18  21
ENDBRANCH   1  18
TORSDOF 8
ENDMDL
