MODEL 1
REMARK VINA RESULT:    -7.859      0.000      0.000
REMARK INTER + INTRA:         -11.265
REMARK INTER:                 -10.385
REMARK INTRA:                  -0.880
REMARK UNBOUND:                -0.880
REMARK  Name = 
REMARK  7 active torsions:
REMARK  status: ('A' for Active; 'I' for Inactive)
REMARK    1  A    between atoms: C_1  and  C_2
REMARK    2  A    between atoms: C_2  and  C_3
REMARK    3  A    between atoms: C_2  and  N_16
REMARK    4  A    between atoms: C_3  and  C_4
REMARK    5  A    between atoms: C_8  and  C_9
REMARK    6  A    between atoms: C_19  and  C_20
REMARK    7  A    between atoms: C_20  and  O_22
REMARK                            x       y       z     vdW  Elec       q    Type
REMARK                         _______ _______ _______ _____ _____    ______ ____
ROOT
ATOM      1  C   UNL     1      45.565   5.058  11.762  0.00  0.00    +0.000 C 
ENDROOT
BRANCH   1   2
ATOM      2  C   UNL     1      46.021   6.479  12.010  0.00  0.00    +0.000 A 
ATOM      3  C   UNL     1      45.182   7.386  12.663  0.00  0.00    +0.000 A 
ATOM      4  C   UNL     1      45.610   8.689  12.902  0.00  0.00    +0.000 A 
ATOM      5  C   UNL     1      46.889   9.090  12.508  0.00  0.00    +0.000 A 
ATOM      6  C   UNL     1      47.780   8.195  11.888  0.00  0.00    +0.000 A 
ATOM      7  C   UNL     1      47.309   6.894  11.629  0.00  0.00    +0.000 A 
BRANCH   6   8
ATOM      8  C   UNL     1      49.182   8.569  11.604  0.00  0.00    +0.000 A 
ATOM      9  C   UNL     1      50.162   7.601  11.335  0.00  0.00    +0.000 A 
ATOM     10  C   UNL     1      51.453   7.973  10.964  0.00  0.00    +0.000 A 
ATOM     11  C   UNL     1      51.744   9.321  10.868  0.00  0.00    +0.000 A 
ATOM     12  N   UNL     1      50.855  10.295  11.142  0.00  0.00    +0.000 NA
ATOM     13  C   UNL     1      49.609   9.897  11.505  0.00  0.00    +0.000 A 
ENDBRANCH   6   8
ENDBRANCH   1   2
BRANCH   1  15
ATOM     14  C   UNL     1      43.294   4.169  11.007  0.00  0.00    +0.000 C 
ATOM     15  C   UNL     1      44.577   4.892  10.584  0.00  0.00    +0.000 C 
BRANCH  15  16
ATOM     16  N   UNL     1      45.199   4.196   9.441  0.00  0.00    +0.000 N 
ATOM     17  C   UNL     1      45.180   2.825   9.358  0.00  0.00    +0.000 C 
ATOM     18  C   UNL     1      45.927   2.210   8.314  0.00  0.00    +0.000 C 
ATOM     19  C   UNL     1      46.573   3.031   7.474  0.00  0.00    +0.000 C 
ATOM     20  N   UNL     1      46.540   4.397   7.603  0.00  0.00    +0.000 NA
ATOM     21  N   UNL     1      45.931   4.955   8.551  0.00  0.00    +0.000 NA
BRANCH  19  22
ATOM     22  C   UNL     1      47.362   2.426   6.367  0.00  0.00    +0.000 C 
ATOM     23  O   UNL     1      47.933   1.349   6.424  0.00  0.00    +0.000 OA
BRANCH  22  24
ATOM     24  O   UNL     1      47.378   3.210   5.260  0.00  0.00    +0.000 OA
ATOM     25  H   UNL     1      46.485   3.328   4.884  0.00  0.00    +0.000 HD
ENDBRANCH  22  24
ENDBRANCH  19  22
ENDBRANCH  15  16
ENDBRANCH   1  15
TORSDOF 6
ENDMDL
MODEL 2
REMARK VINA RESULT:    -7.854      2.299      3.880
REMARK INTER + INTRA:         -11.260
REMARK INTER:                 -10.407
REMARK INTRA:                  -0.853
REMARK UNBOUND:                -0.880
REMARK  Name = 
REMARK  7 active torsions:
REMARK  status: ('A' for Active; 'I' for Inactive)
REMARK    1  A    between atoms: C_1  and  C_2
REMARK    2  A    between atoms: C_2  and  C_3
REMARK    3  A    between atoms: C_2  and  N_16
REMARK    4  A    between atoms: C_3  and  C_4
REMARK    5  A    between atoms: C_8  and  C_9
REMARK    6  A    between atoms: C_19  and  C_20
REMARK    7  A    between atoms: C_20  and  O_22
REMARK                            x       y       z     vdW  Elec       q    Type
REMARK                         _______ _______ _______ _____ _____    ______ ____
ROOT
ATOM      1  C   UNL     1      45.436   4.873  11.770  0.00  0.00    +0.000 C 
ENDROOT
BRANCH   1   2
ATOM      2  C   UNL     1      45.871   6.316  11.905  0.00  0.00    +0.000 A 
ATOM      3  C   UNL     1      47.197   6.628  12.213  0.00  0.00    +0.000 A 
ATOM      4  C   UNL     1      47.598   7.957  12.322  0.00  0.00    +0.000 A 
ATOM      5  C   UNL     1      46.679   8.985  12.103  0.00  0.00    +0.000 A 
ATOM      6  C   UNL     1      45.345   8.714  11.747  0.00  0.00    +0.000 A 
ATOM      7  C   UNL     1      44.960   7.362  11.676  0.00  0.00    +0.000 A 
BRANCH   6   8
ATOM      8  C   UNL     1      44.409   9.795  11.369  0.00  0.00    +0.000 A 
ATOM      9  C   UNL     1      43.220   9.529  10.671  0.00  0.00    +0.000 A 
ATOM     10  C   UNL     1      42.297  10.541  10.418  0.00  0.00    +0.000 A 
ATOM     11  C   UNL     1      42.582  11.816  10.869  0.00  0.00    +0.000 A 
ATOM     12  N   UNL     1      43.717  12.138  11.519  0.00  0.00    +0.000 NA
ATOM     13  C   UNL     1      44.596  11.129  11.745  0.00  0.00    +0.000 A 
ENDBRANCH   6   8
ENDBRANCH   1   2
BRANCH   1  15
ATOM     14  C   UNL     1      43.247   3.755  11.081  0.00  0.00    +0.000 C 
ATOM     15  C   UNL     1      44.437   4.604  10.621  0.00  0.00    +0.000 C 
BRANCH  15  16
ATOM     16  N   UNL     1      45.094   3.970   9.461  0.00  0.00    +0.000 N 
ATOM     17  C   UNL     1      45.158   2.603   9.350  0.00  0.00    +0.000 C 
ATOM     18  C   UNL     1      45.935   2.056   8.290  0.00  0.00    +0.000 C 
ATOM     19  C   UNL     1      46.526   2.931   7.465  0.00  0.00    +0.000 C 
ATOM     20  N   UNL     1      46.410   4.290   7.623  0.00  0.00    +0.000 NA
ATOM     21  N   UNL     1      45.774   4.791   8.584  0.00  0.00    +0.000 NA
BRANCH  19  22
ATOM     22  C   UNL     1      47.344   2.398   6.342  0.00  0.00    +0.000 C 
ATOM     23  O   UNL     1      48.028   1.389   6.394  0.00  0.00    +0.000 OA
BRANCH  22  24
ATOM     24  O   UNL     1      47.246   3.164   5.227  0.00  0.00    +0.000 OA
ATOM     25  H   UNL     1      46.702   3.962   5.378  0.00  0.00    +0.000 HD
ENDBRANCH  22  24
ENDBRANCH  19  22
ENDBRANCH  15  16
ENDBRANCH   1  15
TORSDOF 6
ENDMDL
MODEL 3
REMARK VINA RESULT:    -7.793      3.635      4.436
REMARK INTER + INTRA:         -11.179
REMARK INTER:                 -10.382
REMARK INTRA:                  -0.797
REMARK UNBOUND:                -0.880
REMARK  Name = 
REMARK  7 active torsions:
REMARK  status: ('A' for Active; 'I' for Inactive)
REMARK    1  A    between atoms: C_1  and  C_2
REMARK    2  A    between atoms: C_2  and  C_3
REMARK    3  A    between atoms: C_2  and  N_16
REMARK    4  A    between atoms: C_3  and  C_4
REMARK    5  A    between atoms: C_8  and  C_9
REMARK    6  A    between atoms: C_19  and  C_20
REMARK    7  A    between atoms: C_20  and  O_22
REMARK                            x       y       z     vdW  Elec       q    Type
REMARK                         _______ _______ _______ _____ _____    ______ ____
ROOT
ATOM      1  C   UNL     1      45.169   4.188  12.084  0.00  0.00    +0.000 C 
ENDROOT
BRANCH   1   2
ATOM      2  C   UNL     1      46.212   4.948  12.873  0.00  0.00    +0.000 A 
ATOM      3  C   UNL     1      46.733   6.149  12.383  0.00  0.00    +0.000 A 
ATOM      4  C   UNL     1      47.682   6.853  13.118  0.00  0.00    +0.000 A 
ATOM      5  C   UNL     1      48.102   6.374  14.361  0.00  0.00    +0.000 A 
ATOM      6  C   UNL     1      47.570   5.194  14.910  0.00  0.00    +0.000 A 
ATOM      7  C   UNL     1      46.636   4.485  14.130  0.00  0.00    +0.000 A 
BRANCH   6   8
ATOM      8  C   UNL     1      47.899   4.762  16.286  0.00  0.00    +0.000 A 
ATOM      9  C   UNL     1      47.616   3.463  16.737  0.00  0.00    +0.000 A 
ATOM     10  C   UNL     1      48.029   3.037  17.998  0.00  0.00    +0.000 A 
ATOM     11  C   UNL     1      48.724   3.928  18.795  0.00  0.00    +0.000 A 
ATOM     12  N   UNL     1      49.000   5.194  18.429  0.00  0.00    +0.000 NA
ATOM     13  C   UNL     1      48.579   5.577  17.196  0.00  0.00    +0.000 A 
ENDBRANCH   6   8
ENDBRANCH   1   2
BRANCH   1  15
ATOM     14  C   UNL     1      43.188   5.023  10.706  0.00  0.00    +0.000 C 
ATOM     15  C   UNL     1      44.712   4.882  10.780  0.00  0.00    +0.000 C 
BRANCH  15  16
ATOM     16  N   UNL     1      45.216   4.183   9.581  0.00  0.00    +0.000 N 
ATOM     17  C   UNL     1      45.169   2.813   9.495  0.00  0.00    +0.000 C 
ATOM     18  C   UNL     1      45.807   2.194   8.384  0.00  0.00    +0.000 C 
ATOM     19  C   UNL     1      46.386   3.009   7.492  0.00  0.00    +0.000 C 
ATOM     20  N   UNL     1      46.385   4.375   7.629  0.00  0.00    +0.000 NA
ATOM     21  N   UNL     1      45.874   4.937   8.631  0.00  0.00    +0.000 NA
BRANCH  19  22
ATOM     22  C   UNL     1      47.060   2.399   6.314  0.00  0.00    +0.000 C 
ATOM     23  O   UNL     1      47.552   1.282   6.292  0.00  0.00    +0.000 OA
BRANCH  22  24
ATOM     24  O   UNL     1      47.070   3.228   5.241  0.00  0.00    +0.000 OA
ATOM     25  H   UNL     1      46.995   2.737   4.400  0.00  0.00    +0.000 HD
ENDBRANCH  22  24
ENDBRANCH  19  22
ENDBRANCH  15  16
ENDBRANCH   1  15
TORSDOF 6
ENDMDL
MODEL 4
REMARK VINA RESULT:    -7.560      1.067      1.687
REMARK INTER + INTRA:         -10.871
REMARK INTER:                 -10.869
REMARK INTRA:                  -0.002
REMARK UNBOUND:                -0.880
REMARK  Name = 
REMARK  7 active torsions:
REMARK  status: ('A' for Active; 'I' for Inactive)
REMARK    1  A    between atoms: C_1  and  C_2
REMARK    2  A    between atoms: C_2  and  C_3
REMARK    3  A    between atoms: C_2  and  N_16
REMARK    4  A    between atoms: C_3  and  C_4
REMARK    5  A    between atoms: C_8  and  C_9
REMARK    6  A    between atoms: C_19  and  C_20
REMARK    7  A    between atoms: C_20  and  O_22
REMARK                            x       y       z     vdW  Elec       q    Type
REMARK                         _______ _______ _______ _____ _____    ______ ____
ROOT
ATOM      1  C   UNL     1      44.003   5.453  10.803  0.00  0.00    +0.000 C 
ENDROOT
BRANCH   1   2
ATOM      2  C   UNL     1      45.239   5.533  11.671  0.00  0.00    +0.000 A 
ATOM      3  C   UNL     1      45.516   4.527  12.601  0.00  0.00    +0.000 A 
ATOM      4  C   UNL     1      46.661   4.596  13.388  0.00  0.00    +0.000 A 
ATOM      5  C   UNL     1      47.551   5.662  13.238  0.00  0.00    +0.000 A 
ATOM      6  C   UNL     1      47.333   6.671  12.283  0.00  0.00    +0.000 A 
ATOM      7  C   UNL     1      46.150   6.593  11.524  0.00  0.00    +0.000 A 
BRANCH   6   8
ATOM      8  C   UNL     1      48.342   7.718  12.016  0.00  0.00    +0.000 A 
ATOM      9  C   UNL     1      49.688   7.399  11.777  0.00  0.00    +0.000 A 
ATOM     10  C   UNL     1      50.606   8.386  11.421  0.00  0.00    +0.000 A 
ATOM     11  C   UNL     1      50.157   9.688  11.312  0.00  0.00    +0.000 A 
ATOM     12  N   UNL     1      48.886  10.060  11.557  0.00  0.00    +0.000 NA
ATOM     13  C   UNL     1      48.020   9.075  11.906  0.00  0.00    +0.000 A 
ENDBRANCH   6   8
ENDBRANCH   1   2
BRANCH   1  15
ATOM     14  C   UNL     1      43.558   3.037  11.499  0.00  0.00    +0.000 C 
ATOM     15  C   UNL     1      43.634   4.027  10.332  0.00  0.00    +0.000 C 
BRANCH  15  16
ATOM     16  N   UNL     1      44.570   3.530   9.305  0.00  0.00    +0.000 N 
ATOM     17  C   UNL     1      44.999   2.225   9.318  0.00  0.00    +0.000 C 
ATOM     18  C   UNL     1      46.015   1.849   8.395  0.00  0.00    +0.000 C 
ATOM     19  C   UNL     1      46.456   2.804   7.564  0.00  0.00    +0.000 C 
ATOM     20  N   UNL     1      45.973   4.089   7.592  0.00  0.00    +0.000 NA
ATOM     21  N   UNL     1      45.115   4.453   8.436  0.00  0.00    +0.000 NA
BRANCH  19  22
ATOM     22  C   UNL     1      47.515   2.449   6.581  0.00  0.00    +0.000 C 
ATOM     23  O   UNL     1      48.302   1.525   6.706  0.00  0.00    +0.000 OA
BRANCH  22  24
ATOM     24  O   UNL     1      47.514   3.273   5.504  0.00  0.00    +0.000 OA
ATOM     25  H   UNL     1      47.842   2.824   4.701  0.00  0.00    +0.000 HD
ENDBRANCH  22  24
ENDBRANCH  19  22
ENDBRANCH  15  16
ENDBRANCH   1  15
TORSDOF 6
ENDMDL
MODEL 5
REMARK VINA RESULT:    -7.296      1.828      1.861
REMARK INTER + INTRA:         -10.522
REMARK INTER:                  -9.714
REMARK INTRA:                  -0.808
REMARK UNBOUND:                -0.880
REMARK  Name = 
REMARK  7 active torsions:
REMARK  status: ('A' for Active; 'I' for Inactive)
REMARK    1  A    between atoms: C_1  and  C_2
REMARK    2  A    between atoms: C_2  and  C_3
REMARK    3  A    between atoms: C_2  and  N_16
REMARK    4  A    between atoms: C_3  and  C_4
REMARK    5  A    between atoms: C_8  and  C_9
REMARK    6  A    between atoms: C_19  and  C_20
REMARK    7  A    between atoms: C_20  and  O_22
REMARK                            x       y       z     vdW  Elec       q    Type
REMARK                         _______ _______ _______ _____ _____    ______ ____
ROOT
ATOM      1  C   UNL     1      45.446   4.712  11.818  0.00  0.00    +0.000 C 
ENDROOT
BRANCH   1   2
ATOM      2  C   UNL     1      45.767   6.171  12.056  0.00  0.00    +0.000 A 
ATOM      3  C   UNL     1      44.876   7.166  11.646  0.00  0.00    +0.000 A 
ATOM      4  C   UNL     1      45.168   8.507  11.880  0.00  0.00    +0.000 A 
ATOM      5  C   UNL     1      46.343   8.863  12.545  0.00  0.00    +0.000 A 
ATOM      6  C   UNL     1      47.244   7.890  13.014  0.00  0.00    +0.000 A 
ATOM      7  C   UNL     1      46.940   6.544  12.735  0.00  0.00    +0.000 A 
BRANCH   6   8
ATOM      8  C   UNL     1      48.411   8.252  13.847  0.00  0.00    +0.000 A 
ATOM      9  C   UNL     1      49.451   7.342  14.092  0.00  0.00    +0.000 A 
ATOM     10  C   UNL     1      50.594   7.731  14.787  0.00  0.00    +0.000 A 
ATOM     11  C   UNL     1      50.678   9.037  15.232  0.00  0.00    +0.000 A 
ATOM     12  N   UNL     1      49.701   9.947  15.052  0.00  0.00    +0.000 NA
ATOM     13  C   UNL     1      48.600   9.533  14.375  0.00  0.00    +0.000 A 
ENDBRANCH   6   8
ENDBRANCH   1   2
BRANCH   1  15
ATOM     14  C   UNL     1      43.270   3.571  11.125  0.00  0.00    +0.000 C 
ATOM     15  C   UNL     1      44.441   4.450  10.672  0.00  0.00    +0.000 C 
BRANCH  15  16
ATOM     16  N   UNL     1      45.098   3.853   9.493  0.00  0.00    +0.000 N 
ATOM     17  C   UNL     1      45.240   2.491   9.381  0.00  0.00    +0.000 C 
ATOM     18  C   UNL     1      46.014   1.989   8.298  0.00  0.00    +0.000 C 
ATOM     19  C   UNL     1      46.525   2.895   7.454  0.00  0.00    +0.000 C 
ATOM     20  N   UNL     1      46.333   4.245   7.613  0.00  0.00    +0.000 NA
ATOM     21  N   UNL     1      45.699   4.709   8.594  0.00  0.00    +0.000 NA
BRANCH  19  22
ATOM     22  C   UNL     1      47.337   2.408   6.306  0.00  0.00    +0.000 C 
ATOM     23  O   UNL     1      48.040   1.410   6.321  0.00  0.00    +0.000 OA
BRANCH  22  24
ATOM     24  O   UNL     1      47.211   3.202   5.214  0.00  0.00    +0.000 OA
ATOM     25  H   UNL     1      46.719   2.759   4.495  0.00  0.00    +0.000 HD
ENDBRANCH  22  24
ENDBRANCH  19  22
ENDBRANCH  15  16
ENDBRANCH   1  15
TORSDOF 6
ENDMDL
MODEL 6
REMARK VINA RESULT:    -7.127      6.189      8.348
REMARK INTER + INTRA:         -10.299
REMARK INTER:                  -9.476
REMARK INTRA:                  -0.822
REMARK UNBOUND:                -0.880
REMARK  Name = 
REMARK  7 active torsions:
REMARK  status: ('A' for Active; 'I' for Inactive)
REMARK    1  A    between atoms: C_1  and  C_2
REMARK    2  A    between atoms: C_2  and  C_3
REMARK    3  A    between atoms: C_2  and  N_16
REMARK    4  A    between atoms: C_3  and  C_4
REMARK    5  A    between atoms: C_8  and  C_9
REMARK    6  A    between atoms: C_19  and  C_20
REMARK    7  A    between atoms: C_20  and  O_22
REMARK                            x       y       z     vdW  Elec       q    Type
REMARK                         _______ _______ _______ _____ _____    ______ ____
ROOT
ATOM      1  C   UNL     1      48.618   5.883  15.926  0.00  0.00    +0.000 C 
ENDROOT
BRANCH   1   2
ATOM      2  C   UNL     1      48.101   6.158  14.531  0.00  0.00    +0.000 A 
ATOM      3  C   UNL     1      48.757   7.072  13.702  0.00  0.00    +0.000 A 
ATOM      4  C   UNL     1      48.287   7.312  12.414  0.00  0.00    +0.000 A 
ATOM      5  C   UNL     1      47.170   6.624  11.936  0.00  0.00    +0.000 A 
ATOM      6  C   UNL     1      46.508   5.663  12.722  0.00  0.00    +0.000 A 
ATOM      7  C   UNL     1      46.985   5.465  14.032  0.00  0.00    +0.000 A 
BRANCH   6   8
ATOM      8  C   UNL     1      45.420   4.827  12.171  0.00  0.00    +0.000 A 
ATOM      9  C   UNL     1      45.080   4.865  10.810  0.00  0.00    +0.000 A 
ATOM     10  C   UNL     1      44.127   3.994  10.285  0.00  0.00    +0.000 A 
ATOM     11  C   UNL     1      43.523   3.092  11.141  0.00  0.00    +0.000 A 
ATOM     12  N   UNL     1      43.786   3.028  12.461  0.00  0.00    +0.000 NA
ATOM     13  C   UNL     1      44.716   3.893  12.938  0.00  0.00    +0.000 A 
ENDBRANCH   6   8
ENDBRANCH   1   2
BRANCH   1  15
ATOM     14  C   UNL     1      47.193   4.957  17.831  0.00  0.00    +0.000 C 
ATOM     15  C   UNL     1      48.032   4.618  16.595  0.00  0.00    +0.000 C 
BRANCH  15  16
ATOM     16  N   UNL     1      49.085   3.646  16.947  0.00  0.00    +0.000 N 
ATOM     17  C   UNL     1      50.076   3.976  17.840  0.00  0.00    +0.000 C 
ATOM     18  C   UNL     1      51.143   3.053  18.020  0.00  0.00    +0.000 C 
ATOM     19  C   UNL     1      51.080   1.915  17.315  0.00  0.00    +0.000 C 
ATOM     20  N   UNL     1      50.052   1.639  16.448  0.00  0.00    +0.000 NA
ATOM     21  N   UNL     1      49.130   2.465  16.235  0.00  0.00    +0.000 NA
BRANCH  19  22
ATOM     22  C   UNL     1      52.177   0.922  17.480  0.00  0.00    +0.000 C 
ATOM     23  O   UNL     1      53.261   0.981  16.924  0.00  0.00    +0.000 OA
BRANCH  22  24
ATOM     24  O   UNL     1      51.841  -0.076  18.334  0.00  0.00    +0.000 OA
ATOM     25  H   UNL     1      51.518  -0.868  17.861  0.00  0.00    +0.000 HD
ENDBRANCH  22  24
ENDBRANCH  19  22
ENDBRANCH  15  16
ENDBRANCH   1  15
TORSDOF 6
ENDMDL
MODEL 7
REMARK VINA RESULT:    -6.771      5.009      7.810
REMARK INTER + INTRA:          -9.828
REMARK INTER:                  -9.316
REMARK INTRA:                  -0.511
REMARK UNBOUND:                -0.880
REMARK  Name = 
REMARK  7 active torsions:
REMARK  status: ('A' for Active; 'I' for Inactive)
REMARK    1  A    between atoms: C_1  and  C_2
REMARK    2  A    between atoms: C_2  and  C_3
REMARK    3  A    between atoms: C_2  and  N_16
REMARK    4  A    between atoms: C_3  and  C_4
REMARK    5  A    between atoms: C_8  and  C_9
REMARK    6  A    between atoms: C_19  and  C_20
REMARK    7  A    between atoms: C_20  and  O_22
REMARK                            x       y       z     vdW  Elec       q    Type
REMARK                         _______ _______ _______ _____ _____    ______ ____
ROOT
ATOM      1  C   UNL     1      48.880   7.136  13.106  0.00  0.00    +0.000 C 
ENDROOT
BRANCH   1   2
ATOM      2  C   UNL     1      47.476   7.190  12.547  0.00  0.00    +0.000 A 
ATOM      3  C   UNL     1      46.713   8.355  12.664  0.00  0.00    +0.000 A 
ATOM      4  C   UNL     1      45.426   8.405  12.136  0.00  0.00    +0.000 A 
ATOM      5  C   UNL     1      44.899   7.299  11.467  0.00  0.00    +0.000 A 
ATOM      6  C   UNL     1      45.650   6.123  11.288  0.00  0.00    +0.000 A 
ATOM      7  C   UNL     1      46.936   6.088  11.861  0.00  0.00    +0.000 A 
BRANCH   6   8
ATOM      8  C   UNL     1      45.156   5.006  10.455  0.00  0.00    +0.000 A 
ATOM      9  C   UNL     1      45.537   4.865   9.111  0.00  0.00    +0.000 A 
ATOM     10  C   UNL     1      45.150   3.750   8.371  0.00  0.00    +0.000 A 
ATOM     11  C   UNL     1      44.379   2.786   8.993  0.00  0.00    +0.000 A 
ATOM     12  N   UNL     1      43.958   2.879  10.269  0.00  0.00    +0.000 NA
ATOM     13  C   UNL     1      44.350   3.981  10.960  0.00  0.00    +0.000 A 
ENDBRANCH   6   8
ENDBRANCH   1   2
BRANCH   1  15
ATOM     14  C   UNL     1      50.430   8.012  14.936  0.00  0.00    +0.000 C 
ATOM     15  C   UNL     1      49.005   7.574  14.584  0.00  0.00    +0.000 C 
BRANCH  15  16
ATOM     16  N   UNL     1      48.556   6.516  15.509  0.00  0.00    +0.000 N 
ATOM     17  C   UNL     1      48.731   6.646  16.865  0.00  0.00    +0.000 C 
ATOM     18  C   UNL     1      48.417   5.529  17.688  0.00  0.00    +0.000 C 
ATOM     19  C   UNL     1      47.947   4.438  17.067  0.00  0.00    +0.000 C 
ATOM     20  N   UNL     1      47.780   4.377  15.706  0.00  0.00    +0.000 NA
ATOM     21  N   UNL     1      48.104   5.334  14.958  0.00  0.00    +0.000 NA
BRANCH  19  22
ATOM     22  C   UNL     1      47.602   3.250  17.895  0.00  0.00    +0.000 C 
ATOM     23  O   UNL     1      46.686   2.479  17.661  0.00  0.00    +0.000 OA
BRANCH  22  24
ATOM     24  O   UNL     1      48.432   3.107  18.958  0.00  0.00    +0.000 OA
ATOM     25  H   UNL     1      48.332   3.837  19.600  0.00  0.00    +0.000 HD
ENDBRANCH  22  24
ENDBRANCH  19  22
ENDBRANCH  15  16
ENDBRANCH   1  15
TORSDOF 6
ENDMDL
MODEL 8
REMARK VINA RESULT:    -6.600      4.408      7.663
REMARK INTER + INTRA:          -9.602
REMARK INTER:                  -8.747
REMARK INTRA:                  -0.855
REMARK UNBOUND:                -0.880
REMARK  Name = 
REMARK  7 active torsions:
REMARK  status: ('A' for Active; 'I' for Inactive)
REMARK    1  A    between atoms: C_1  and  C_2
REMARK    2  A    between atoms: C_2  and  C_3
REMARK    3  A    between atoms: C_2  and  N_16
REMARK    4  A    between atoms: C_3  and  C_4
REMARK    5  A    between atoms: C_8  and  C_9
REMARK    6  A    between atoms: C_19  and  C_20
REMARK    7  A    between atoms: C_20  and  O_22
REMARK                            x       y       z     vdW  Elec       q    Type
REMARK                         _______ _______ _______ _____ _____    ______ ____
ROOT
ATOM      1  C   UNL     1      44.771   6.150  12.606  0.00  0.00    +0.000 C 
ENDROOT
BRANCH   1   2
ATOM      2  C   UNL     1      44.496   4.826  11.929  0.00  0.00    +0.000 A 
ATOM      3  C   UNL     1      43.503   3.975  12.419  0.00  0.00    +0.000 A 
ATOM      4  C   UNL     1      43.242   2.764  11.784  0.00  0.00    +0.000 A 
ATOM      5  C   UNL     1      43.959   2.403  10.641  0.00  0.00    +0.000 A 
ATOM      6  C   UNL     1      44.935   3.252  10.090  0.00  0.00    +0.000 A 
ATOM      7  C   UNL     1      45.201   4.455  10.771  0.00  0.00    +0.000 A 
BRANCH   6   8
ATOM      8  C   UNL     1      45.590   2.945   8.800  0.00  0.00    +0.000 A 
ATOM      9  C   UNL     1      45.929   3.956   7.887  0.00  0.00    +0.000 A 
ATOM     10  C   UNL     1      46.642   3.663   6.726  0.00  0.00    +0.000 A 
ATOM     11  C   UNL     1      47.006   2.350   6.495  0.00  0.00    +0.000 A 
ATOM     12  N   UNL     1      46.686   1.333   7.318  0.00  0.00    +0.000 NA
ATOM     13  C   UNL     1      45.987   1.653   8.438  0.00  0.00    +0.000 A 
ENDBRANCH   6   8
ENDBRANCH   1   2
BRANCH   1  15
ATOM     14  C   UNL     1      47.085   7.230  12.605  0.00  0.00    +0.000 C 
ATOM     15  C   UNL     1      45.760   7.070  11.852  0.00  0.00    +0.000 C 
BRANCH  15  16
ATOM     16  N   UNL     1      45.172   8.394  11.572  0.00  0.00    +0.000 N 
ATOM     17  C   UNL     1      45.801   9.544  11.982  0.00  0.00    +0.000 C 
ATOM     18  C   UNL     1      45.111  10.777  11.816  0.00  0.00    +0.000 C 
ATOM     19  C   UNL     1      43.900  10.715  11.245  0.00  0.00    +0.000 C 
ATOM     20  N   UNL     1      43.332   9.532  10.842  0.00  0.00    +0.000 NA
ATOM     21  N   UNL     1      43.903   8.429  11.031  0.00  0.00    +0.000 NA
BRANCH  19  22
ATOM     22  C   UNL     1      43.148  11.985  11.050  0.00  0.00    +0.000 C 
ATOM     23  O   UNL     1      42.357  12.196  10.146  0.00  0.00    +0.000 OA
BRANCH  22  24
ATOM     24  O   UNL     1      43.435  12.904  12.005  0.00  0.00    +0.000 OA
ATOM     25  H   UNL     1      43.578  12.490  12.879  0.00  0.00    +0.000 HD
ENDBRANCH  22  24
ENDBRANCH  19  22
ENDBRANCH  15  16
ENDBRANCH   1  15
TORSDOF 6
ENDMDL
MODEL 9
REMARK VINA RESULT:    -6.421      4.283      5.859
REMARK INTER + INTRA:          -9.365
REMARK INTER:                  -8.455
REMARK INTRA:                  -0.910
REMARK UNBOUND:                -0.880
REMARK  Name = 
REMARK  7 active torsions:
REMARK  status: ('A' for Active; 'I' for Inactive)
REMARK    1  A    between atoms: C_1  and  C_2
REMARK    2  A    between atoms: C_2  and  C_3
REMARK    3  A    between atoms: C_2  and  N_16
REMARK    4  A    between atoms: C_3  and  C_4
REMARK    5  A    between atoms: C_8  and  C_9
REMARK    6  A    between atoms: C_19  and  C_20
REMARK    7  A    between atoms: C_20  and  O_22
REMARK                            x       y       z     vdW  Elec       q    Type
REMARK                         _______ _______ _______ _____ _____    ______ ____
ROOT
ATOM      1  C   UNL     1      47.865   7.723  12.037  0.00  0.00    +0.000 C 
ENDROOT
BRANCH   1   2
ATOM      2  C   UNL     1      48.384   7.632  13.455  0.00  0.00    +0.000 A 
ATOM      3  C   UNL     1      49.000   8.733  14.054  0.00  0.00    +0.000 A 
ATOM      4  C   UNL     1      49.464   8.650  15.364  0.00  0.00    +0.000 A 
ATOM      5  C   UNL     1      49.297   7.471  16.093  0.00  0.00    +0.000 A 
ATOM      6  C   UNL     1      48.642   6.354  15.542  0.00  0.00    +0.000 A 
ATOM      7  C   UNL     1      48.213   6.455  14.205  0.00  0.00    +0.000 A 
BRANCH   6   8
ATOM      8  C   UNL     1      48.331   5.159  16.355  0.00  0.00    +0.000 A 
ATOM      9  C   UNL     1      49.110   4.801  17.466  0.00  0.00    +0.000 A 
ATOM     10  C   UNL     1      48.742   3.736  18.286  0.00  0.00    +0.000 A 
ATOM     11  C   UNL     1      47.590   3.039  17.976  0.00  0.00    +0.000 A 
ATOM     12  N   UNL     1      46.817   3.316  16.908  0.00  0.00    +0.000 NA
ATOM     13  C   UNL     1      47.207   4.357  16.128  0.00  0.00    +0.000 A 
ENDBRANCH   6   8
ENDBRANCH   1   2
BRANCH   1  15
ATOM     14  C   UNL     1      45.799   8.799  13.081  0.00  0.00    +0.000 C 
ATOM     15  C   UNL     1      46.341   7.960  11.920  0.00  0.00    +0.000 C 
BRANCH  15  16
ATOM     16  N   UNL     1      45.596   6.690  11.819  0.00  0.00    +0.000 N 
ATOM     17  C   UNL     1      44.904   6.194  12.897  0.00  0.00    +0.000 C 
ATOM     18  C   UNL     1      44.334   4.895  12.782  0.00  0.00    +0.000 C 
ATOM     19  C   UNL     1      44.501   4.267  11.609  0.00  0.00    +0.000 C 
ATOM     20  N   UNL     1      45.191   4.827  10.563  0.00  0.00    +0.000 NA
ATOM     21  N   UNL     1      45.748   5.949  10.665  0.00  0.00    +0.000 NA
BRANCH  19  22
ATOM     22  C   UNL     1      43.915   2.909  11.449  0.00  0.00    +0.000 C 
ATOM     23  O   UNL     1      43.700   2.364  10.378  0.00  0.00    +0.000 OA
BRANCH  22  24
ATOM     24  O   UNL     1      43.642   2.322  12.640  0.00  0.00    +0.000 OA
ATOM     25  H   UNL     1      44.289   1.624  12.860  0.00  0.00    +0.000 HD
ENDBRANCH  22  24
ENDBRANCH  19  22
ENDBRANCH  15  16
ENDBRANCH   1  15
TORSDOF 6
ENDMDL
