MODEL 1
REMARK VINA RESULT:    -8.580      0.000      0.000
REMARK INTER + INTRA:         -12.516
REMARK INTER:                 -11.589
REMARK INTRA:                  -0.927
REMARK UNBOUND:                -0.927
REMARK  Name = 
REMARK  6 active torsions:
REMARK  status: ('A' for Active; 'I' for Inactive)
REMARK    1  A    between atoms: C_2  and  C_4
REMARK    2  A    between atoms: C_8  and  O_9
REMARK    3  A    between atoms: O_9  and  C_10
REMARK    4  A    between atoms: C_10  and  C_11
REMARK    5  A    between atoms: C_11  and  C_12
REMARK    6  A    between atoms: C_16  and  C_17
REMARK                            x       y       z     vdW  Elec       q    Type
REMARK                         _______ _______ _______ _____ _____    ______ ____
ROOT
ATOM      1  C   UNL     1      44.553   3.145  12.496  0.00  0.00    +0.000 C 
ENDROOT
BRANCH   1   2
ATOM      2  C   UNL     1      45.641   4.106  12.879  0.00  0.00    +0.000 A 
ATOM      3  C   UNL     1      46.673   3.735  13.727  0.00  0.00    +0.000 A 
ATOM      4  N   UNL     1      47.612   4.591  14.176  0.00  0.00    +0.000 NA
ATOM      5  C   UNL     1      47.504   5.884  13.774  0.00  0.00    +0.000 A 
ATOM      6  C   UNL     1      46.524   6.393  12.913  0.00  0.00    +0.000 A 
ATOM      7  C   UNL     1      45.606   5.440  12.446  0.00  0.00    +0.000 A 
BRANCH   6   8
ATOM      8  C   UNL     1      46.487   7.827  12.514  0.00  0.00    +0.000 A 
ATOM      9  C   UNL     1      45.256   8.524  12.570  0.00  0.00    +0.000 A 
ATOM     10  C   UNL     1      45.141   9.874  12.216  0.00  0.00    +0.000 A 
ATOM     11  C   UNL     1      46.263  10.587  11.822  0.00  0.00    +0.000 A 
ATOM     12  C   UNL     1      47.492   9.939  11.750  0.00  0.00    +0.000 A 
ATOM     13  C   UNL     1      47.604   8.575  12.065  0.00  0.00    +0.000 A 
ATOM     14 CL   UNL     1      49.173   7.889  11.780  0.00  0.00    +0.000 Cl
ENDBRANCH   6   8
ENDBRANCH   1   2
BRANCH   1  15
ATOM     15  C   UNL     1      43.681   3.709  11.371  0.00  0.00    +0.000 C 
BRANCH  15  16
ATOM     16  O   UNL     1      43.726   2.808  10.260  0.00  0.00    +0.000 OA
BRANCH  16  21
ATOM     17  C   UNL     1      46.451   2.439   7.771  0.00  0.00    +0.000 A 
ATOM     18  C   UNL     1      46.613   3.790   7.499  0.00  0.00    +0.000 A 
ATOM     19  N   UNL     1      45.858   4.760   8.069  0.00  0.00    +0.000 NA
ATOM     20  C   UNL     1      44.922   4.350   8.964  0.00  0.00    +0.000 A 
ATOM     21  C   UNL     1      44.701   3.025   9.326  0.00  0.00    +0.000 A 
ATOM     22  C   UNL     1      45.487   2.053   8.713  0.00  0.00    +0.000 A 
BRANCH  17  24
ATOM     23  N   UNL     1      48.460   1.940   6.496  0.00  0.00    +0.000 N 
ATOM     24  C   UNL     1      47.313   1.463   7.073  0.00  0.00    +0.000 C 
ATOM     25  O   UNL     1      47.042   0.270   7.050  0.00  0.00    +0.000 OA
ATOM     26  H   UNL     1      49.093   1.246   6.121  0.00  0.00    +0.000 HD
ATOM     27  H   UNL     1      48.843   2.848   6.712  0.00  0.00    +0.000 HD
ENDBRANCH  17  24
ENDBRANCH  16  21
ENDBRANCH  15  16
ENDBRANCH   1  15
TORSDOF 6
ENDMDL
MODEL 2
REMARK VINA RESULT:    -7.798      1.784      2.399
REMARK INTER + INTRA:         -11.460
REMARK INTER:                 -10.603
REMARK INTRA:                  -0.857
REMARK UNBOUND:                -0.927
REMARK  Name = 
REMARK  6 active torsions:
REMARK  status: ('A' for Active; 'I' for Inactive)
REMARK    1  A    between atoms: C_2  and  C_4
REMARK    2  A    between atoms: C_8  and  O_9
REMARK    3  A    between atoms: O_9  and  C_10
REMARK    4  A    between atoms: C_10  and  C_11
REMARK    5  A    between atoms: C_11  and  C_12
REMARK    6  A    between atoms: C_16  and  C_17
REMARK                            x       y       z     vdW  Elec       q    Type
REMARK                         _______ _______ _______ _____ _____    ______ ____
ROOT
ATOM      1  C   UNL     1      43.405   5.235  11.505  0.00  0.00    +0.000 C 
ENDROOT
BRANCH   1   2
ATOM      2  C   UNL     1      44.730   5.323  12.207  0.00  0.00    +0.000 A 
ATOM      3  C   UNL     1      45.033   4.512  13.290  0.00  0.00    +0.000 A 
ATOM      4  N   UNL     1      46.166   4.625  14.010  0.00  0.00    +0.000 NA
ATOM      5  C   UNL     1      47.029   5.608  13.643  0.00  0.00    +0.000 A 
ATOM      6  C   UNL     1      46.857   6.486  12.568  0.00  0.00    +0.000 A 
ATOM      7  C   UNL     1      45.679   6.284  11.832  0.00  0.00    +0.000 A 
BRANCH   6   8
ATOM      8  C   UNL     1      47.863   7.531  12.228  0.00  0.00    +0.000 A 
ATOM      9  C   UNL     1      49.206   7.144  12.002  0.00  0.00    +0.000 A 
ATOM     10  C   UNL     1      50.207   8.066  11.673  0.00  0.00    +0.000 A 
ATOM     11  C   UNL     1      49.894   9.409  11.526  0.00  0.00    +0.000 A 
ATOM     12  C   UNL     1      48.587   9.832  11.741  0.00  0.00    +0.000 A 
ATOM     13  C   UNL     1      47.588   8.916  12.112  0.00  0.00    +0.000 A 
ATOM     14 CL   UNL     1      46.050   9.630  12.487  0.00  0.00    +0.000 Cl
ENDBRANCH   6   8
ENDBRANCH   1   2
BRANCH   1  15
ATOM     15  C   UNL     1      43.395   4.106  10.471  0.00  0.00    +0.000 C 
BRANCH  15  16
ATOM     16  O   UNL     1      44.192   4.505   9.351  0.00  0.00    +0.000 OA
BRANCH  16  21
ATOM     17  C   UNL     1      46.541   2.616   7.188  0.00  0.00    +0.000 A 
ATOM     18  C   UNL     1      46.357   1.377   7.785  0.00  0.00    +0.000 A 
ATOM     19  N   UNL     1      45.541   1.176   8.848  0.00  0.00    +0.000 NA
ATOM     20  C   UNL     1      44.869   2.262   9.308  0.00  0.00    +0.000 A 
ATOM     21  C   UNL     1      44.962   3.539   8.763  0.00  0.00    +0.000 A 
ATOM     22  C   UNL     1      45.818   3.712   7.679  0.00  0.00    +0.000 A 
BRANCH  17  24
ATOM     23  N   UNL     1      48.806   2.533   6.310  0.00  0.00    +0.000 N 
ATOM     24  C   UNL     1      47.475   2.727   6.050  0.00  0.00    +0.000 C 
ATOM     25  O   UNL     1      47.077   2.935   4.912  0.00  0.00    +0.000 OA
ATOM     26  H   UNL     1      49.418   2.500   5.505  0.00  0.00    +0.000 HD
ATOM     27  H   UNL     1      49.140   2.111   7.163  0.00  0.00    +0.000 HD
ENDBRANCH  17  24
ENDBRANCH  16  21
ENDBRANCH  15  16
ENDBRANCH   1  15
TORSDOF 6
ENDMDL
MODEL 3
REMARK VINA RESULT:    -7.660      1.973      2.751
REMARK INTER + INTRA:         -11.273
REMARK INTER:                 -10.720
REMARK INTRA:                  -0.553
REMARK UNBOUND:                -0.927
REMARK  Name = 
REMARK  6 active torsions:
REMARK  status: ('A' for Active; 'I' for Inactive)
REMARK    1  A    between atoms: C_2  and  C_4
REMARK    2  A    between atoms: C_8  and  O_9
REMARK    3  A    between atoms: O_9  and  C_10
REMARK    4  A    between atoms: C_10  and  C_11
REMARK    5  A    between atoms: C_11  and  C_12
REMARK    6  A    between atoms: C_16  and  C_17
REMARK                            x       y       z     vdW  Elec       q    Type
REMARK                         _______ _______ _______ _____ _____    ______ ____
ROOT
ATOM      1  C   UNL     1      43.240   4.006  12.470  0.00  0.00    +0.000 C 
ENDROOT
BRANCH   1   2
ATOM      2  C   UNL     1      43.870   5.352  12.255  0.00  0.00    +0.000 A 
ATOM      3  C   UNL     1      43.240   6.338  11.511  0.00  0.00    +0.000 A 
ATOM      4  N   UNL     1      43.810   7.521  11.209  0.00  0.00    +0.000 NA
ATOM      5  C   UNL     1      45.077   7.721  11.655  0.00  0.00    +0.000 A 
ATOM      6  C   UNL     1      45.825   6.821  12.423  0.00  0.00    +0.000 A 
ATOM      7  C   UNL     1      45.155   5.629  12.741  0.00  0.00    +0.000 A 
BRANCH   6   8
ATOM      8  C   UNL     1      47.209   7.128  12.880  0.00  0.00    +0.000 A 
ATOM      9  C   UNL     1      47.928   8.169  12.245  0.00  0.00    +0.000 A 
ATOM     10  C   UNL     1      49.229   8.520  12.622  0.00  0.00    +0.000 A 
ATOM     11  C   UNL     1      49.851   7.860  13.672  0.00  0.00    +0.000 A 
ATOM     12  C   UNL     1      49.181   6.829  14.321  0.00  0.00    +0.000 A 
ATOM     13  C   UNL     1      47.890   6.446  13.919  0.00  0.00    +0.000 A 
ATOM     14 CL   UNL     1      47.260   5.048  14.733  0.00  0.00    +0.000 Cl
ENDBRANCH   6   8
ENDBRANCH   1   2
BRANCH   1  15
ATOM     15  C   UNL     1      44.032   2.901  11.766  0.00  0.00    +0.000 C 
BRANCH  15  16
ATOM     16  O   UNL     1      43.599   2.826  10.403  0.00  0.00    +0.000 OA
BRANCH  16  21
ATOM     17  C   UNL     1      46.291   2.165   7.937  0.00  0.00    +0.000 A 
ATOM     18  C   UNL     1      46.461   3.479   7.521  0.00  0.00    +0.000 A 
ATOM     19  N   UNL     1      45.722   4.511   7.993  0.00  0.00    +0.000 NA
ATOM     20  C   UNL     1      44.794   4.209   8.937  0.00  0.00    +0.000 A 
ATOM     21  C   UNL     1      44.565   2.932   9.440  0.00  0.00    +0.000 A 
ATOM     22  C   UNL     1      45.334   1.892   8.925  0.00  0.00    +0.000 A 
BRANCH  17  24
ATOM     23  N   UNL     1      46.770  -0.188   7.563  0.00  0.00    +0.000 N 
ATOM     24  C   UNL     1      47.134   1.113   7.337  0.00  0.00    +0.000 C 
ATOM     25  O   UNL     1      48.091   1.386   6.625  0.00  0.00    +0.000 OA
ATOM     26  H   UNL     1      47.288  -0.892   7.055  0.00  0.00    +0.000 HD
ATOM     27  H   UNL     1      45.861  -0.447   7.916  0.00  0.00    +0.000 HD
ENDBRANCH  17  24
ENDBRANCH  16  21
ENDBRANCH  15  16
ENDBRANCH   1  15
TORSDOF 6
ENDMDL
MODEL 4
REMARK VINA RESULT:    -7.498      2.269      3.839
REMARK INTER + INTRA:         -11.055
REMARK INTER:                 -10.776
REMARK INTRA:                  -0.279
REMARK UNBOUND:                -0.927
REMARK  Name = 
REMARK  6 active torsions:
REMARK  status: ('A' for Active; 'I' for Inactive)
REMARK    1  A    between atoms: C_2  and  C_4
REMARK    2  A    between atoms: C_8  and  O_9
REMARK    3  A    between atoms: O_9  and  C_10
REMARK    4  A    between atoms: C_10  and  C_11
REMARK    5  A    between atoms: C_11  and  C_12
REMARK    6  A    between atoms: C_16  and  C_17
REMARK                            x       y       z     vdW  Elec       q    Type
REMARK                         _______ _______ _______ _____ _____    ______ ____
ROOT
ATOM      1  C   UNL     1      45.247   3.207  12.342  0.00  0.00    +0.000 C 
ENDROOT
BRANCH   1   2
ATOM      2  C   UNL     1      46.011   4.346  12.954  0.00  0.00    +0.000 A 
ATOM      3  C   UNL     1      46.236   5.525  12.260  0.00  0.00    +0.000 A 
ATOM      4  N   UNL     1      46.999   6.531  12.730  0.00  0.00    +0.000 NA
ATOM      5  C   UNL     1      47.581   6.343  13.943  0.00  0.00    +0.000 A 
ATOM      6  C   UNL     1      47.432   5.212  14.754  0.00  0.00    +0.000 A 
ATOM      7  C   UNL     1      46.587   4.223  14.226  0.00  0.00    +0.000 A 
BRANCH   6   8
ATOM      8  C   UNL     1      48.101   5.093  16.080  0.00  0.00    +0.000 A 
ATOM      9  C   UNL     1      47.549   4.223  17.051  0.00  0.00    +0.000 A 
ATOM     10  C   UNL     1      48.123   4.053  18.317  0.00  0.00    +0.000 A 
ATOM     11  C   UNL     1      49.290   4.725  18.647  0.00  0.00    +0.000 A 
ATOM     12  C   UNL     1      49.863   5.591  17.722  0.00  0.00    +0.000 A 
ATOM     13  C   UNL     1      49.268   5.796  16.466  0.00  0.00    +0.000 A 
ATOM     14 CL   UNL     1      50.027   7.018  15.494  0.00  0.00    +0.000 Cl
ENDBRANCH   6   8
ENDBRANCH   1   2
BRANCH   1  15
ATOM     15  C   UNL     1      43.889   3.670  11.808  0.00  0.00    +0.000 C 
BRANCH  15  16
ATOM     16  O   UNL     1      43.599   2.948  10.606  0.00  0.00    +0.000 OA
BRANCH  16  21
ATOM     17  C   UNL     1      46.199   2.245   8.055  0.00  0.00    +0.000 A 
ATOM     18  C   UNL     1      46.307   3.540   7.566  0.00  0.00    +0.000 A 
ATOM     19  N   UNL     1      45.556   4.572   8.019  0.00  0.00    +0.000 NA
ATOM     20  C   UNL     1      44.681   4.290   9.019  0.00  0.00    +0.000 A 
ATOM     21  C   UNL     1      44.517   3.034   9.595  0.00  0.00    +0.000 A 
ATOM     22  C   UNL     1      45.298   1.994   9.099  0.00  0.00    +0.000 A 
BRANCH  17  24
ATOM     23  N   UNL     1      48.111   1.592   6.703  0.00  0.00    +0.000 N 
ATOM     24  C   UNL     1      47.050   1.190   7.470  0.00  0.00    +0.000 C 
ATOM     25  O   UNL     1      46.849   0.004   7.698  0.00  0.00    +0.000 OA
ATOM     26  H   UNL     1      48.747   0.865   6.405  0.00  0.00    +0.000 HD
ATOM     27  H   UNL     1      48.458   2.539   6.706  0.00  0.00    +0.000 HD
ENDBRANCH  17  24
ENDBRANCH  16  21
ENDBRANCH  15  16
ENDBRANCH   1  15
TORSDOF 6
ENDMDL
MODEL 5
REMARK VINA RESULT:    -7.038      3.867      7.537
REMARK INTER + INTRA:         -10.433
REMARK INTER:                  -9.448
REMARK INTRA:                  -0.986
REMARK UNBOUND:                -0.927
REMARK  Name = 
REMARK  6 active torsions:
REMARK  status: ('A' for Active; 'I' for Inactive)
REMARK    1  A    between atoms: C_2  and  C_4
REMARK    2  A    between atoms: C_8  and  O_9
REMARK    3  A    between atoms: O_9  and  C_10
REMARK    4  A    between atoms: C_10  and  C_11
REMARK    5  A    between atoms: C_11  and  C_12
REMARK    6  A    between atoms: C_16  and  C_17
REMARK                            x       y       z     vdW  Elec       q    Type
REMARK                         _______ _______ _______ _____ _____    ______ ____
ROOT
ATOM      1  C   UNL     1      48.756   8.105  12.562  0.00  0.00    +0.000 C 
ENDROOT
BRANCH   1   2
ATOM      2  C   UNL     1      47.349   7.858  12.096  0.00  0.00    +0.000 A 
ATOM      3  C   UNL     1      46.321   8.740  12.389  0.00  0.00    +0.000 A 
ATOM      4  N   UNL     1      45.031   8.509  12.079  0.00  0.00    +0.000 NA
ATOM      5  C   UNL     1      44.751   7.331  11.464  0.00  0.00    +0.000 A 
ATOM      6  C   UNL     1      45.687   6.357  11.099  0.00  0.00    +0.000 A 
ATOM      7  C   UNL     1      47.017   6.682  11.409  0.00  0.00    +0.000 A 
BRANCH   6   8
ATOM      8  C   UNL     1      45.293   5.094  10.415  0.00  0.00    +0.000 A 
ATOM      9  C   UNL     1      45.593   4.935   9.040  0.00  0.00    +0.000 A 
ATOM     10  C   UNL     1      45.260   3.776   8.329  0.00  0.00    +0.000 A 
ATOM     11  C   UNL     1      44.641   2.717   8.977  0.00  0.00    +0.000 A 
ATOM     12  C   UNL     1      44.326   2.834  10.326  0.00  0.00    +0.000 A 
ATOM     13  C   UNL     1      44.621   4.011  11.033  0.00  0.00    +0.000 A 
ATOM     14 CL   UNL     1      44.028   4.047  12.665  0.00  0.00    +0.000 Cl
ENDBRANCH   6   8
ENDBRANCH   1   2
BRANCH   1  15
ATOM     15  C   UNL     1      49.203   7.045  13.572  0.00  0.00    +0.000 C 
BRANCH  15  16
ATOM     16  O   UNL     1      48.304   7.067  14.686  0.00  0.00    +0.000 OA
BRANCH  16  21
ATOM     17  C   UNL     1      48.486   4.307  17.159  0.00  0.00    +0.000 A 
ATOM     18  C   UNL     1      47.634   3.434  16.496  0.00  0.00    +0.000 A 
ATOM     19  N   UNL     1      47.014   3.739  15.331  0.00  0.00    +0.000 NA
ATOM     20  C   UNL     1      47.284   4.961  14.805  0.00  0.00    +0.000 A 
ATOM     21  C   UNL     1      48.142   5.896  15.374  0.00  0.00    +0.000 A 
ATOM     22  C   UNL     1      48.755   5.554  16.577  0.00  0.00    +0.000 A 
BRANCH  17  24
ATOM     23  N   UNL     1      48.336   3.074  19.249  0.00  0.00    +0.000 N 
ATOM     24  C   UNL     1      49.089   3.882  18.438  0.00  0.00    +0.000 C 
ATOM     25  O   UNL     1      50.232   4.195  18.743  0.00  0.00    +0.000 OA
ATOM     26  H   UNL     1      48.803   2.701  20.064  0.00  0.00    +0.000 HD
ATOM     27  H   UNL     1      47.512   2.591  18.924  0.00  0.00    +0.000 HD
ENDBRANCH  17  24
ENDBRANCH  16  21
ENDBRANCH  15  16
ENDBRANCH   1  15
TORSDOF 6
ENDMDL
MODEL 6
REMARK VINA RESULT:    -6.760      3.863      7.311
REMARK INTER + INTRA:         -10.059
REMARK INTER:                  -8.998
REMARK INTRA:                  -1.060
REMARK UNBOUND:                -0.927
REMARK  Name = 
REMARK  6 active torsions:
REMARK  status: ('A' for Active; 'I' for Inactive)
REMARK    1  A    between atoms: C_2  and  C_4
REMARK    2  A    between atoms: C_8  and  O_9
REMARK    3  A    between atoms: O_9  and  C_10
REMARK    4  A    between atoms: C_10  and  C_11
REMARK    5  A    between atoms: C_11  and  C_12
REMARK    6  A    between atoms: C_16  and  C_17
REMARK                            x       y       z     vdW  Elec       q    Type
REMARK                         _______ _______ _______ _____ _____    ______ ____
ROOT
ATOM      1  C   UNL     1      49.110   8.413  12.133  0.00  0.00    +0.000 C 
ENDROOT
BRANCH   1   2
ATOM      2  C   UNL     1      47.644   8.088  12.077  0.00  0.00    +0.000 A 
ATOM      3  C   UNL     1      46.705   8.852  12.753  0.00  0.00    +0.000 A 
ATOM      4  N   UNL     1      45.396   8.539  12.813  0.00  0.00    +0.000 NA
ATOM      5  C   UNL     1      45.009   7.400  12.183  0.00  0.00    +0.000 A 
ATOM      6  C   UNL     1      45.844   6.544  11.457  0.00  0.00    +0.000 A 
ATOM      7  C   UNL     1      47.186   6.952  11.395  0.00  0.00    +0.000 A 
BRANCH   6   8
ATOM      8  C   UNL     1      45.333   5.316  10.786  0.00  0.00    +0.000 A 
ATOM      9  C   UNL     1      45.572   5.139   9.402  0.00  0.00    +0.000 A 
ATOM     10  C   UNL     1      45.129   4.010   8.703  0.00  0.00    +0.000 A 
ATOM     11  C   UNL     1      44.454   2.999   9.371  0.00  0.00    +0.000 A 
ATOM     12  C   UNL     1      44.197   3.135  10.731  0.00  0.00    +0.000 A 
ATOM     13  C   UNL     1      44.604   4.284  11.428  0.00  0.00    +0.000 A 
ATOM     14 CL   UNL     1      44.073   4.360  13.079  0.00  0.00    +0.000 Cl
ENDBRANCH   6   8
ENDBRANCH   1   2
BRANCH   1  15
ATOM     15  C   UNL     1      49.825   7.577  13.197  0.00  0.00    +0.000 C 
BRANCH  15  16
ATOM     16  O   UNL     1      49.459   8.071  14.490  0.00  0.00    +0.000 OA
BRANCH  16  21
ATOM     17  C   UNL     1      47.983   5.147  16.232  0.00  0.00    +0.000 A 
ATOM     18  C   UNL     1      48.392   5.492  17.513  0.00  0.00    +0.000 A 
ATOM     19  N   UNL     1      49.131   6.594  17.787  0.00  0.00    +0.000 NA
ATOM     20  C   UNL     1      49.447   7.388  16.731  0.00  0.00    +0.000 A 
ATOM     21  C   UNL     1      49.062   7.146  15.417  0.00  0.00    +0.000 A 
ATOM     22  C   UNL     1      48.312   5.999  15.169  0.00  0.00    +0.000 A 
BRANCH  17  24
ATOM     23  N   UNL     1      47.092   3.424  14.767  0.00  0.00    +0.000 N 
ATOM     24  C   UNL     1      47.202   3.908  16.044  0.00  0.00    +0.000 C 
ATOM     25  O   UNL     1      46.712   3.308  16.991  0.00  0.00    +0.000 OA
ATOM     26  H   UNL     1      46.653   2.518  14.669  0.00  0.00    +0.000 HD
ATOM     27  H   UNL     1      47.685   3.735  14.013  0.00  0.00    +0.000 HD
ENDBRANCH  17  24
ENDBRANCH  16  21
ENDBRANCH  15  16
ENDBRANCH   1  15
TORSDOF 6
ENDMDL
MODEL 7
REMARK VINA RESULT:    -6.512      4.150      7.729
REMARK INTER + INTRA:          -9.723
REMARK INTER:                  -8.788
REMARK INTRA:                  -0.936
REMARK UNBOUND:                -0.927
REMARK  Name = 
REMARK  6 active torsions:
REMARK  status: ('A' for Active; 'I' for Inactive)
REMARK    1  A    between atoms: C_2  and  C_4
REMARK    2  A    between atoms: C_8  and  O_9
REMARK    3  A    between atoms: O_9  and  C_10
REMARK    4  A    between atoms: C_10  and  C_11
REMARK    5  A    between atoms: C_11  and  C_12
REMARK    6  A    between atoms: C_16  and  C_17
REMARK                            x       y       z     vdW  Elec       q    Type
REMARK                         _______ _______ _______ _____ _____    ______ ____
ROOT
ATOM      1  C   UNL     1      49.145   7.067  14.393  0.00  0.00    +0.000 C 
ENDROOT
BRANCH   1   2
ATOM      2  C   UNL     1      47.836   7.245  13.679  0.00  0.00    +0.000 A 
ATOM      3  C   UNL     1      47.219   8.484  13.591  0.00  0.00    +0.000 A 
ATOM      4  N   UNL     1      46.000   8.671  13.049  0.00  0.00    +0.000 NA
ATOM      5  C   UNL     1      45.357   7.566  12.591  0.00  0.00    +0.000 A 
ATOM      6  C   UNL     1      45.864   6.262  12.606  0.00  0.00    +0.000 A 
ATOM      7  C   UNL     1      47.156   6.144  13.140  0.00  0.00    +0.000 A 
BRANCH   6   8
ATOM      8  C   UNL     1      45.093   5.105  12.071  0.00  0.00    +0.000 A 
ATOM      9  C   UNL     1      44.380   4.278  12.972  0.00  0.00    +0.000 A 
ATOM     10  C   UNL     1      43.629   3.177  12.546  0.00  0.00    +0.000 A 
ATOM     11  C   UNL     1      43.536   2.880  11.194  0.00  0.00    +0.000 A 
ATOM     12  C   UNL     1      44.223   3.666  10.275  0.00  0.00    +0.000 A 
ATOM     13  C   UNL     1      45.011   4.747  10.702  0.00  0.00    +0.000 A 
ATOM     14 CL   UNL     1      45.918   5.528   9.444  0.00  0.00    +0.000 Cl
ENDBRANCH   6   8
ENDBRANCH   1   2
BRANCH   1  15
ATOM     15  C   UNL     1      49.092   7.648  15.809  0.00  0.00    +0.000 C 
BRANCH  15  16
ATOM     16  O   UNL     1      48.493   6.681  16.678  0.00  0.00    +0.000 OA
BRANCH  16  21
ATOM     17  C   UNL     1      50.178   3.439  17.321  0.00  0.00    +0.000 A 
ATOM     18  C   UNL     1      51.048   3.896  18.301  0.00  0.00    +0.000 A 
ATOM     19  N   UNL     1      51.104   5.187  18.704  0.00  0.00    +0.000 NA
ATOM     20  C   UNL     1      50.232   6.044  18.113  0.00  0.00    +0.000 A 
ATOM     21  C   UNL     1      49.303   5.681  17.143  0.00  0.00    +0.000 A 
ATOM     22  C   UNL     1      49.279   4.348  16.744  0.00  0.00    +0.000 A 
BRANCH  17  24
ATOM     23  N   UNL     1      51.035   1.191  17.670  0.00  0.00    +0.000 N 
ATOM     24  C   UNL     1      50.220   2.013  16.939  0.00  0.00    +0.000 C 
ATOM     25  O   UNL     1      49.519   1.570  16.038  0.00  0.00    +0.000 OA
ATOM     26  H   UNL     1      50.967   0.202  17.471  0.00  0.00    +0.000 HD
ATOM     27  H   UNL     1      51.419   1.458  18.564  0.00  0.00    +0.000 HD
ENDBRANCH  17  24
ENDBRANCH  16  21
ENDBRANCH  15  16
ENDBRANCH   1  15
TORSDOF 6
ENDMDL
MODEL 8
REMARK VINA RESULT:    -6.466      3.684      5.455
REMARK INTER + INTRA:          -9.661
REMARK INTER:                  -8.874
REMARK INTRA:                  -0.786
REMARK UNBOUND:                -0.927
REMARK  Name = 
REMARK  6 active torsions:
REMARK  status: ('A' for Active; 'I' for Inactive)
REMARK    1  A    between atoms: C_2  and  C_4
REMARK    2  A    between atoms: C_8  and  O_9
REMARK    3  A    between atoms: O_9  and  C_10
REMARK    4  A    between atoms: C_10  and  C_11
REMARK    5  A    between atoms: C_11  and  C_12
REMARK    6  A    between atoms: C_16  and  C_17
REMARK                            x       y       z     vdW  Elec       q    Type
REMARK                         _______ _______ _______ _____ _____    ______ ____
ROOT
ATOM      1  C   UNL     1      47.373   6.988  12.947  0.00  0.00    +0.000 C 
ENDROOT
BRANCH   1   2
ATOM      2  C   UNL     1      47.505   5.870  13.942  0.00  0.00    +0.000 A 
ATOM      3  C   UNL     1      46.992   4.607  13.688  0.00  0.00    +0.000 A 
ATOM      4  N   UNL     1      46.999   3.606  14.589  0.00  0.00    +0.000 NA
ATOM      5  C   UNL     1      47.526   3.884  15.809  0.00  0.00    +0.000 A 
ATOM      6  C   UNL     1      48.087   5.106  16.197  0.00  0.00    +0.000 A 
ATOM      7  C   UNL     1      48.090   6.091  15.196  0.00  0.00    +0.000 A 
BRANCH   6   8
ATOM      8  C   UNL     1      48.656   5.322  17.557  0.00  0.00    +0.000 A 
ATOM      9  C   UNL     1      48.274   6.475  18.286  0.00  0.00    +0.000 A 
ATOM     10  C   UNL     1      48.760   6.745  19.570  0.00  0.00    +0.000 A 
ATOM     11  C   UNL     1      49.624   5.853  20.188  0.00  0.00    +0.000 A 
ATOM     12  C   UNL     1      50.026   4.710  19.506  0.00  0.00    +0.000 A 
ATOM     13  C   UNL     1      49.573   4.456  18.201  0.00  0.00    +0.000 A 
ATOM     14 CL   UNL     1      50.287   3.067  17.441  0.00  0.00    +0.000 Cl
ENDBRANCH   6   8
ENDBRANCH   1   2
BRANCH   1  15
ATOM     15  C   UNL     1      45.942   7.532  12.907  0.00  0.00    +0.000 C 
BRANCH  15  16
ATOM     16  O   UNL     1      45.418   7.343  11.589  0.00  0.00    +0.000 OA
BRANCH  16  21
ATOM     17  C   UNL     1      44.360   4.086  10.162  0.00  0.00    +0.000 A 
ATOM     18  C   UNL     1      43.338   3.833  11.066  0.00  0.00    +0.000 A 
ATOM     19  N   UNL     1      43.033   4.658  12.096  0.00  0.00    +0.000 NA
ATOM     20  C   UNL     1      43.773   5.792  12.202  0.00  0.00    +0.000 A 
ATOM     21  C   UNL     1      44.798   6.151  11.333  0.00  0.00    +0.000 A 
ATOM     22  C   UNL     1      45.092   5.275  10.291  0.00  0.00    +0.000 A 
BRANCH  17  24
ATOM     23  N   UNL     1      44.686   1.785   9.450  0.00  0.00    +0.000 N 
ATOM     24  C   UNL     1      44.623   3.105   9.090  0.00  0.00    +0.000 C 
ATOM     25  O   UNL     1      44.733   3.448   7.920  0.00  0.00    +0.000 OA
ATOM     26  H   UNL     1      44.754   1.119   8.692  0.00  0.00    +0.000 HD
ATOM     27  H   UNL     1      44.349   1.445  10.338  0.00  0.00    +0.000 HD
ENDBRANCH  17  24
ENDBRANCH  16  21
ENDBRANCH  15  16
ENDBRANCH   1  15
TORSDOF 6
ENDMDL
MODEL 9
REMARK VINA RESULT:    -6.365      4.165      6.956
REMARK INTER + INTRA:          -9.524
REMARK INTER:                  -8.152
REMARK INTRA:                  -1.372
REMARK UNBOUND:                -0.927
REMARK  Name = 
REMARK  6 active torsions:
REMARK  status: ('A' for Active; 'I' for Inactive)
REMARK    1  A    between atoms: C_2  and  C_4
REMARK    2  A    between atoms: C_8  and  O_9
REMARK    3  A    between atoms: O_9  and  C_10
REMARK    4  A    between atoms: C_10  and  C_11
REMARK    5  A    between atoms: C_11  and  C_12
REMARK    6  A    between atoms: C_16  and  C_17
REMARK                            x       y       z     vdW  Elec       q    Type
REMARK                         _______ _______ _______ _____ _____    ______ ____
ROOT
ATOM      1  C   UNL     1      48.720   9.090  14.679  0.00  0.00    +0.000 C 
ENDROOT
BRANCH   1   2
ATOM      2  C   UNL     1      48.682   8.303  15.958  0.00  0.00    +0.000 A 
ATOM      3  C   UNL     1      48.336   8.893  17.164  0.00  0.00    +0.000 A 
ATOM      4  N   UNL     1      48.385   8.252  18.347  0.00  0.00    +0.000 NA
ATOM      5  C   UNL     1      48.820   6.965  18.329  0.00  0.00    +0.000 A 
ATOM      6  C   UNL     1      49.188   6.244  17.187  0.00  0.00    +0.000 A 
ATOM      7  C   UNL     1      49.069   6.956  15.983  0.00  0.00    +0.000 A 
BRANCH   6   8
ATOM      8  C   UNL     1      49.644   4.827  17.257  0.00  0.00    +0.000 A 
ATOM      9  C   UNL     1      48.704   3.792  17.038  0.00  0.00    +0.000 A 
ATOM     10  C   UNL     1      49.057   2.437  17.081  0.00  0.00    +0.000 A 
ATOM     11  C   UNL     1      50.373   2.069  17.314  0.00  0.00    +0.000 A 
ATOM     12  C   UNL     1      51.328   3.056  17.536  0.00  0.00    +0.000 A 
ATOM     13  C   UNL     1      50.971   4.414  17.535  0.00  0.00    +0.000 A 
ATOM     14 CL   UNL     1      52.249   5.503  17.977  0.00  0.00    +0.000 Cl
ENDBRANCH   6   8
ENDBRANCH   1   2
BRANCH   1  15
ATOM     15  C   UNL     1      49.172   8.220  13.503  0.00  0.00    +0.000 C 
BRANCH  15  16
ATOM     16  O   UNL     1      48.130   8.200  12.521  0.00  0.00    +0.000 OA
BRANCH  16  21
ATOM     17  C   UNL     1      46.236   5.051  13.034  0.00  0.00    +0.000 A 
ATOM     18  C   UNL     1      44.967   5.598  12.906  0.00  0.00    +0.000 A 
ATOM     19  N   UNL     1      44.742   6.918  12.697  0.00  0.00    +0.000 NA
ATOM     20  C   UNL     1      45.840   7.709  12.589  0.00  0.00    +0.000 A 
ATOM     21  C   UNL     1      47.153   7.255  12.675  0.00  0.00    +0.000 A 
ATOM     22  C   UNL     1      47.348   5.895  12.900  0.00  0.00    +0.000 A 
BRANCH  17  24
ATOM     23  N   UNL     1      45.479   2.773  12.652  0.00  0.00    +0.000 N 
ATOM     24  C   UNL     1      46.366   3.602  13.286  0.00  0.00    +0.000 C 
ATOM     25  O   UNL     1      47.258   3.152  13.993  0.00  0.00    +0.000 OA
ATOM     26  H   UNL     1      45.651   1.781  12.745  0.00  0.00    +0.000 HD
ATOM     27  H   UNL     1      44.910   3.075  11.876  0.00  0.00    +0.000 HD
ENDBRANCH  17  24
ENDBRANCH  16  21
ENDBRANCH  15  16
ENDBRANCH   1  15
TORSDOF 6
ENDMDL
