MODEL 1
REMARK VINA RESULT:    -7.523      0.000      0.000
REMARK INTER + INTRA:         -11.919
REMARK INTER:                 -10.822
REMARK INTRA:                  -1.097
REMARK UNBOUND:                -1.097
REMARK  Name = 
REMARK  9 active torsions:
REMARK  status: ('A' for Active; 'I' for Inactive)
REMARK    1  A    between atoms: C_1  and  O_2
REMARK    2  A    between atoms: O_2  and  C_3
REMARK    3  A    between atoms: C_5  and  O_6
REMARK    4  A    between atoms: O_6  and  C_7
REMARK    5  A    between atoms: C_7  and  C_8
REMARK    6  A    between atoms: C_8  and  C_9
REMARK    7  A    between atoms: C_13  and  C_14
REMARK    8  A    between atoms: C_14  and  N_15
REMARK    9  A    between atoms: C_19  and  C_20
REMARK                            x       y       z     vdW  Elec       q    Type
REMARK                         _______ _______ _______ _____ _____    ______ ____
ROOT
ATOM      1  C   UNL     1      45.619   6.622  12.932  0.00  0.00    +0.000 A 
ATOM      2  C   UNL     1      44.540   5.770  12.655  0.00  0.00    +0.000 A 
ATOM      3  C   UNL     1      44.658   4.423  12.963  0.00  0.00    +0.000 A 
ATOM      4  N   UNL     1      45.760   3.884  13.514  0.00  0.00    +0.000 NA
ATOM      5  C   UNL     1      46.797   4.719  13.761  0.00  0.00    +0.000 A 
ATOM      6  C   UNL     1      46.789   6.082  13.487  0.00  0.00    +0.000 A 
ENDROOT
BRANCH   6   7
ATOM      7  C   UNL     1      48.027   6.831  13.830  0.00  0.00    +0.000 C 
ATOM      8  N   UNL     1      47.930   7.901  14.668  0.00  0.00    +0.000 N 
ATOM      9  O   UNL     1      49.119   6.505  13.374  0.00  0.00    +0.000 OA
ATOM     10  H   UNL     1      47.034   8.223  15.016  0.00  0.00    +0.000 HD
ATOM     11  H   UNL     1      48.765   8.432  14.874  0.00  0.00    +0.000 HD
ENDBRANCH   6   7
BRANCH   1  13
ATOM     12  C   UNL     1      44.803   8.357  11.520  0.00  0.00    +0.000 C 
ATOM     13  O   UNL     1      45.602   7.963  12.633  0.00  0.00    +0.000 OA
ENDBRANCH   1  13
BRANCH   3  14
ATOM     14  O   UNL     1      43.577   3.610  12.669  0.00  0.00    +0.000 OA
BRANCH  14  15
ATOM     15  C   UNL     1      43.275   3.605  11.265  0.00  0.00    +0.000 C 
BRANCH  15  16
ATOM     16  C   UNL     1      43.934   2.398  10.598  0.00  0.00    +0.000 C 
BRANCH  16  17
ATOM     17  C   UNL     1      44.820   2.825   9.452  0.00  0.00    +0.000 A 
ATOM     18  C   UNL     1      44.978   4.180   9.142  0.00  0.00    +0.000 A 
ATOM     19  C   UNL     1      45.842   4.575   8.120  0.00  0.00    +0.000 A 
ATOM     20  C   UNL     1      46.576   3.621   7.413  0.00  0.00    +0.000 A 
ATOM     21  C   UNL     1      46.455   2.261   7.722  0.00  0.00    +0.000 A 
ATOM     22  C   UNL     1      45.559   1.873   8.732  0.00  0.00    +0.000 A 
BRANCH  21  23
ATOM     23  C   UNL     1      47.274   1.226   6.991  0.00  0.00    +0.000 C 
BRANCH  23  24
ATOM     24  N   UNL     1      48.462   1.818   6.383  0.00  0.00    +0.000 NA
ATOM     25  H   UNL     1      48.475   1.575   5.391  0.00  0.00    +0.000 HD
ATOM     26  H   UNL     1      49.294   1.406   6.795  0.00  0.00    +0.000 HD
ENDBRANCH  23  24
ENDBRANCH  21  23
ENDBRANCH  16  17
ENDBRANCH  15  16
ENDBRANCH  14  15
ENDBRANCH   3  14
TORSDOF 8
ENDMDL
MODEL 2
REMARK VINA RESULT:    -7.189      1.309      2.132
REMARK INTER + INTRA:         -11.438
REMARK INTER:                 -10.426
REMARK INTRA:                  -1.012
REMARK UNBOUND:                -1.097
REMARK  Name = 
REMARK  9 active torsions:
REMARK  status: ('A' for Active; 'I' for Inactive)
REMARK    1  A    between atoms: C_1  and  O_2
REMARK    2  A    between atoms: O_2  and  C_3
REMARK    3  A    between atoms: C_5  and  O_6
REMARK    4  A    between atoms: O_6  and  C_7
REMARK    5  A    between atoms: C_7  and  C_8
REMARK    6  A    between atoms: C_8  and  C_9
REMARK    7  A    between atoms: C_13  and  C_14
REMARK    8  A    between atoms: C_14  and  N_15
REMARK    9  A    between atoms: C_19  and  C_20
REMARK                            x       y       z     vdW  Elec       q    Type
REMARK                         _______ _______ _______ _____ _____    ______ ____
ROOT
ATOM      1  C   UNL     1      46.681   5.187  13.694  0.00  0.00    +0.000 A 
ATOM      2  C   UNL     1      45.454   4.551  13.454  0.00  0.00    +0.000 A 
ATOM      3  C   UNL     1      44.480   5.230  12.737  0.00  0.00    +0.000 A 
ATOM      4  N   UNL     1      44.648   6.476  12.258  0.00  0.00    +0.000 NA
ATOM      5  C   UNL     1      45.833   7.079  12.512  0.00  0.00    +0.000 A 
ATOM      6  C   UNL     1      46.874   6.495  13.224  0.00  0.00    +0.000 A 
ENDROOT
BRANCH   6   7
ATOM      7  C   UNL     1      48.098   7.321  13.399  0.00  0.00    +0.000 C 
ATOM      8  N   UNL     1      49.285   6.831  12.942  0.00  0.00    +0.000 N 
ATOM      9  O   UNL     1      48.056   8.420  13.944  0.00  0.00    +0.000 OA
ATOM     10  H   UNL     1      49.356   5.905  12.536  0.00  0.00    +0.000 HD
ATOM     11  H   UNL     1      50.123   7.376  13.091  0.00  0.00    +0.000 HD
ENDBRANCH   6   7
BRANCH   1  13
ATOM     12  C   UNL     1      47.415   4.336  15.793  0.00  0.00    +0.000 C 
ATOM     13  O   UNL     1      47.690   4.603  14.420  0.00  0.00    +0.000 OA
ENDBRANCH   1  13
BRANCH   3  14
ATOM     14  O   UNL     1      43.279   4.575  12.524  0.00  0.00    +0.000 OA
BRANCH  14  15
ATOM     15  C   UNL     1      43.104   4.212  11.146  0.00  0.00    +0.000 C 
BRANCH  15  16
ATOM     16  C   UNL     1      43.884   2.931  10.846  0.00  0.00    +0.000 C 
BRANCH  16  17
ATOM     17  C   UNL     1      44.755   3.098   9.623  0.00  0.00    +0.000 A 
ATOM     18  C   UNL     1      45.037   4.372   9.120  0.00  0.00    +0.000 A 
ATOM     19  C   UNL     1      45.888   4.527   8.025  0.00  0.00    +0.000 A 
ATOM     20  C   UNL     1      46.487   3.411   7.436  0.00  0.00    +0.000 A 
ATOM     21  C   UNL     1      46.240   2.128   7.939  0.00  0.00    +0.000 A 
ATOM     22  C   UNL     1      45.357   1.982   9.022  0.00  0.00    +0.000 A 
BRANCH  21  23
ATOM     23  C   UNL     1      46.914   0.920   7.336  0.00  0.00    +0.000 C 
BRANCH  23  24
ATOM     24  N   UNL     1      48.049   1.302   6.502  0.00  0.00    +0.000 NA
ATOM     25  H   UNL     1      47.915   0.909   5.570  0.00  0.00    +0.000 HD
ATOM     26  H   UNL     1      48.898   0.885   6.875  0.00  0.00    +0.000 HD
ENDBRANCH  23  24
ENDBRANCH  21  23
ENDBRANCH  16  17
ENDBRANCH  15  16
ENDBRANCH  14  15
ENDBRANCH   3  14
TORSDOF 8
ENDMDL
MODEL 3
REMARK VINA RESULT:    -6.940      2.843      6.819
REMARK INTER + INTRA:         -11.080
REMARK INTER:                 -10.212
REMARK INTRA:                  -0.868
REMARK UNBOUND:                -1.097
REMARK  Name = 
REMARK  9 active torsions:
REMARK  status: ('A' for Active; 'I' for Inactive)
REMARK    1  A    between atoms: C_1  and  O_2
REMARK    2  A    between atoms: O_2  and  C_3
REMARK    3  A    between atoms: C_5  and  O_6
REMARK    4  A    between atoms: O_6  and  C_7
REMARK    5  A    between atoms: C_7  and  C_8
REMARK    6  A    between atoms: C_8  and  C_9
REMARK    7  A    between atoms: C_13  and  C_14
REMARK    8  A    between atoms: C_14  and  N_15
REMARK    9  A    between atoms: C_19  and  C_20
REMARK                            x       y       z     vdW  Elec       q    Type
REMARK                         _______ _______ _______ _____ _____    ______ ____
ROOT
ATOM      1  C   UNL     1      46.330   1.602   8.092  0.00  0.00    +0.000 A 
ATOM      2  C   UNL     1      45.346   1.752   9.081  0.00  0.00    +0.000 A 
ATOM      3  C   UNL     1      44.590   2.914   9.099  0.00  0.00    +0.000 A 
ATOM      4  N   UNL     1      44.750   3.915   8.215  0.00  0.00    +0.000 NA
ATOM      5  C   UNL     1      45.713   3.759   7.276  0.00  0.00    +0.000 A 
ATOM      6  C   UNL     1      46.531   2.641   7.170  0.00  0.00    +0.000 A 
ENDROOT
BRANCH   6   7
ATOM      7  C   UNL     1      47.533   2.658   6.070  0.00  0.00    +0.000 C 
ATOM      8  N   UNL     1      48.843   2.451   6.381  0.00  0.00    +0.000 N 
ATOM      9  O   UNL     1      47.201   2.856   4.905  0.00  0.00    +0.000 OA
ATOM     10  H   UNL     1      49.151   2.337   7.340  0.00  0.00    +0.000 HD
ATOM     11  H   UNL     1      49.530   2.496   5.640  0.00  0.00    +0.000 HD
ENDBRANCH   6   7
BRANCH   1  13
ATOM     12  C   UNL     1      46.577  -0.676   7.445  0.00  0.00    +0.000 C 
ATOM     13  O   UNL     1      47.146   0.500   8.016  0.00  0.00    +0.000 OA
ENDBRANCH   1  13
BRANCH   3  14
ATOM     14  O   UNL     1      43.634   3.030  10.093  0.00  0.00    +0.000 OA
BRANCH  14  15
ATOM     15  C   UNL     1      44.217   3.373  11.360  0.00  0.00    +0.000 C 
BRANCH  15  16
ATOM     16  C   UNL     1      44.277   4.893  11.508  0.00  0.00    +0.000 C 
BRANCH  16  17
ATOM     17  C   UNL     1      45.557   5.325  12.184  0.00  0.00    +0.000 A 
ATOM     18  C   UNL     1      46.317   6.377  11.662  0.00  0.00    +0.000 A 
ATOM     19  C   UNL     1      47.469   6.811  12.319  0.00  0.00    +0.000 A 
ATOM     20  C   UNL     1      47.861   6.215  13.519  0.00  0.00    +0.000 A 
ATOM     21  C   UNL     1      47.103   5.177  14.075  0.00  0.00    +0.000 A 
ATOM     22  C   UNL     1      45.962   4.728  13.388  0.00  0.00    +0.000 A 
BRANCH  21  23
ATOM     23  C   UNL     1      47.494   4.554  15.392  0.00  0.00    +0.000 C 
BRANCH  23  24
ATOM     24  N   UNL     1      47.648   3.107  15.272  0.00  0.00    +0.000 NA
ATOM     25  H   UNL     1      48.161   2.904  14.414  0.00  0.00    +0.000 HD
ATOM     26  H   UNL     1      46.732   2.677  15.173  0.00  0.00    +0.000 HD
ENDBRANCH  23  24
ENDBRANCH  21  23
ENDBRANCH  16  17
ENDBRANCH  15  16
ENDBRANCH  14  15
ENDBRANCH   3  14
TORSDOF 8
ENDMDL
MODEL 4
REMARK VINA RESULT:    -6.735      4.234      7.408
REMARK INTER + INTRA:         -10.785
REMARK INTER:                 -10.034
REMARK INTRA:                  -0.751
REMARK UNBOUND:                -1.097
REMARK  Name = 
REMARK  9 active torsions:
REMARK  status: ('A' for Active; 'I' for Inactive)
REMARK    1  A    between atoms: C_1  and  O_2
REMARK    2  A    between atoms: O_2  and  C_3
REMARK    3  A    between atoms: C_5  and  O_6
REMARK    4  A    between atoms: O_6  and  C_7
REMARK    5  A    between atoms: C_7  and  C_8
REMARK    6  A    between atoms: C_8  and  C_9
REMARK    7  A    between atoms: C_13  and  C_14
REMARK    8  A    between atoms: C_14  and  N_15
REMARK    9  A    between atoms: C_19  and  C_20
REMARK                            x       y       z     vdW  Elec       q    Type
REMARK                         _______ _______ _______ _____ _____    ______ ____
ROOT
ATOM      1  C   UNL     1      45.301   5.830  12.813  0.00  0.00    +0.000 A 
ATOM      2  C   UNL     1      46.289   5.304  13.659  0.00  0.00    +0.000 A 
ATOM      3  C   UNL     1      46.488   3.932  13.679  0.00  0.00    +0.000 A 
ATOM      4  N   UNL     1      45.781   3.071  12.927  0.00  0.00    +0.000 NA
ATOM      5  C   UNL     1      44.823   3.595  12.126  0.00  0.00    +0.000 A 
ATOM      6  C   UNL     1      44.534   4.951  12.033  0.00  0.00    +0.000 A 
ENDROOT
BRANCH   6   7
ATOM      7  C   UNL     1      43.442   5.331  11.096  0.00  0.00    +0.000 C 
ATOM      8  N   UNL     1      42.471   6.177  11.539  0.00  0.00    +0.000 N 
ATOM      9  O   UNL     1      43.404   4.898   9.948  0.00  0.00    +0.000 OA
ATOM     10  H   UNL     1      42.450   6.507  12.497  0.00  0.00    +0.000 HD
ATOM     11  H   UNL     1      41.710   6.409  10.915  0.00  0.00    +0.000 HD
ENDBRANCH   6   7
BRANCH   1  13
ATOM     12  C   UNL     1      46.007   8.009  12.164  0.00  0.00    +0.000 C 
ATOM     13  O   UNL     1      45.014   7.172  12.750  0.00  0.00    +0.000 OA
ENDBRANCH   1  13
BRANCH   3  14
ATOM     14  O   UNL     1      47.466   3.448  14.531  0.00  0.00    +0.000 OA
BRANCH  14  15
ATOM     15  C   UNL     1      47.338   3.988  15.856  0.00  0.00    +0.000 C 
BRANCH  15  16
ATOM     16  C   UNL     1      47.879   2.988  16.877  0.00  0.00    +0.000 C 
BRANCH  16  17
ATOM     17  C   UNL     1      49.344   3.232  17.156  0.00  0.00    +0.000 A 
ATOM     18  C   UNL     1      49.816   4.527  17.393  0.00  0.00    +0.000 A 
ATOM     19  C   UNL     1      51.159   4.744  17.706  0.00  0.00    +0.000 A 
ATOM     20  C   UNL     1      52.039   3.665  17.809  0.00  0.00    +0.000 A 
ATOM     21  C   UNL     1      51.585   2.357  17.602  0.00  0.00    +0.000 A 
ATOM     22  C   UNL     1      50.237   2.154  17.257  0.00  0.00    +0.000 A 
BRANCH  21  23
ATOM     23  C   UNL     1      52.518   1.182  17.752  0.00  0.00    +0.000 C 
BRANCH  23  24
ATOM     24  N   UNL     1      51.807  -0.010  18.204  0.00  0.00    +0.000 NA
ATOM     25  H   UNL     1      51.744  -0.667  17.425  0.00  0.00    +0.000 HD
ATOM     26  H   UNL     1      50.854   0.239  18.454  0.00  0.00    +0.000 HD
ENDBRANCH  23  24
ENDBRANCH  21  23
ENDBRANCH  16  17
ENDBRANCH  15  16
ENDBRANCH  14  15
ENDBRANCH   3  14
TORSDOF 8
ENDMDL
MODEL 5
REMARK VINA RESULT:    -6.716      1.655      2.469
REMARK INTER + INTRA:         -10.758
REMARK INTER:                  -9.957
REMARK INTRA:                  -0.801
REMARK UNBOUND:                -1.097
REMARK  Name = 
REMARK  9 active torsions:
REMARK  status: ('A' for Active; 'I' for Inactive)
REMARK    1  A    between atoms: C_1  and  O_2
REMARK    2  A    between atoms: O_2  and  C_3
REMARK    3  A    between atoms: C_5  and  O_6
REMARK    4  A    between atoms: O_6  and  C_7
REMARK    5  A    between atoms: C_7  and  C_8
REMARK    6  A    between atoms: C_8  and  C_9
REMARK    7  A    between atoms: C_13  and  C_14
REMARK    8  A    between atoms: C_14  and  N_15
REMARK    9  A    between atoms: C_19  and  C_20
REMARK                            x       y       z     vdW  Elec       q    Type
REMARK                         _______ _______ _______ _____ _____    ______ ____
ROOT
ATOM      1  C   UNL     1      47.727   6.213  13.313  0.00  0.00    +0.000 A 
ATOM      2  C   UNL     1      47.022   6.310  12.104  0.00  0.00    +0.000 A 
ATOM      3  C   UNL     1      45.881   5.541  11.935  0.00  0.00    +0.000 A 
ATOM      4  N   UNL     1      45.410   4.698  12.871  0.00  0.00    +0.000 NA
ATOM      5  C   UNL     1      46.112   4.607  14.026  0.00  0.00    +0.000 A 
ATOM      6  C   UNL     1      47.270   5.325  14.299  0.00  0.00    +0.000 A 
ENDROOT
BRANCH   6   7
ATOM      7  C   UNL     1      47.897   5.085  15.626  0.00  0.00    +0.000 C 
ATOM      8  N   UNL     1      48.207   6.160  16.403  0.00  0.00    +0.000 N 
ATOM      9  O   UNL     1      48.138   3.948  16.024  0.00  0.00    +0.000 OA
ATOM     10  H   UNL     1      48.067   7.109  16.078  0.00  0.00    +0.000 HD
ATOM     11  H   UNL     1      48.665   6.000  17.291  0.00  0.00    +0.000 HD
ENDBRANCH   6   7
BRANCH   1  13
ATOM     12  C   UNL     1      48.786   8.335  13.524  0.00  0.00    +0.000 C 
ATOM     13  O   UNL     1      48.883   6.913  13.557  0.00  0.00    +0.000 OA
ENDBRANCH   1  13
BRANCH   3  14
ATOM     14  O   UNL     1      45.214   5.657  10.727  0.00  0.00    +0.000 OA
BRANCH  14  15
ATOM     15  C   UNL     1      44.341   4.542  10.488  0.00  0.00    +0.000 C 
BRANCH  15  16
ATOM     16  C   UNL     1      44.141   4.355   8.983  0.00  0.00    +0.000 C 
BRANCH  16  17
ATOM     17  C   UNL     1      45.068   3.294   8.439  0.00  0.00    +0.000 A 
ATOM     18  C   UNL     1      45.096   2.015   9.006  0.00  0.00    +0.000 A 
ATOM     19  C   UNL     1      45.911   1.020   8.465  0.00  0.00    +0.000 A 
ATOM     20  C   UNL     1      46.689   1.285   7.337  0.00  0.00    +0.000 A 
ATOM     21  C   UNL     1      46.659   2.549   6.736  0.00  0.00    +0.000 A 
ATOM     22  C   UNL     1      45.858   3.552   7.308  0.00  0.00    +0.000 A 
BRANCH  21  23
ATOM     23  C   UNL     1      47.464   2.833   5.492  0.00  0.00    +0.000 C 
BRANCH  23  24
ATOM     24  N   UNL     1      48.539   1.861   5.319  0.00  0.00    +0.000 NA
ATOM     25  H   UNL     1      48.183   1.077   4.770  0.00  0.00    +0.000 HD
ATOM     26  H   UNL     1      48.804   1.485   6.225  0.00  0.00    +0.000 HD
ENDBRANCH  23  24
ENDBRANCH  21  23
ENDBRANCH  16  17
ENDBRANCH  15  16
ENDBRANCH  14  15
ENDBRANCH   3  14
TORSDOF 8
ENDMDL
MODEL 6
REMARK VINA RESULT:    -5.957      3.892      7.678
REMARK INTER + INTRA:          -9.666
REMARK INTER:                  -9.130
REMARK INTRA:                  -0.537
REMARK UNBOUND:                -1.097
REMARK  Name = 
REMARK  9 active torsions:
REMARK  status: ('A' for Active; 'I' for Inactive)
REMARK    1  A    between atoms: C_1  and  O_2
REMARK    2  A    between atoms: O_2  and  C_3
REMARK    3  A    between atoms: C_5  and  O_6
REMARK    4  A    between atoms: O_6  and  C_7
REMARK    5  A    between atoms: C_7  and  C_8
REMARK    6  A    between atoms: C_8  and  C_9
REMARK    7  A    between atoms: C_13  and  C_14
REMARK    8  A    between atoms: C_14  and  N_15
REMARK    9  A    between atoms: C_19  and  C_20
REMARK                            x       y       z     vdW  Elec       q    Type
REMARK                         _______ _______ _______ _____ _____    ______ ____
ROOT
ATOM      1  C   UNL     1      45.552   5.683  12.363  0.00  0.00    +0.000 A 
ATOM      2  C   UNL     1      46.474   5.235  13.320  0.00  0.00    +0.000 A 
ATOM      3  C   UNL     1      46.576   3.873  13.561  0.00  0.00    +0.000 A 
ATOM      4  N   UNL     1      45.833   2.951  12.924  0.00  0.00    +0.000 NA
ATOM      5  C   UNL     1      44.939   3.403  12.013  0.00  0.00    +0.000 A 
ATOM      6  C   UNL     1      44.749   4.743  11.698  0.00  0.00    +0.000 A 
ENDROOT
BRANCH   6   7
ATOM      7  C   UNL     1      43.715   5.040  10.670  0.00  0.00    +0.000 C 
ATOM      8  N   UNL     1      43.978   4.719   9.373  0.00  0.00    +0.000 N 
ATOM      9  O   UNL     1      42.646   5.562  10.970  0.00  0.00    +0.000 OA
ATOM     10  H   UNL     1      44.873   4.335   9.091  0.00  0.00    +0.000 HD
ATOM     11  H   UNL     1      43.291   4.951   8.668  0.00  0.00    +0.000 HD
ENDBRANCH   6   7
BRANCH   1  13
ATOM     12  C   UNL     1      46.027   7.946  12.929  0.00  0.00    +0.000 C 
ATOM     13  O   UNL     1      45.360   7.014  12.081  0.00  0.00    +0.000 OA
ENDBRANCH   1  13
BRANCH   3  14
ATOM     14  O   UNL     1      47.491   3.467  14.517  0.00  0.00    +0.000 OA
BRANCH  14  15
ATOM     15  C   UNL     1      47.328   4.181  15.753  0.00  0.00    +0.000 C 
BRANCH  15  16
ATOM     16  C   UNL     1      47.566   3.237  16.931  0.00  0.00    +0.000 C 
BRANCH  16  17
ATOM     17  C   UNL     1      49.038   3.130  17.255  0.00  0.00    +0.000 A 
ATOM     18  C   UNL     1      49.732   1.938  17.021  0.00  0.00    +0.000 A 
ATOM     19  C   UNL     1      51.103   1.859  17.268  0.00  0.00    +0.000 A 
ATOM     20  C   UNL     1      51.801   2.978  17.726  0.00  0.00    +0.000 A 
ATOM     21  C   UNL     1      51.133   4.190  17.942  0.00  0.00    +0.000 A 
ATOM     22  C   UNL     1      49.746   4.248  17.720  0.00  0.00    +0.000 A 
BRANCH  21  23
ATOM     23  C   UNL     1      51.885   5.416  18.398  0.00  0.00    +0.000 C 
BRANCH  23  24
ATOM     24  N   UNL     1      51.125   6.169  19.391  0.00  0.00    +0.000 NA
ATOM     25  H   UNL     1      51.084   5.624  20.253  0.00  0.00    +0.000 HD
ATOM     26  H   UNL     1      50.166   6.279  19.070  0.00  0.00    +0.000 HD
ENDBRANCH  23  24
ENDBRANCH  21  23
ENDBRANCH  16  17
ENDBRANCH  15  16
ENDBRANCH  14  15
ENDBRANCH   3  14
TORSDOF 8
ENDMDL
MODEL 7
REMARK VINA RESULT:    -5.815      3.894      8.162
REMARK INTER + INTRA:          -9.462
REMARK INTER:                  -8.662
REMARK INTRA:                  -0.800
REMARK UNBOUND:                -1.097
REMARK  Name = 
REMARK  9 active torsions:
REMARK  status: ('A' for Active; 'I' for Inactive)
REMARK    1  A    between atoms: C_1  and  O_2
REMARK    2  A    between atoms: O_2  and  C_3
REMARK    3  A    between atoms: C_5  and  O_6
REMARK    4  A    between atoms: O_6  and  C_7
REMARK    5  A    between atoms: C_7  and  C_8
REMARK    6  A    between atoms: C_8  and  C_9
REMARK    7  A    between atoms: C_13  and  C_14
REMARK    8  A    between atoms: C_14  and  N_15
REMARK    9  A    between atoms: C_19  and  C_20
REMARK                            x       y       z     vdW  Elec       q    Type
REMARK                         _______ _______ _______ _____ _____    ______ ____
ROOT
ATOM      1  C   UNL     1      45.386   5.850  12.780  0.00  0.00    +0.000 A 
ATOM      2  C   UNL     1      46.320   5.324  13.685  0.00  0.00    +0.000 A 
ATOM      3  C   UNL     1      46.514   3.952  13.721  0.00  0.00    +0.000 A 
ATOM      4  N   UNL     1      45.850   3.089  12.932  0.00  0.00    +0.000 NA
ATOM      5  C   UNL     1      44.942   3.613  12.075  0.00  0.00    +0.000 A 
ATOM      6  C   UNL     1      44.663   4.970  11.960  0.00  0.00    +0.000 A 
ENDROOT
BRANCH   6   7
ATOM      7  C   UNL     1      43.629   5.349  10.960  0.00  0.00    +0.000 C 
ATOM      8  N   UNL     1      42.837   6.426  11.219  0.00  0.00    +0.000 N 
ATOM      9  O   UNL     1      43.481   4.713   9.920  0.00  0.00    +0.000 OA
ATOM     10  H   UNL     1      42.904   6.937  12.092  0.00  0.00    +0.000 HD
ATOM     11  H   UNL     1      42.112   6.665  10.556  0.00  0.00    +0.000 HD
ENDBRANCH   6   7
BRANCH   1  13
ATOM     12  C   UNL     1      46.213   8.082  12.817  0.00  0.00    +0.000 C 
ATOM     13  O   UNL     1      45.106   7.192  12.697  0.00  0.00    +0.000 OA
ENDBRANCH   1  13
BRANCH   3  14
ATOM     14  O   UNL     1      47.439   3.468  14.631  0.00  0.00    +0.000 OA
BRANCH  14  15
ATOM     15  C   UNL     1      47.121   3.858  15.977  0.00  0.00    +0.000 C 
BRANCH  15  16
ATOM     16  C   UNL     1      48.407   3.988  16.794  0.00  0.00    +0.000 C 
BRANCH  16  17
ATOM     17  C   UNL     1      48.365   5.207  17.685  0.00  0.00    +0.000 A 
ATOM     18  C   UNL     1      48.634   6.477  17.165  0.00  0.00    +0.000 A 
ATOM     19  C   UNL     1      48.539   7.608  17.978  0.00  0.00    +0.000 A 
ATOM     20  C   UNL     1      48.150   7.484  19.313  0.00  0.00    +0.000 A 
ATOM     21  C   UNL     1      47.850   6.226  19.849  0.00  0.00    +0.000 A 
ATOM     22  C   UNL     1      47.979   5.091  19.030  0.00  0.00    +0.000 A 
BRANCH  21  23
ATOM     23  C   UNL     1      47.389   6.085  21.279  0.00  0.00    +0.000 C 
BRANCH  23  24
ATOM     24  N   UNL     1      47.513   4.708  21.746  0.00  0.00    +0.000 NA
ATOM     25  H   UNL     1      46.580   4.349  21.952  0.00  0.00    +0.000 HD
ATOM     26  H   UNL     1      48.030   4.694  22.622  0.00  0.00    +0.000 HD
ENDBRANCH  23  24
ENDBRANCH  21  23
ENDBRANCH  16  17
ENDBRANCH  15  16
ENDBRANCH  14  15
ENDBRANCH   3  14
TORSDOF 8
ENDMDL
MODEL 8
REMARK VINA RESULT:    -5.759      3.272      7.410
REMARK INTER + INTRA:          -9.381
REMARK INTER:                  -8.382
REMARK INTRA:                  -0.999
REMARK UNBOUND:                -1.097
REMARK  Name = 
REMARK  9 active torsions:
REMARK  status: ('A' for Active; 'I' for Inactive)
REMARK    1  A    between atoms: C_1  and  O_2
REMARK    2  A    between atoms: O_2  and  C_3
REMARK    3  A    between atoms: C_5  and  O_6
REMARK    4  A    between atoms: O_6  and  C_7
REMARK    5  A    between atoms: C_7  and  C_8
REMARK    6  A    between atoms: C_8  and  C_9
REMARK    7  A    between atoms: C_13  and  C_14
REMARK    8  A    between atoms: C_14  and  N_15
REMARK    9  A    between atoms: C_19  and  C_20
REMARK                            x       y       z     vdW  Elec       q    Type
REMARK                         _______ _______ _______ _____ _____    ______ ____
ROOT
ATOM      1  C   UNL     1      45.311   5.798  12.828  0.00  0.00    +0.000 A 
ATOM      2  C   UNL     1      46.317   5.279  13.657  0.00  0.00    +0.000 A 
ATOM      3  C   UNL     1      46.510   3.907  13.692  0.00  0.00    +0.000 A 
ATOM      4  N   UNL     1      45.779   3.038  12.971  0.00  0.00    +0.000 NA
ATOM      5  C   UNL     1      44.804   3.555  12.187  0.00  0.00    +0.000 A 
ATOM      6  C   UNL     1      44.520   4.912  12.081  0.00  0.00    +0.000 A 
ENDROOT
BRANCH   6   7
ATOM      7  C   UNL     1      43.406   5.283  11.167  0.00  0.00    +0.000 C 
ATOM      8  N   UNL     1      42.415   6.087  11.643  0.00  0.00    +0.000 N 
ATOM      9  O   UNL     1      43.368   4.880  10.008  0.00  0.00    +0.000 OA
ATOM     10  H   UNL     1      42.395   6.391  12.610  0.00  0.00    +0.000 HD
ATOM     11  H   UNL     1      41.640   6.312  11.034  0.00  0.00    +0.000 HD
ENDBRANCH   6   7
BRANCH   1  13
ATOM     12  C   UNL     1      46.140   8.030  12.820  0.00  0.00    +0.000 C 
ATOM     13  O   UNL     1      45.028   7.140  12.753  0.00  0.00    +0.000 OA
ENDBRANCH   1  13
BRANCH   3  14
ATOM     14  O   UNL     1      47.507   3.430  14.526  0.00  0.00    +0.000 OA
BRANCH  14  15
ATOM     15  C   UNL     1      47.218   3.690  15.909  0.00  0.00    +0.000 C 
BRANCH  15  16
ATOM     16  C   UNL     1      48.506   3.612  16.730  0.00  0.00    +0.000 C 
BRANCH  16  17
ATOM     17  C   UNL     1      48.962   4.986  17.161  0.00  0.00    +0.000 A 
ATOM     18  C   UNL     1      49.714   5.151  18.329  0.00  0.00    +0.000 A 
ATOM     19  C   UNL     1      50.182   6.414  18.695  0.00  0.00    +0.000 A 
ATOM     20  C   UNL     1      49.924   7.521  17.885  0.00  0.00    +0.000 A 
ATOM     21  C   UNL     1      49.195   7.377  16.698  0.00  0.00    +0.000 A 
ATOM     22  C   UNL     1      48.703   6.106  16.356  0.00  0.00    +0.000 A 
BRANCH  21  23
ATOM     23  C   UNL     1      48.946   8.560  15.796  0.00  0.00    +0.000 C 
BRANCH  23  24
ATOM     24  N   UNL     1      47.611   9.113  15.998  0.00  0.00    +0.000 NA
ATOM     25  H   UNL     1      46.931   8.492  15.557  0.00  0.00    +0.000 HD
ATOM     26  H   UNL     1      47.540  10.008  15.519  0.00  0.00    +0.000 HD
ENDBRANCH  23  24
ENDBRANCH  21  23
ENDBRANCH  16  17
ENDBRANCH  15  16
ENDBRANCH  14  15
ENDBRANCH   3  14
TORSDOF 8
ENDMDL
MODEL 9
REMARK VINA RESULT:    -5.676      2.905      4.928
REMARK INTER + INTRA:          -9.262
REMARK INTER:                  -8.238
REMARK INTRA:                  -1.024
REMARK UNBOUND:                -1.097
REMARK  Name = 
REMARK  9 active torsions:
REMARK  status: ('A' for Active; 'I' for Inactive)
REMARK    1  A    between atoms: C_1  and  O_2
REMARK    2  A    between atoms: O_2  and  C_3
REMARK    3  A    between atoms: C_5  and  O_6
REMARK    4  A    between atoms: O_6  and  C_7
REMARK    5  A    between atoms: C_7  and  C_8
REMARK    6  A    between atoms: C_8  and  C_9
REMARK    7  A    between atoms: C_13  and  C_14
REMARK    8  A    between atoms: C_14  and  N_15
REMARK    9  A    between atoms: C_19  and  C_20
REMARK                            x       y       z     vdW  Elec       q    Type
REMARK                         _______ _______ _______ _____ _____    ______ ____
ROOT
ATOM      1  C   UNL     1      48.288   5.472  16.434  0.00  0.00    +0.000 A 
ATOM      2  C   UNL     1      48.289   6.286  15.291  0.00  0.00    +0.000 A 
ATOM      3  C   UNL     1      47.766   5.778  14.111  0.00  0.00    +0.000 A 
ATOM      4  N   UNL     1      47.257   4.538  14.001  0.00  0.00    +0.000 NA
ATOM      5  C   UNL     1      47.277   3.762  15.111  0.00  0.00    +0.000 A 
ATOM      6  C   UNL     1      47.781   4.167  16.341  0.00  0.00    +0.000 A 
ENDROOT
BRANCH   6   7
ATOM      7  C   UNL     1      47.716   3.168  17.441  0.00  0.00    +0.000 C 
ATOM      8  N   UNL     1      48.852   2.897  18.142  0.00  0.00    +0.000 N 
ATOM      9  O   UNL     1      46.668   2.593  17.722  0.00  0.00    +0.000 OA
ATOM     10  H   UNL     1      49.741   3.319  17.897  0.00  0.00    +0.000 HD
ATOM     11  H   UNL     1      48.817   2.194  18.868  0.00  0.00    +0.000 HD
ENDBRANCH   6   7
BRANCH   1  13
ATOM     12  C   UNL     1      50.221   6.091  17.678  0.00  0.00    +0.000 C 
ATOM     13  O   UNL     1      48.812   5.880  17.636  0.00  0.00    +0.000 OA
ENDBRANCH   1  13
BRANCH   3  14
ATOM     14  O   UNL     1      47.790   6.605  13.001  0.00  0.00    +0.000 OA
BRANCH  14  15
ATOM     15  C   UNL     1      46.702   7.543  13.009  0.00  0.00    +0.000 C 
BRANCH  15  16
ATOM     16  C   UNL     1      45.927   7.447  11.694  0.00  0.00    +0.000 C 
BRANCH  16  17
ATOM     17  C   UNL     1      45.089   6.191  11.646  0.00  0.00    +0.000 A 
ATOM     18  C   UNL     1      44.173   5.909  12.665  0.00  0.00    +0.000 A 
ATOM     19  C   UNL     1      43.359   4.777  12.590  0.00  0.00    +0.000 A 
ATOM     20  C   UNL     1      43.436   3.929  11.484  0.00  0.00    +0.000 A 
ATOM     21  C   UNL     1      44.326   4.204  10.439  0.00  0.00    +0.000 A 
ATOM     22  C   UNL     1      45.162   5.330  10.541  0.00  0.00    +0.000 A 
BRANCH  21  23
ATOM     23  C   UNL     1      44.387   3.317   9.221  0.00  0.00    +0.000 C 
BRANCH  23  24
ATOM     24  N   UNL     1      44.947   2.007   9.543  0.00  0.00    +0.000 NA
ATOM     25  H   UNL     1      45.753   1.841   8.939  0.00  0.00    +0.000 HD
ATOM     26  H   UNL     1      44.265   1.286   9.324  0.00  0.00    +0.000 HD
ENDBRANCH  23  24
ENDBRANCH  21  23
ENDBRANCH  16  17
ENDBRANCH  15  16
ENDBRANCH  14  15
ENDBRANCH   3  14
TORSDOF 8
ENDMDL
