MODEL 1
REMARK VINA RESULT:    -8.480      0.000      0.000
REMARK INTER + INTRA:         -13.217
REMARK INTER:                 -11.950
REMARK INTRA:                  -1.266
REMARK UNBOUND:                -1.266
REMARK  Name = 
REMARK  9 active torsions:
REMARK  status: ('A' for Active; 'I' for Inactive)
REMARK    1  A    between atoms: C_1  and  C_2
REMARK    2  A    between atoms: C_2  and  N_3
REMARK    3  A    between atoms: C_2  and  C_11
REMARK    4  A    between atoms: N_3  and  C_4
REMARK    5  A    between atoms: C_4  and  C_5
REMARK    6  A    between atoms: C_14  and  C_15
REMARK    7  A    between atoms: C_15  and  N_16
REMARK    8  A    between atoms: N_16  and  C_17
REMARK    9  A    between atoms: C_18  and  C_20
REMARK                            x       y       z     vdW  Elec       q    Type
REMARK                         _______ _______ _______ _____ _____    ______ ____
ROOT
ATOM      1  C   UNL     1      44.307   5.105  11.381  0.00  0.00    +0.000 A 
ATOM      2  C   UNL     1      45.292   5.558  10.505  0.00  0.00    +0.000 A 
ATOM      3  C   UNL     1      46.157   6.610  10.809  0.00  0.00    +0.000 A 
ATOM      4  C   UNL     1      46.111   7.237  12.052  0.00  0.00    +0.000 A 
ATOM      5  C   UNL     1      45.034   6.922  12.889  0.00  0.00    +0.000 A 
ATOM      6  C   UNL     1      44.131   5.881  12.559  0.00  0.00    +0.000 A 
ENDROOT
BRANCH   1   8
ATOM      7  C   UNL     1      43.635   2.680  11.987  0.00  0.00    +0.000 C 
ATOM      8  C   UNL     1      43.443   3.874  11.036  0.00  0.00    +0.000 C 
BRANCH   8   9
ATOM      9  N   UNL     1      43.691   3.400   9.647  0.00  0.00    +0.000 NA
ATOM     10  H   UNL     1      42.808   3.218   9.182  0.00  0.00    +0.000 HD
BRANCH   9  11
ATOM     11  C   UNL     1      44.512   2.188   9.556  0.00  0.00    +0.000 C 
BRANCH  11  12
ATOM     12  C   UNL     1      45.781   2.389   8.712  0.00  0.00    +0.000 C 
ATOM     13  C   UNL     1      45.512   3.460   7.633  0.00  0.00    +0.000 C 
ATOM     14  C   UNL     1      46.693   3.627   6.682  0.00  0.00    +0.000 C 
ATOM     15  C   UNL     1      47.089   2.296   6.053  0.00  0.00    +0.000 C 
ATOM     16  C   UNL     1      47.402   1.254   7.121  0.00  0.00    +0.000 C 
ATOM     17  C   UNL     1      46.228   1.065   8.073  0.00  0.00    +0.000 C 
ENDBRANCH  11  12
ENDBRANCH   9  11
ENDBRANCH   8   9
ENDBRANCH   1   8
BRANCH   4  18
ATOM     18  C   UNL     1      47.277   8.097  12.498  0.00  0.00    +0.000 C 
BRANCH  18  19
ATOM     19  N   UNL     1      47.820   7.859  13.831  0.00  0.00    +0.000 N 
ATOM     20  C   UNL     1      47.797   8.946  14.797  0.00  0.00    +0.000 C 
ATOM     21  C   UNL     1      48.621   6.710  14.002  0.00  0.00    +0.000 C 
ATOM     22  O   UNL     1      48.822   5.918  13.085  0.00  0.00    +0.000 OA
BRANCH  21  23
ATOM     23  C   UNL     1      49.179   6.454  15.341  0.00  0.00    +0.000 A 
ATOM     24  C   UNL     1      50.296   7.094  15.852  0.00  0.00    +0.000 A 
ATOM     25  S   UNL     1      50.723   6.624  17.431  0.00  0.00    +0.000 S 
ATOM     26  C   UNL     1      49.357   5.624  17.529  0.00  0.00    +0.000 A 
ATOM     27  N   UNL     1      49.083   4.982  18.695  0.00  0.00    +0.000 NA
ATOM     28  C   UNL     1      48.012   4.265  18.642  0.00  0.00    +0.000 A 
ATOM     29  N   UNL     1      47.218   4.105  17.538  0.00  0.00    +0.000 N 
ATOM     30  C   UNL     1      47.506   4.674  16.315  0.00  0.00    +0.000 A 
ATOM     31  O   UNL     1      46.855   4.380  15.315  0.00  0.00    +0.000 OA
ATOM     32  C   UNL     1      48.645   5.582  16.351  0.00  0.00    +0.000 A 
ATOM     33  H   UNL     1      46.441   3.462  17.550  0.00  0.00    +0.000 HD
ENDBRANCH  21  23
ENDBRANCH  18  19
ENDBRANCH   4  18
TORSDOF 7
ENDMDL
MODEL 2
REMARK VINA RESULT:    -8.035      1.705      1.987
REMARK INTER + INTRA:         -12.590
REMARK INTER:                 -11.091
REMARK INTRA:                  -1.498
REMARK UNBOUND:                -1.266
REMARK  Name = 
REMARK  9 active torsions:
REMARK  status: ('A' for Active; 'I' for Inactive)
REMARK    1  A    between atoms: C_1  and  C_2
REMARK    2  A    between atoms: C_2  and  N_3
REMARK    3  A    between atoms: C_2  and  C_11
REMARK    4  A    between atoms: N_3  and  C_4
REMARK    5  A    between atoms: C_4  and  C_5
REMARK    6  A    between atoms: C_14  and  C_15
REMARK    7  A    between atoms: C_15  and  N_16
REMARK    8  A    between atoms: N_16  and  C_17
REMARK    9  A    between atoms: C_18  and  C_20
REMARK                            x       y       z     vdW  Elec       q    Type
REMARK                         _______ _______ _______ _____ _____    ______ ____
ROOT
ATOM      1  C   UNL     1      45.291   5.196  11.938  0.00  0.00    +0.000 A 
ATOM      2  C   UNL     1      46.026   4.762  13.040  0.00  0.00    +0.000 A 
ATOM      3  C   UNL     1      47.234   5.346  13.428  0.00  0.00    +0.000 A 
ATOM      4  C   UNL     1      47.745   6.448  12.749  0.00  0.00    +0.000 A 
ATOM      5  C   UNL     1      47.124   6.805  11.547  0.00  0.00    +0.000 A 
ATOM      6  C   UNL     1      45.921   6.183  11.132  0.00  0.00    +0.000 A 
ENDROOT
BRANCH   1   8
ATOM      7  C   UNL     1      43.539   3.370  12.484  0.00  0.00    +0.000 C 
ATOM      8  C   UNL     1      43.915   4.581  11.611  0.00  0.00    +0.000 C 
BRANCH   8   9
ATOM      9  N   UNL     1      43.821   4.165  10.185  0.00  0.00    +0.000 NA
ATOM     10  H   UNL     1      42.864   4.253   9.862  0.00  0.00    +0.000 HD
BRANCH   9  11
ATOM     11  C   UNL     1      44.268   2.793   9.921  0.00  0.00    +0.000 C 
BRANCH  11  12
ATOM     12  C   UNL     1      45.563   2.736   9.095  0.00  0.00    +0.000 C 
ATOM     13  C   UNL     1      45.563   3.886   8.065  0.00  0.00    +0.000 C 
ATOM     14  C   UNL     1      46.767   3.819   7.130  0.00  0.00    +0.000 C 
ATOM     15  C   UNL     1      46.858   2.462   6.442  0.00  0.00    +0.000 C 
ATOM     16  C   UNL     1      46.908   1.330   7.462  0.00  0.00    +0.000 C 
ATOM     17  C   UNL     1      45.706   1.373   8.397  0.00  0.00    +0.000 C 
ENDBRANCH  11  12
ENDBRANCH   9  11
ENDBRANCH   8   9
ENDBRANCH   1   8
BRANCH   4  18
ATOM     18  C   UNL     1      48.829   7.287  13.398  0.00  0.00    +0.000 C 
BRANCH  18  19
ATOM     19  N   UNL     1      48.628   7.696  14.783  0.00  0.00    +0.000 N 
ATOM     20  C   UNL     1      47.752   8.823  15.058  0.00  0.00    +0.000 C 
ATOM     21  C   UNL     1      49.535   7.191  15.739  0.00  0.00    +0.000 C 
ATOM     22  O   UNL     1      50.431   6.409  15.433  0.00  0.00    +0.000 OA
BRANCH  21  23
ATOM     23  C   UNL     1      49.348   7.594  17.144  0.00  0.00    +0.000 A 
ATOM     24  C   UNL     1      49.873   8.751  17.697  0.00  0.00    +0.000 A 
ATOM     25  S   UNL     1      49.496   8.987  19.340  0.00  0.00    +0.000 S 
ATOM     26  C   UNL     1      48.522   7.600  19.340  0.00  0.00    +0.000 A 
ATOM     27  N   UNL     1      47.816   7.281  20.457  0.00  0.00    +0.000 NA
ATOM     28  C   UNL     1      47.105   6.213  20.325  0.00  0.00    +0.000 A 
ATOM     29  N   UNL     1      47.060   5.425  19.205  0.00  0.00    +0.000 N 
ATOM     30  C   UNL     1      47.822   5.669  18.081  0.00  0.00    +0.000 A 
ATOM     31  O   UNL     1      47.867   4.854  17.163  0.00  0.00    +0.000 OA
ATOM     32  C   UNL     1      48.557   6.925  18.140  0.00  0.00    +0.000 A 
ATOM     33  H   UNL     1      46.544   4.558  19.206  0.00  0.00    +0.000 HD
ENDBRANCH  21  23
ENDBRANCH  18  19
ENDBRANCH   4  18
TORSDOF 7
ENDMDL
MODEL 3
REMARK VINA RESULT:    -7.636      2.927      3.968
REMARK INTER + INTRA:         -12.027
REMARK INTER:                 -11.040
REMARK INTRA:                  -0.987
REMARK UNBOUND:                -1.266
REMARK  Name = 
REMARK  9 active torsions:
REMARK  status: ('A' for Active; 'I' for Inactive)
REMARK    1  A    between atoms: C_1  and  C_2
REMARK    2  A    between atoms: C_2  and  N_3
REMARK    3  A    between atoms: C_2  and  C_11
REMARK    4  A    between atoms: N_3  and  C_4
REMARK    5  A    between atoms: C_4  and  C_5
REMARK    6  A    between atoms: C_14  and  C_15
REMARK    7  A    between atoms: C_15  and  N_16
REMARK    8  A    between atoms: N_16  and  C_17
REMARK    9  A    between atoms: C_18  and  C_20
REMARK                            x       y       z     vdW  Elec       q    Type
REMARK                         _______ _______ _______ _____ _____    ______ ____
ROOT
ATOM      1  C   UNL     1      46.482   5.532  12.962  0.00  0.00    +0.000 A 
ATOM      2  C   UNL     1      46.547   4.588  13.987  0.00  0.00    +0.000 A 
ATOM      3  C   UNL     1      47.306   4.772  15.145  0.00  0.00    +0.000 A 
ATOM      4  C   UNL     1      48.007   5.956  15.360  0.00  0.00    +0.000 A 
ATOM      5  C   UNL     1      48.097   6.851  14.287  0.00  0.00    +0.000 A 
ATOM      6  C   UNL     1      47.360   6.642  13.096  0.00  0.00    +0.000 A 
ENDROOT
BRANCH   1   8
ATOM      7  C   UNL     1      44.401   6.340  11.653  0.00  0.00    +0.000 C 
ATOM      8  C   UNL     1      45.551   5.323  11.751  0.00  0.00    +0.000 C 
BRANCH   8   9
ATOM      9  N   UNL     1      44.959   3.958  11.740  0.00  0.00    +0.000 NA
ATOM     10  H   UNL     1      45.643   3.281  12.062  0.00  0.00    +0.000 HD
BRANCH   9  11
ATOM     11  C   UNL     1      44.465   3.519  10.430  0.00  0.00    +0.000 C 
BRANCH  11  12
ATOM     12  C   UNL     1      45.599   3.197   9.443  0.00  0.00    +0.000 C 
ATOM     13  C   UNL     1      45.604   4.248   8.312  0.00  0.00    +0.000 C 
ATOM     14  C   UNL     1      46.630   3.922   7.230  0.00  0.00    +0.000 C 
ATOM     15  C   UNL     1      46.424   2.517   6.678  0.00  0.00    +0.000 C 
ATOM     16  C   UNL     1      46.468   1.476   7.790  0.00  0.00    +0.000 C 
ATOM     17  C   UNL     1      45.440   1.778   8.873  0.00  0.00    +0.000 C 
ENDBRANCH  11  12
ENDBRANCH   9  11
ENDBRANCH   8   9
ENDBRANCH   1   8
BRANCH   4  18
ATOM     18  C   UNL     1      48.501   6.288  16.754  0.00  0.00    +0.000 C 
BRANCH  18  19
ATOM     19  N   UNL     1      49.809   5.777  17.146  0.00  0.00    +0.000 N 
ATOM     20  C   UNL     1      50.985   6.252  16.434  0.00  0.00    +0.000 C 
ATOM     21  C   UNL     1      49.831   4.625  17.961  0.00  0.00    +0.000 C 
ATOM     22  O   UNL     1      48.798   4.096  18.361  0.00  0.00    +0.000 OA
BRANCH  21  23
ATOM     23  C   UNL     1      51.144   4.094  18.366  0.00  0.00    +0.000 A 
ATOM     24  C   UNL     1      52.014   4.747  19.224  0.00  0.00    +0.000 A 
ATOM     25  S   UNL     1      53.461   3.908  19.540  0.00  0.00    +0.000 S 
ATOM     26  C   UNL     1      52.924   2.587  18.624  0.00  0.00    +0.000 A 
ATOM     27  N   UNL     1      53.685   1.462  18.565  0.00  0.00    +0.000 NA
ATOM     28  C   UNL     1      53.160   0.527  17.848  0.00  0.00    +0.000 A 
ATOM     29  N   UNL     1      51.976   0.622  17.166  0.00  0.00    +0.000 N 
ATOM     30  C   UNL     1      51.215   1.772  17.135  0.00  0.00    +0.000 A 
ATOM     31  O   UNL     1      50.243   1.863  16.388  0.00  0.00    +0.000 OA
ATOM     32  C   UNL     1      51.709   2.819  18.018  0.00  0.00    +0.000 A 
ATOM     33  H   UNL     1      51.670  -0.123  16.559  0.00  0.00    +0.000 HD
ENDBRANCH  21  23
ENDBRANCH  18  19
ENDBRANCH   4  18
TORSDOF 7
ENDMDL
MODEL 4
REMARK VINA RESULT:    -7.409      2.480      3.357
REMARK INTER + INTRA:         -11.708
REMARK INTER:                 -10.384
REMARK INTRA:                  -1.324
REMARK UNBOUND:                -1.266
REMARK  Name = 
REMARK  9 active torsions:
REMARK  status: ('A' for Active; 'I' for Inactive)
REMARK    1  A    between atoms: C_1  and  C_2
REMARK    2  A    between atoms: C_2  and  N_3
REMARK    3  A    between atoms: C_2  and  C_11
REMARK    4  A    between atoms: N_3  and  C_4
REMARK    5  A    between atoms: C_4  and  C_5
REMARK    6  A    between atoms: C_14  and  C_15
REMARK    7  A    between atoms: C_15  and  N_16
REMARK    8  A    between atoms: N_16  and  C_17
REMARK    9  A    between atoms: C_18  and  C_20
REMARK                            x       y       z     vdW  Elec       q    Type
REMARK                         _______ _______ _______ _____ _____    ______ ____
ROOT
ATOM      1  C   UNL     1      45.440   5.740  12.034  0.00  0.00    +0.000 A 
ATOM      2  C   UNL     1      45.873   5.133  13.213  0.00  0.00    +0.000 A 
ATOM      3  C   UNL     1      47.102   5.418  13.810  0.00  0.00    +0.000 A 
ATOM      4  C   UNL     1      47.950   6.383  13.273  0.00  0.00    +0.000 A 
ATOM      5  C   UNL     1      47.626   6.890  12.009  0.00  0.00    +0.000 A 
ATOM      6  C   UNL     1      46.397   6.567  11.385  0.00  0.00    +0.000 A 
ENDROOT
BRANCH   1   8
ATOM      7  C   UNL     1      43.216   4.440  12.281  0.00  0.00    +0.000 C 
ATOM      8  C   UNL     1      44.031   5.462  11.471  0.00  0.00    +0.000 C 
BRANCH   8   9
ATOM      9  N   UNL     1      44.085   4.992  10.060  0.00  0.00    +0.000 NA
ATOM     10  H   UNL     1      43.297   5.365   9.541  0.00  0.00    +0.000 HD
BRANCH   9  11
ATOM     11  C   UNL     1      44.085   3.533   9.905  0.00  0.00    +0.000 C 
BRANCH  11  12
ATOM     12  C   UNL     1      44.801   3.068   8.626  0.00  0.00    +0.000 C 
ATOM     13  C   UNL     1      45.540   1.743   8.909  0.00  0.00    +0.000 C 
ATOM     14  C   UNL     1      46.371   1.283   7.714  0.00  0.00    +0.000 C 
ATOM     15  C   UNL     1      47.339   2.370   7.263  0.00  0.00    +0.000 C 
ATOM     16  C   UNL     1      46.601   3.664   6.938  0.00  0.00    +0.000 C 
ATOM     17  C   UNL     1      45.776   4.145   8.124  0.00  0.00    +0.000 C 
ENDBRANCH  11  12
ENDBRANCH   9  11
ENDBRANCH   8   9
ENDBRANCH   1   8
BRANCH   4  18
ATOM     18  C   UNL     1      49.077   6.942  14.121  0.00  0.00    +0.000 C 
BRANCH  18  19
ATOM     19  N   UNL     1      48.761   7.332  15.490  0.00  0.00    +0.000 N 
ATOM     20  C   UNL     1      48.284   8.683  15.738  0.00  0.00    +0.000 C 
ATOM     21  C   UNL     1      49.239   6.496  16.522  0.00  0.00    +0.000 C 
ATOM     22  O   UNL     1      49.857   5.462  16.284  0.00  0.00    +0.000 OA
BRANCH  21  23
ATOM     23  C   UNL     1      48.930   6.875  17.912  0.00  0.00    +0.000 A 
ATOM     24  C   UNL     1      47.824   6.421  18.613  0.00  0.00    +0.000 A 
ATOM     25  S   UNL     1      47.709   7.000  20.210  0.00  0.00    +0.000 S 
ATOM     26  C   UNL     1      49.200   7.793  20.054  0.00  0.00    +0.000 A 
ATOM     27  N   UNL     1      49.734   8.426  21.132  0.00  0.00    +0.000 NA
ATOM     28  C   UNL     1      50.874   8.977  20.888  0.00  0.00    +0.000 A 
ATOM     29  N   UNL     1      51.506   8.983  19.673  0.00  0.00    +0.000 N 
ATOM     30  C   UNL     1      50.961   8.423  18.537  0.00  0.00    +0.000 A 
ATOM     31  O   UNL     1      51.489   8.586  17.439  0.00  0.00    +0.000 OA
ATOM     32  C   UNL     1      49.726   7.692  18.786  0.00  0.00    +0.000 A 
ATOM     33  H   UNL     1      52.358   9.507  19.538  0.00  0.00    +0.000 HD
ENDBRANCH  21  23
ENDBRANCH  18  19
ENDBRANCH   4  18
TORSDOF 7
ENDMDL
MODEL 5
REMARK VINA RESULT:    -7.118      3.206      4.586
REMARK INTER + INTRA:         -11.297
REMARK INTER:                 -10.029
REMARK INTRA:                  -1.267
REMARK UNBOUND:                -1.266
REMARK  Name = 
REMARK  9 active torsions:
REMARK  status: ('A' for Active; 'I' for Inactive)
REMARK    1  A    between atoms: C_1  and  C_2
REMARK    2  A    between atoms: C_2  and  N_3
REMARK    3  A    between atoms: C_2  and  C_11
REMARK    4  A    between atoms: N_3  and  C_4
REMARK    5  A    between atoms: C_4  and  C_5
REMARK    6  A    between atoms: C_14  and  C_15
REMARK    7  A    between atoms: C_15  and  N_16
REMARK    8  A    between atoms: N_16  and  C_17
REMARK    9  A    between atoms: C_18  and  C_20
REMARK                            x       y       z     vdW  Elec       q    Type
REMARK                         _______ _______ _______ _____ _____    ______ ____
ROOT
ATOM      1  C   UNL     1      44.599   6.027  11.327  0.00  0.00    +0.000 A 
ATOM      2  C   UNL     1      45.869   5.597  11.710  0.00  0.00    +0.000 A 
ATOM      3  C   UNL     1      46.795   6.428  12.344  0.00  0.00    +0.000 A 
ATOM      4  C   UNL     1      46.468   7.739  12.678  0.00  0.00    +0.000 A 
ATOM      5  C   UNL     1      45.270   8.252  12.165  0.00  0.00    +0.000 A 
ATOM      6  C   UNL     1      44.349   7.417  11.486  0.00  0.00    +0.000 A 
ENDROOT
BRANCH   1   8
ATOM      7  C   UNL     1      43.236   3.847  11.628  0.00  0.00    +0.000 C 
ATOM      8  C   UNL     1      43.578   5.042  10.721  0.00  0.00    +0.000 C 
BRANCH   8   9
ATOM      9  N   UNL     1      44.041   4.507   9.412  0.00  0.00    +0.000 NA
ATOM     10  H   UNL     1      43.328   4.656   8.706  0.00  0.00    +0.000 HD
BRANCH   9  11
ATOM     11  C   UNL     1      44.379   3.079   9.423  0.00  0.00    +0.000 C 
BRANCH  11  12
ATOM     12  C   UNL     1      45.707   2.774   8.712  0.00  0.00    +0.000 C 
ATOM     13  C   UNL     1      45.829   3.664   7.457  0.00  0.00    +0.000 C 
ATOM     14  C   UNL     1      47.071   3.331   6.635  0.00  0.00    +0.000 C 
ATOM     15  C   UNL     1      47.112   1.852   6.270  0.00  0.00    +0.000 C 
ATOM     16  C   UNL     1      47.040   0.975   7.515  0.00  0.00    +0.000 C 
ATOM     17  C   UNL     1      45.798   1.285   8.341  0.00  0.00    +0.000 C 
ENDBRANCH  11  12
ENDBRANCH   9  11
ENDBRANCH   8   9
ENDBRANCH   1   8
BRANCH   4  18
ATOM     18  C   UNL     1      47.323   8.490  13.681  0.00  0.00    +0.000 C 
BRANCH  18  19
ATOM     19  N   UNL     1      48.507   9.177  13.178  0.00  0.00    +0.000 N 
ATOM     20  C   UNL     1      48.374  10.025  12.004  0.00  0.00    +0.000 C 
ATOM     21  C   UNL     1      49.758   8.730  13.653  0.00  0.00    +0.000 C 
ATOM     22  O   UNL     1      49.852   7.832  14.485  0.00  0.00    +0.000 OA
BRANCH  21  23
ATOM     23  C   UNL     1      50.965   9.412  13.155  0.00  0.00    +0.000 A 
ATOM     24  C   UNL     1      51.560  10.496  13.782  0.00  0.00    +0.000 A 
ATOM     25  S   UNL     1      52.954  11.088  13.006  0.00  0.00    +0.000 S 
ATOM     26  C   UNL     1      52.874   9.841  11.859  0.00  0.00    +0.000 A 
ATOM     27  N   UNL     1      53.862   9.723  10.933  0.00  0.00    +0.000 NA
ATOM     28  C   UNL     1      53.691   8.729  10.129  0.00  0.00    +0.000 A 
ATOM     29  N   UNL     1      52.622   7.873  10.143  0.00  0.00    +0.000 N 
ATOM     30  C   UNL     1      51.561   8.008  11.013  0.00  0.00    +0.000 A 
ATOM     31  O   UNL     1      50.554   7.315  10.889  0.00  0.00    +0.000 OA
ATOM     32  C   UNL     1      51.759   9.048  12.013  0.00  0.00    +0.000 A 
ATOM     33  H   UNL     1      52.517   7.169   9.428  0.00  0.00    +0.000 HD
ENDBRANCH  21  23
ENDBRANCH  18  19
ENDBRANCH   4  18
TORSDOF 7
ENDMDL
MODEL 6
REMARK VINA RESULT:    -6.610      2.842      8.273
REMARK INTER + INTRA:         -10.582
REMARK INTER:                  -8.997
REMARK INTRA:                  -1.585
REMARK UNBOUND:                -1.266
REMARK  Name = 
REMARK  9 active torsions:
REMARK  status: ('A' for Active; 'I' for Inactive)
REMARK    1  A    between atoms: C_1  and  C_2
REMARK    2  A    between atoms: C_2  and  N_3
REMARK    3  A    between atoms: C_2  and  C_11
REMARK    4  A    between atoms: N_3  and  C_4
REMARK    5  A    between atoms: C_4  and  C_5
REMARK    6  A    between atoms: C_14  and  C_15
REMARK    7  A    between atoms: C_15  and  N_16
REMARK    8  A    between atoms: N_16  and  C_17
REMARK    9  A    between atoms: C_18  and  C_20
REMARK                            x       y       z     vdW  Elec       q    Type
REMARK                         _______ _______ _______ _____ _____    ______ ____
ROOT
ATOM      1  C   UNL     1      49.869   8.784  15.980  0.00  0.00    +0.000 A 
ATOM      2  C   UNL     1      48.506   9.058  16.094  0.00  0.00    +0.000 A 
ATOM      3  C   UNL     1      47.643   9.098  14.997  0.00  0.00    +0.000 A 
ATOM      4  C   UNL     1      48.102   8.809  13.715  0.00  0.00    +0.000 A 
ATOM      5  C   UNL     1      49.486   8.693  13.541  0.00  0.00    +0.000 A 
ATOM      6  C   UNL     1      50.365   8.694  14.650  0.00  0.00    +0.000 A 
ENDROOT
BRANCH   1   8
ATOM      7  C   UNL     1      52.262   8.518  16.929  0.00  0.00    +0.000 C 
ATOM      8  C   UNL     1      50.759   8.654  17.232  0.00  0.00    +0.000 C 
BRANCH   8   9
ATOM      9  N   UNL     1      50.355   7.498  18.077  0.00  0.00    +0.000 NA
ATOM     10  H   UNL     1      50.750   7.594  19.007  0.00  0.00    +0.000 HD
BRANCH   9  11
ATOM     11  C   UNL     1      50.752   6.189  17.548  0.00  0.00    +0.000 C 
BRANCH  11  12
ATOM     12  C   UNL     1      49.634   5.139  17.650  0.00  0.00    +0.000 C 
ATOM     13  C   UNL     1      50.235   3.732  17.446  0.00  0.00    +0.000 C 
ATOM     14  C   UNL     1      49.162   2.647  17.417  0.00  0.00    +0.000 C 
ATOM     15  C   UNL     1      48.097   2.951  16.370  0.00  0.00    +0.000 C 
ATOM     16  C   UNL     1      47.470   4.321  16.603  0.00  0.00    +0.000 C 
ATOM     17  C   UNL     1      48.526   5.418  16.622  0.00  0.00    +0.000 C 
ENDBRANCH  11  12
ENDBRANCH   9  11
ENDBRANCH   8   9
ENDBRANCH   1   8
BRANCH   4  18
ATOM     18  C   UNL     1      47.103   8.489  12.620  0.00  0.00    +0.000 C 
BRANCH  18  19
ATOM     19  N   UNL     1      46.586   7.127  12.555  0.00  0.00    +0.000 N 
ATOM     20  C   UNL     1      47.482   6.025  12.868  0.00  0.00    +0.000 C 
ATOM     21  C   UNL     1      45.358   6.938  11.886  0.00  0.00    +0.000 C 
ATOM     22  O   UNL     1      44.725   7.879  11.414  0.00  0.00    +0.000 OA
BRANCH  21  23
ATOM     23  C   UNL     1      44.820   5.569  11.810  0.00  0.00    +0.000 A 
ATOM     24  C   UNL     1      44.125   4.949  12.837  0.00  0.00    +0.000 A 
ATOM     25  S   UNL     1      43.599   3.369  12.485  0.00  0.00    +0.000 S 
ATOM     26  C   UNL     1      44.190   3.499  10.901  0.00  0.00    +0.000 A 
ATOM     27  N   UNL     1      43.973   2.484  10.023  0.00  0.00    +0.000 NA
ATOM     28  C   UNL     1      44.459   2.712   8.850  0.00  0.00    +0.000 A 
ATOM     29  N   UNL     1      45.162   3.830   8.487  0.00  0.00    +0.000 N 
ATOM     30  C   UNL     1      45.472   4.843   9.369  0.00  0.00    +0.000 A 
ATOM     31  O   UNL     1      46.234   5.750   9.041  0.00  0.00    +0.000 OA
ATOM     32  C   UNL     1      44.851   4.686  10.676  0.00  0.00    +0.000 A 
ATOM     33  H   UNL     1      45.583   3.899   7.572  0.00  0.00    +0.000 HD
ENDBRANCH  21  23
ENDBRANCH  18  19
ENDBRANCH   4  18
TORSDOF 7
ENDMDL
MODEL 7
REMARK VINA RESULT:    -6.600      1.671      2.475
REMARK INTER + INTRA:         -10.567
REMARK INTER:                  -9.647
REMARK INTRA:                  -0.920
REMARK UNBOUND:                -1.266
REMARK  Name = 
REMARK  9 active torsions:
REMARK  status: ('A' for Active; 'I' for Inactive)
REMARK    1  A    between atoms: C_1  and  C_2
REMARK    2  A    between atoms: C_2  and  N_3
REMARK    3  A    between atoms: C_2  and  C_11
REMARK    4  A    between atoms: N_3  and  C_4
REMARK    5  A    between atoms: C_4  and  C_5
REMARK    6  A    between atoms: C_14  and  C_15
REMARK    7  A    between atoms: C_15  and  N_16
REMARK    8  A    between atoms: N_16  and  C_17
REMARK    9  A    between atoms: C_18  and  C_20
REMARK                            x       y       z     vdW  Elec       q    Type
REMARK                         _______ _______ _______ _____ _____    ______ ____
ROOT
ATOM      1  C   UNL     1      45.818   6.588  12.241  0.00  0.00    +0.000 A 
ATOM      2  C   UNL     1      47.080   6.051  12.492  0.00  0.00    +0.000 A 
ATOM      3  C   UNL     1      48.198   6.835  12.783  0.00  0.00    +0.000 A 
ATOM      4  C   UNL     1      48.091   8.219  12.890  0.00  0.00    +0.000 A 
ATOM      5  C   UNL     1      46.885   8.803  12.485  0.00  0.00    +0.000 A 
ATOM      6  C   UNL     1      45.764   8.006  12.149  0.00  0.00    +0.000 A 
ENDROOT
BRANCH   1   8
ATOM      7  C   UNL     1      44.733   4.275  12.650  0.00  0.00    +0.000 C 
ATOM      8  C   UNL     1      44.596   5.673  12.022  0.00  0.00    +0.000 C 
BRANCH   8   9
ATOM      9  N   UNL     1      44.290   5.499  10.576  0.00  0.00    +0.000 NA
ATOM     10  H   UNL     1      43.694   4.688  10.445  0.00  0.00    +0.000 HD
BRANCH   9  11
ATOM     11  C   UNL     1      45.469   5.342   9.719  0.00  0.00    +0.000 C 
BRANCH  11  12
ATOM     12  C   UNL     1      45.355   4.147   8.758  0.00  0.00    +0.000 C 
ATOM     13  C   UNL     1      45.401   2.835   9.569  0.00  0.00    +0.000 C 
ATOM     14  C   UNL     1      45.411   1.603   8.668  0.00  0.00    +0.000 C 
ATOM     15  C   UNL     1      46.548   1.668   7.655  0.00  0.00    +0.000 C 
ATOM     16  C   UNL     1      46.472   2.942   6.822  0.00  0.00    +0.000 C 
ATOM     17  C   UNL     1      46.474   4.183   7.706  0.00  0.00    +0.000 C 
ENDBRANCH  11  12
ENDBRANCH   9  11
ENDBRANCH   8   9
ENDBRANCH   1   8
BRANCH   4  18
ATOM     18  C   UNL     1      49.200   9.003  13.566  0.00  0.00    +0.000 C 
BRANCH  18  19
ATOM     19  N   UNL     1      49.714   8.491  14.831  0.00  0.00    +0.000 N 
ATOM     20  C   UNL     1      50.911   7.664  14.814  0.00  0.00    +0.000 C 
ATOM     21  C   UNL     1      48.852   8.552  15.946  0.00  0.00    +0.000 C 
ATOM     22  O   UNL     1      47.733   9.052  15.873  0.00  0.00    +0.000 OA
BRANCH  21  23
ATOM     23  C   UNL     1      49.354   8.039  17.233  0.00  0.00    +0.000 A 
ATOM     24  C   UNL     1      49.945   8.828  18.207  0.00  0.00    +0.000 A 
ATOM     25  S   UNL     1      50.425   7.987  19.607  0.00  0.00    +0.000 S 
ATOM     26  C   UNL     1      49.756   6.551  19.002  0.00  0.00    +0.000 A 
ATOM     27  N   UNL     1      49.755   5.437  19.780  0.00  0.00    +0.000 NA
ATOM     28  C   UNL     1      49.207   4.417  19.211  0.00  0.00    +0.000 A 
ATOM     29  N   UNL     1      48.696   4.399  17.941  0.00  0.00    +0.000 N 
ATOM     30  C   UNL     1      48.751   5.484  17.091  0.00  0.00    +0.000 A 
ATOM     31  O   UNL     1      48.422   5.377  15.912  0.00  0.00    +0.000 OA
ATOM     32  C   UNL     1      49.261   6.692  17.725  0.00  0.00    +0.000 A 
ATOM     33  H   UNL     1      48.358   3.540  17.534  0.00  0.00    +0.000 HD
ENDBRANCH  21  23
ENDBRANCH  18  19
ENDBRANCH   4  18
TORSDOF 7
ENDMDL
MODEL 8
REMARK VINA RESULT:    -6.300      3.497      7.971
REMARK INTER + INTRA:         -10.145
REMARK INTER:                  -8.166
REMARK INTRA:                  -1.979
REMARK UNBOUND:                -1.266
REMARK  Name = 
REMARK  9 active torsions:
REMARK  status: ('A' for Active; 'I' for Inactive)
REMARK    1  A    between atoms: C_1  and  C_2
REMARK    2  A    between atoms: C_2  and  N_3
REMARK    3  A    between atoms: C_2  and  C_11
REMARK    4  A    between atoms: N_3  and  C_4
REMARK    5  A    between atoms: C_4  and  C_5
REMARK    6  A    between atoms: C_14  and  C_15
REMARK    7  A    between atoms: C_15  and  N_16
REMARK    8  A    between atoms: N_16  and  C_17
REMARK    9  A    between atoms: C_18  and  C_20
REMARK                            x       y       z     vdW  Elec       q    Type
REMARK                         _______ _______ _______ _____ _____    ______ ____
ROOT
ATOM      1  C   UNL     1      51.790   7.013  16.864  0.00  0.00    +0.000 A 
ATOM      2  C   UNL     1      50.516   7.561  17.016  0.00  0.00    +0.000 A 
ATOM      3  C   UNL     1      49.893   8.325  16.028  0.00  0.00    +0.000 A 
ATOM      4  C   UNL     1      50.505   8.536  14.795  0.00  0.00    +0.000 A 
ATOM      5  C   UNL     1      51.842   8.144  14.668  0.00  0.00    +0.000 A 
ATOM      6  C   UNL     1      52.488   7.405  15.689  0.00  0.00    +0.000 A 
ENDROOT
BRANCH   1   8
ATOM      7  C   UNL     1      53.749   6.571  18.496  0.00  0.00    +0.000 C 
ATOM      8  C   UNL     1      52.392   6.095  17.947  0.00  0.00    +0.000 C 
BRANCH   8   9
ATOM      9  N   UNL     1      52.559   4.700  17.457  0.00  0.00    +0.000 NA
ATOM     10  H   UNL     1      52.415   4.668  16.453  0.00  0.00    +0.000 HD
BRANCH   9  11
ATOM     11  C   UNL     1      51.656   3.725  18.078  0.00  0.00    +0.000 C 
BRANCH  11  12
ATOM     12  C   UNL     1      50.234   3.771  17.495  0.00  0.00    +0.000 C 
ATOM     13  C   UNL     1      49.269   4.352  18.549  0.00  0.00    +0.000 C 
ATOM     14  C   UNL     1      47.817   4.317  18.080  0.00  0.00    +0.000 C 
ATOM     15  C   UNL     1      47.403   2.909  17.667  0.00  0.00    +0.000 C 
ATOM     16  C   UNL     1      48.329   2.357  16.589  0.00  0.00    +0.000 C 
ATOM     17  C   UNL     1      49.783   2.372  17.047  0.00  0.00    +0.000 C 
ENDBRANCH  11  12
ENDBRANCH   9  11
ENDBRANCH   8   9
ENDBRANCH   1   8
BRANCH   4  18
ATOM     18  C   UNL     1      49.675   9.030  13.625  0.00  0.00    +0.000 C 
BRANCH  18  19
ATOM     19  N   UNL     1      48.742   8.089  13.015  0.00  0.00    +0.000 N 
ATOM     20  C   UNL     1      49.173   7.339  11.846  0.00  0.00    +0.000 C 
ATOM     21  C   UNL     1      47.386   8.198  13.388  0.00  0.00    +0.000 C 
ATOM     22  O   UNL     1      47.007   9.017  14.221  0.00  0.00    +0.000 OA
BRANCH  21  23
ATOM     23  C   UNL     1      46.429   7.256  12.782  0.00  0.00    +0.000 A 
ATOM     24  C   UNL     1      45.489   7.612  11.827  0.00  0.00    +0.000 A 
ATOM     25  S   UNL     1      44.513   6.330  11.279  0.00  0.00    +0.000 S 
ATOM     26  C   UNL     1      45.391   5.228  12.223  0.00  0.00    +0.000 A 
ATOM     27  N   UNL     1      45.106   3.901  12.137  0.00  0.00    +0.000 NA
ATOM     28  C   UNL     1      45.851   3.169  12.893  0.00  0.00    +0.000 A 
ATOM     29  N   UNL     1      46.820   3.636  13.741  0.00  0.00    +0.000 N 
ATOM     30  C   UNL     1      47.084   4.978  13.917  0.00  0.00    +0.000 A 
ATOM     31  O   UNL     1      47.851   5.358  14.799  0.00  0.00    +0.000 OA
ATOM     32  C   UNL     1      46.345   5.839  13.005  0.00  0.00    +0.000 A 
ATOM     33  H   UNL     1      47.306   3.007  14.363  0.00  0.00    +0.000 HD
ENDBRANCH  21  23
ENDBRANCH  18  19
ENDBRANCH   4  18
TORSDOF 7
ENDMDL
MODEL 9
REMARK VINA RESULT:    -6.226      4.622      8.002
REMARK INTER + INTRA:         -10.040
REMARK INTER:                  -8.756
REMARK INTRA:                  -1.284
REMARK UNBOUND:                -1.266
REMARK  Name = 
REMARK  9 active torsions:
REMARK  status: ('A' for Active; 'I' for Inactive)
REMARK    1  A    between atoms: C_1  and  C_2
REMARK    2  A    between atoms: C_2  and  N_3
REMARK    3  A    between atoms: C_2  and  C_11
REMARK    4  A    between atoms: N_3  and  C_4
REMARK    5  A    between atoms: C_4  and  C_5
REMARK    6  A    between atoms: C_14  and  C_15
REMARK    7  A    between atoms: C_15  and  N_16
REMARK    8  A    between atoms: N_16  and  C_17
REMARK    9  A    between atoms: C_18  and  C_20
REMARK                            x       y       z     vdW  Elec       q    Type
REMARK                         _______ _______ _______ _____ _____    ______ ____
ROOT
ATOM      1  C   UNL     1      51.250   9.101  12.534  0.00  0.00    +0.000 A 
ATOM      2  C   UNL     1      50.574   8.475  11.487  0.00  0.00    +0.000 A 
ATOM      3  C   UNL     1      49.260   8.014  11.596  0.00  0.00    +0.000 A 
ATOM      4  C   UNL     1      48.529   8.209  12.764  0.00  0.00    +0.000 A 
ATOM      5  C   UNL     1      49.223   8.682  13.884  0.00  0.00    +0.000 A 
ATOM      6  C   UNL     1      50.569   9.111  13.782  0.00  0.00    +0.000 A 
ENDROOT
BRANCH   1   8
ATOM      7  C   UNL     1      52.690  11.069  11.667  0.00  0.00    +0.000 C 
ATOM      8  C   UNL     1      52.664   9.680  12.330  0.00  0.00    +0.000 C 
BRANCH   8   9
ATOM      9  N   UNL     1      53.521   8.770  11.523  0.00  0.00    +0.000 NA
ATOM     10  H   UNL     1      54.321   8.472  12.071  0.00  0.00    +0.000 HD
BRANCH   9  11
ATOM     11  C   UNL     1      54.018   9.353  10.272  0.00  0.00    +0.000 C 
BRANCH  11  12
ATOM     12  C   UNL     1      53.946   8.376   9.087  0.00  0.00    +0.000 C 
ATOM     13  C   UNL     1      53.016   8.958   8.002  0.00  0.00    +0.000 C 
ATOM     14  C   UNL     1      52.804   7.986   6.845  0.00  0.00    +0.000 C 
ATOM     15  C   UNL     1      52.296   6.637   7.342  0.00  0.00    +0.000 C 
ATOM     16  C   UNL     1      53.242   6.041   8.379  0.00  0.00    +0.000 C 
ATOM     17  C   UNL     1      53.455   6.994   9.548  0.00  0.00    +0.000 C 
ENDBRANCH  11  12
ENDBRANCH   9  11
ENDBRANCH   8   9
ENDBRANCH   1   8
BRANCH   4  18
ATOM     18  C   UNL     1      47.021   8.050  12.736  0.00  0.00    +0.000 C 
BRANCH  18  19
ATOM     19  N   UNL     1      46.487   6.702  12.585  0.00  0.00    +0.000 N 
ATOM     20  C   UNL     1      47.299   5.577  13.024  0.00  0.00    +0.000 C 
ATOM     21  C   UNL     1      45.371   6.545  11.736  0.00  0.00    +0.000 C 
ATOM     22  O   UNL     1      44.840   7.502  11.180  0.00  0.00    +0.000 OA
BRANCH  21  23
ATOM     23  C   UNL     1      44.818   5.189  11.571  0.00  0.00    +0.000 A 
ATOM     24  C   UNL     1      44.096   4.520  12.546  0.00  0.00    +0.000 A 
ATOM     25  S   UNL     1      43.559   2.970  12.094  0.00  0.00    +0.000 S 
ATOM     26  C   UNL     1      44.182   3.183  10.532  0.00  0.00    +0.000 A 
ATOM     27  N   UNL     1      43.971   2.224   9.592  0.00  0.00    +0.000 NA
ATOM     28  C   UNL     1      44.484   2.512   8.444  0.00  0.00    +0.000 A 
ATOM     29  N   UNL     1      45.207   3.640   8.160  0.00  0.00    +0.000 N 
ATOM     30  C   UNL     1      45.511   4.597   9.105  0.00  0.00    +0.000 A 
ATOM     31  O   UNL     1      46.290   5.511   8.845  0.00  0.00    +0.000 OA
ATOM     32  C   UNL     1      44.862   4.372  10.389  0.00  0.00    +0.000 A 
ATOM     33  H   UNL     1      45.647   3.756   7.259  0.00  0.00    +0.000 HD
ENDBRANCH  21  23
ENDBRANCH  18  19
ENDBRANCH   4  18
TORSDOF 7
ENDMDL
