MODEL 1
REMARK VINA RESULT:    -7.822      0.000      0.000
REMARK INTER + INTRA:         -10.687
REMARK INTER:                 -10.109
REMARK INTRA:                  -0.578
REMARK UNBOUND:                -0.578
REMARK  Name = 
REMARK  6 active torsions:
REMARK  status: ('A' for Active; 'I' for Inactive)
REMARK    1  A    between atoms: C_1  and  O_2
REMARK    2  A    between atoms: O_2  and  C_3
REMARK    3  A    between atoms: C_6  and  C_7
REMARK    4  A    between atoms: C_7  and  O_8
REMARK    5  A    between atoms: O_8  and  C_9
REMARK    6  A    between atoms: C_12  and  C_13
REMARK                            x       y       z     vdW  Elec       q    Type
REMARK                         _______ _______ _______ _____ _____    ______ ____
ROOT
ATOM      1  C   UNL     1      44.565   3.965   9.103  0.00  0.00    +0.000 A 
ATOM      2  C   UNL     1      44.548   2.587   9.265  0.00  0.00    +0.000 A 
ATOM      3  C   UNL     1      45.488   1.825   8.572  0.00  0.00    +0.000 A 
ATOM      4  C   UNL     1      46.408   2.469   7.741  0.00  0.00    +0.000 A 
ATOM      5  C   UNL     1      46.336   3.851   7.633  0.00  0.00    +0.000 A 
ATOM      6  N   UNL     1      45.441   4.613   8.306  0.00  0.00    +0.000 NA
ENDROOT
BRANCH   4   7
ATOM      7  C   UNL     1      47.434   1.756   6.954  0.00  0.00    +0.000 C 
ATOM      8  N   UNL     1      48.471   2.492   6.452  0.00  0.00    +0.000 N 
ATOM      9  O   UNL     1      47.345   0.556   6.729  0.00  0.00    +0.000 OA
ATOM     10  H   UNL     1      48.464   3.501   6.412  0.00  0.00    +0.000 HD
ATOM     11  H   UNL     1      49.107   2.004   5.831  0.00  0.00    +0.000 HD
ENDBRANCH   4   7
BRANCH   1  12
ATOM     12  O   UNL     1      43.613   4.686   9.796  0.00  0.00    +0.000 OA
BRANCH  12  13
ATOM     13  C   UNL     1      43.523   4.281  11.164  0.00  0.00    +0.000 C 
BRANCH  13  17
ATOM     14  C   UNL     1      46.955   5.472  13.524  0.00  0.00    +0.000 A 
ATOM     15  C   UNL     1      46.231   6.432  12.816  0.00  0.00    +0.000 A 
ATOM     16  C   UNL     1      45.131   6.055  12.037  0.00  0.00    +0.000 A 
ATOM     17  C   UNL     1      44.747   4.712  11.943  0.00  0.00    +0.000 A 
ATOM     18  C   UNL     1      45.475   3.754  12.664  0.00  0.00    +0.000 A 
ATOM     19  C   UNL     1      46.570   4.132  13.442  0.00  0.00    +0.000 A 
BRANCH  14  21
ATOM     20  C   UNL     1      48.634   6.996  14.220  0.00  0.00    +0.000 C 
ATOM     21  O   UNL     1      48.036   5.711  14.325  0.00  0.00    +0.000 OA
ENDBRANCH  14  21
ENDBRANCH  13  17
ENDBRANCH  12  13
ENDBRANCH   1  12
TORSDOF 5
ENDMDL
MODEL 2
REMARK VINA RESULT:    -6.948      2.293      6.394
REMARK INTER + INTRA:          -9.557
REMARK INTER:                  -8.930
REMARK INTRA:                  -0.628
REMARK UNBOUND:                -0.578
REMARK  Name = 
REMARK  6 active torsions:
REMARK  status: ('A' for Active; 'I' for Inactive)
REMARK    1  A    between atoms: C_1  and  O_2
REMARK    2  A    between atoms: O_2  and  C_3
REMARK    3  A    between atoms: C_6  and  C_7
REMARK    4  A    between atoms: C_7  and  O_8
REMARK    5  A    between atoms: O_8  and  C_9
REMARK    6  A    between atoms: C_12  and  C_13
REMARK                            x       y       z     vdW  Elec       q    Type
REMARK                         _______ _______ _______ _____ _____    ______ ____
ROOT
ATOM      1  C   UNL     1      44.795   4.599  12.314  0.00  0.00    +0.000 A 
ATOM      2  C   UNL     1      44.960   5.977  12.281  0.00  0.00    +0.000 A 
ATOM      3  C   UNL     1      46.052   6.531  12.948  0.00  0.00    +0.000 A 
ATOM      4  C   UNL     1      46.938   5.689  13.623  0.00  0.00    +0.000 A 
ATOM      5  C   UNL     1      46.681   4.325  13.611  0.00  0.00    +0.000 A 
ATOM      6  N   UNL     1      45.634   3.762  12.959  0.00  0.00    +0.000 NA
ENDROOT
BRANCH   4   7
ATOM      7  C   UNL     1      48.116   6.174  14.369  0.00  0.00    +0.000 C 
ATOM      8  N   UNL     1      48.024   6.226  15.733  0.00  0.00    +0.000 N 
ATOM      9  O   UNL     1      49.127   6.550  13.791  0.00  0.00    +0.000 OA
ATOM     10  H   UNL     1      47.148   6.153  16.230  0.00  0.00    +0.000 HD
ATOM     11  H   UNL     1      48.803   6.658  16.218  0.00  0.00    +0.000 HD
ENDBRANCH   4   7
BRANCH   1  12
ATOM     12  O   UNL     1      43.697   4.087  11.652  0.00  0.00    +0.000 OA
BRANCH  12  13
ATOM     13  C   UNL     1      43.654   4.497  10.284  0.00  0.00    +0.000 C 
BRANCH  13  17
ATOM     14  C   UNL     1      46.318   2.215   7.742  0.00  0.00    +0.000 A 
ATOM     15  C   UNL     1      45.498   1.557   8.659  0.00  0.00    +0.000 A 
ATOM     16  C   UNL     1      44.646   2.286   9.496  0.00  0.00    +0.000 A 
ATOM     17  C   UNL     1      44.612   3.684   9.439  0.00  0.00    +0.000 A 
ATOM     18  C   UNL     1      45.434   4.339   8.510  0.00  0.00    +0.000 A 
ATOM     19  C   UNL     1      46.281   3.609   7.674  0.00  0.00    +0.000 A 
BRANCH  14  21
ATOM     20  C   UNL     1      47.687   2.437   5.817  0.00  0.00    +0.000 C 
ATOM     21  O   UNL     1      47.181   1.620   6.865  0.00  0.00    +0.000 OA
ENDBRANCH  14  21
ENDBRANCH  13  17
ENDBRANCH  12  13
ENDBRANCH   1  12
TORSDOF 5
ENDMDL
MODEL 3
REMARK VINA RESULT:    -6.894      1.618      2.087
REMARK INTER + INTRA:          -9.488
REMARK INTER:                  -8.909
REMARK INTRA:                  -0.578
REMARK UNBOUND:                -0.578
REMARK  Name = 
REMARK  6 active torsions:
REMARK  status: ('A' for Active; 'I' for Inactive)
REMARK    1  A    between atoms: C_1  and  O_2
REMARK    2  A    between atoms: O_2  and  C_3
REMARK    3  A    between atoms: C_6  and  C_7
REMARK    4  A    between atoms: C_7  and  O_8
REMARK    5  A    between atoms: O_8  and  C_9
REMARK    6  A    between atoms: C_12  and  C_13
REMARK                            x       y       z     vdW  Elec       q    Type
REMARK                         _______ _______ _______ _____ _____    ______ ____
ROOT
ATOM      1  C   UNL     1      44.500   3.986   8.965  0.00  0.00    +0.000 A 
ATOM      2  C   UNL     1      44.362   2.690   9.443  0.00  0.00    +0.000 A 
ATOM      3  C   UNL     1      45.217   1.706   8.948  0.00  0.00    +0.000 A 
ATOM      4  C   UNL     1      46.174   2.052   7.991  0.00  0.00    +0.000 A 
ATOM      5  C   UNL     1      46.224   3.372   7.565  0.00  0.00    +0.000 A 
ATOM      6  N   UNL     1      45.415   4.348   8.041  0.00  0.00    +0.000 NA
ENDROOT
BRANCH   4   7
ATOM      7  C   UNL     1      47.116   1.084   7.394  0.00  0.00    +0.000 C 
ATOM      8  N   UNL     1      46.855  -0.246   7.572  0.00  0.00    +0.000 N 
ATOM      9  O   UNL     1      48.113   1.455   6.790  0.00  0.00    +0.000 OA
ATOM     10  H   UNL     1      46.189  -0.592   8.248  0.00  0.00    +0.000 HD
ATOM     11  H   UNL     1      47.565  -0.890   7.244  0.00  0.00    +0.000 HD
ENDBRANCH   4   7
BRANCH   1  12
ATOM     12  O   UNL     1      43.630   4.932   9.471  0.00  0.00    +0.000 OA
BRANCH  12  13
ATOM     13  C   UNL     1      43.587   4.914  10.899  0.00  0.00    +0.000 C 
BRANCH  13  17
ATOM     14  C   UNL     1      46.559   7.658  12.450  0.00  0.00    +0.000 A 
ATOM     15  C   UNL     1      46.803   6.284  12.471  0.00  0.00    +0.000 A 
ATOM     16  C   UNL     1      45.842   5.388  11.987  0.00  0.00    +0.000 A 
ATOM     17  C   UNL     1      44.618   5.851  11.490  0.00  0.00    +0.000 A 
ATOM     18  C   UNL     1      44.383   7.234  11.466  0.00  0.00    +0.000 A 
ATOM     19  C   UNL     1      45.344   8.125  11.946  0.00  0.00    +0.000 A 
BRANCH  14  21
ATOM     20  C   UNL     1      47.703   9.678  11.961  0.00  0.00    +0.000 C 
ATOM     21  O   UNL     1      47.416   8.632  12.880  0.00  0.00    +0.000 OA
ENDBRANCH  14  21
ENDBRANCH  13  17
ENDBRANCH  12  13
ENDBRANCH   1  12
TORSDOF 5
ENDMDL
MODEL 4
REMARK VINA RESULT:    -5.968      2.518      6.420
REMARK INTER + INTRA:          -8.291
REMARK INTER:                  -7.670
REMARK INTRA:                  -0.621
REMARK UNBOUND:                -0.578
REMARK  Name = 
REMARK  6 active torsions:
REMARK  status: ('A' for Active; 'I' for Inactive)
REMARK    1  A    between atoms: C_1  and  O_2
REMARK    2  A    between atoms: O_2  and  C_3
REMARK    3  A    between atoms: C_6  and  C_7
REMARK    4  A    between atoms: C_7  and  O_8
REMARK    5  A    between atoms: O_8  and  C_9
REMARK    6  A    between atoms: C_12  and  C_13
REMARK                            x       y       z     vdW  Elec       q    Type
REMARK                         _______ _______ _______ _____ _____    ______ ____
ROOT
ATOM      1  C   UNL     1      45.069   5.824  12.084  0.00  0.00    +0.000 A 
ATOM      2  C   UNL     1      46.318   5.485  12.586  0.00  0.00    +0.000 A 
ATOM      3  C   UNL     1      47.234   6.507  12.834  0.00  0.00    +0.000 A 
ATOM      4  C   UNL     1      46.870   7.829  12.567  0.00  0.00    +0.000 A 
ATOM      5  C   UNL     1      45.603   8.066  12.052  0.00  0.00    +0.000 A 
ATOM      6  N   UNL     1      44.692   7.092  11.817  0.00  0.00    +0.000 NA
ENDROOT
BRANCH   4   7
ATOM      7  C   UNL     1      47.769   8.981  12.781  0.00  0.00    +0.000 C 
ATOM      8  N   UNL     1      48.131   9.712  11.684  0.00  0.00    +0.000 N 
ATOM      9  O   UNL     1      48.203   9.253  13.892  0.00  0.00    +0.000 OA
ATOM     10  H   UNL     1      47.992   9.392  10.736  0.00  0.00    +0.000 HD
ATOM     11  H   UNL     1      48.828  10.433  11.837  0.00  0.00    +0.000 HD
ENDBRANCH   4   7
BRANCH   1  12
ATOM     12  O   UNL     1      44.192   4.786  11.842  0.00  0.00    +0.000 OA
BRANCH  12  13
ATOM     13  C   UNL     1      43.671   4.821  10.511  0.00  0.00    +0.000 C 
BRANCH  13  17
ATOM     14  C   UNL     1      46.173   2.392   7.941  0.00  0.00    +0.000 A 
ATOM     15  C   UNL     1      46.142   3.777   7.774  0.00  0.00    +0.000 A 
ATOM     16  C   UNL     1      45.325   4.570   8.589  0.00  0.00    +0.000 A 
ATOM     17  C   UNL     1      44.515   3.987   9.572  0.00  0.00    +0.000 A 
ATOM     18  C   UNL     1      44.556   2.595   9.737  0.00  0.00    +0.000 A 
ATOM     19  C   UNL     1      45.375   1.808   8.926  0.00  0.00    +0.000 A 
BRANCH  14  21
ATOM     20  C   UNL     1      46.762   0.134   7.516  0.00  0.00    +0.000 C 
ATOM     21  O   UNL     1      46.933   1.514   7.221  0.00  0.00    +0.000 OA
ENDBRANCH  14  21
ENDBRANCH  13  17
ENDBRANCH  12  13
ENDBRANCH   1  12
TORSDOF 5
ENDMDL
MODEL 5
REMARK VINA RESULT:    -5.817      4.003      6.125
REMARK INTER + INTRA:          -8.096
REMARK INTER:                  -7.716
REMARK INTRA:                  -0.380
REMARK UNBOUND:                -0.578
REMARK  Name = 
REMARK  6 active torsions:
REMARK  status: ('A' for Active; 'I' for Inactive)
REMARK    1  A    between atoms: C_1  and  O_2
REMARK    2  A    between atoms: O_2  and  C_3
REMARK    3  A    between atoms: C_6  and  C_7
REMARK    4  A    between atoms: C_7  and  O_8
REMARK    5  A    between atoms: O_8  and  C_9
REMARK    6  A    between atoms: C_12  and  C_13
REMARK                            x       y       z     vdW  Elec       q    Type
REMARK                         _______ _______ _______ _____ _____    ______ ____
ROOT
ATOM      1  C   UNL     1      46.694   4.798  13.944  0.00  0.00    +0.000 A 
ATOM      2  C   UNL     1      46.083   5.875  13.316  0.00  0.00    +0.000 A 
ATOM      3  C   UNL     1      45.166   5.618  12.298  0.00  0.00    +0.000 A 
ATOM      4  C   UNL     1      44.894   4.294  11.943  0.00  0.00    +0.000 A 
ATOM      5  C   UNL     1      45.566   3.286  12.619  0.00  0.00    +0.000 A 
ATOM      6  N   UNL     1      46.451   3.510  13.620  0.00  0.00    +0.000 NA
ENDROOT
BRANCH   4   7
ATOM      7  C   UNL     1      43.951   3.915  10.872  0.00  0.00    +0.000 C 
ATOM      8  N   UNL     1      43.925   4.693   9.748  0.00  0.00    +0.000 N 
ATOM      9  O   UNL     1      43.196   2.961  10.997  0.00  0.00    +0.000 OA
ATOM     10  H   UNL     1      44.351   5.607   9.699  0.00  0.00    +0.000 HD
ATOM     11  H   UNL     1      43.202   4.477   9.071  0.00  0.00    +0.000 HD
ENDBRANCH   4   7
BRANCH   1  12
ATOM     12  O   UNL     1      47.604   5.091  14.940  0.00  0.00    +0.000 OA
BRANCH  12  13
ATOM     13  C   UNL     1      47.443   4.246  16.080  0.00  0.00    +0.000 C 
BRANCH  13  17
ATOM     14  C   UNL     1      51.201   2.794  17.673  0.00  0.00    +0.000 A 
ATOM     15  C   UNL     1      50.907   4.157  17.717  0.00  0.00    +0.000 A 
ATOM     16  C   UNL     1      49.703   4.639  17.191  0.00  0.00    +0.000 A 
ATOM     17  C   UNL     1      48.782   3.766  16.599  0.00  0.00    +0.000 A 
ATOM     18  C   UNL     1      49.081   2.396  16.564  0.00  0.00    +0.000 A 
ATOM     19  C   UNL     1      50.281   1.918  17.093  0.00  0.00    +0.000 A 
BRANCH  14  21
ATOM     20  C   UNL     1      52.579   0.864  17.743  0.00  0.00    +0.000 C 
ATOM     21  O   UNL     1      52.331   2.200  18.161  0.00  0.00    +0.000 OA
ENDBRANCH  14  21
ENDBRANCH  13  17
ENDBRANCH  12  13
ENDBRANCH   1  12
TORSDOF 5
ENDMDL
MODEL 6
REMARK VINA RESULT:    -5.742      3.487      7.253
REMARK INTER + INTRA:          -7.998
REMARK INTER:                  -7.575
REMARK INTRA:                  -0.424
REMARK UNBOUND:                -0.578
REMARK  Name = 
REMARK  6 active torsions:
REMARK  status: ('A' for Active; 'I' for Inactive)
REMARK    1  A    between atoms: C_1  and  O_2
REMARK    2  A    between atoms: O_2  and  C_3
REMARK    3  A    between atoms: C_6  and  C_7
REMARK    4  A    between atoms: C_7  and  O_8
REMARK    5  A    between atoms: O_8  and  C_9
REMARK    6  A    between atoms: C_12  and  C_13
REMARK                            x       y       z     vdW  Elec       q    Type
REMARK                         _______ _______ _______ _____ _____    ______ ____
ROOT
ATOM      1  C   UNL     1      46.472   4.509  14.370  0.00  0.00    +0.000 A 
ATOM      2  C   UNL     1      47.096   5.624  13.827  0.00  0.00    +0.000 A 
ATOM      3  C   UNL     1      48.127   6.225  14.548  0.00  0.00    +0.000 A 
ATOM      4  C   UNL     1      48.495   5.692  15.786  0.00  0.00    +0.000 A 
ATOM      5  C   UNL     1      47.801   4.584  16.252  0.00  0.00    +0.000 A 
ATOM      6  N   UNL     1      46.806   3.975  15.563  0.00  0.00    +0.000 NA
ENDROOT
BRANCH   4   7
ATOM      7  C   UNL     1      49.562   6.260  16.634  0.00  0.00    +0.000 C 
ATOM      8  N   UNL     1      49.181   6.949  17.752  0.00  0.00    +0.000 N 
ATOM      9  O   UNL     1      50.742   6.150  16.332  0.00  0.00    +0.000 OA
ATOM     10  H   UNL     1      48.235   7.261  17.913  0.00  0.00    +0.000 HD
ATOM     11  H   UNL     1      49.922   7.417  18.263  0.00  0.00    +0.000 HD
ENDBRANCH   4   7
BRANCH   1  12
ATOM     12  O   UNL     1      45.450   3.947  13.632  0.00  0.00    +0.000 OA
BRANCH  12  13
ATOM     13  C   UNL     1      44.863   4.882  12.725  0.00  0.00    +0.000 C 
BRANCH  13  17
ATOM     14  C   UNL     1      45.248   3.702   8.575  0.00  0.00    +0.000 A 
ATOM     15  C   UNL     1      44.742   2.799   9.511  0.00  0.00    +0.000 A 
ATOM     16  C   UNL     1      44.629   3.165  10.858  0.00  0.00    +0.000 A 
ATOM     17  C   UNL     1      45.034   4.434  11.290  0.00  0.00    +0.000 A 
ATOM     18  C   UNL     1      45.534   5.338  10.342  0.00  0.00    +0.000 A 
ATOM     19  C   UNL     1      45.643   4.972   8.999  0.00  0.00    +0.000 A 
BRANCH  14  21
ATOM     20  C   UNL     1      46.698   3.113   6.793  0.00  0.00    +0.000 C 
ATOM     21  O   UNL     1      45.396   3.472   7.236  0.00  0.00    +0.000 OA
ENDBRANCH  14  21
ENDBRANCH  13  17
ENDBRANCH  12  13
ENDBRANCH   1  12
TORSDOF 5
ENDMDL
MODEL 7
REMARK VINA RESULT:    -5.520      4.906      8.613
REMARK INTER + INTRA:          -7.712
REMARK INTER:                  -7.385
REMARK INTRA:                  -0.326
REMARK UNBOUND:                -0.578
REMARK  Name = 
REMARK  6 active torsions:
REMARK  status: ('A' for Active; 'I' for Inactive)
REMARK    1  A    between atoms: C_1  and  O_2
REMARK    2  A    between atoms: O_2  and  C_3
REMARK    3  A    between atoms: C_6  and  C_7
REMARK    4  A    between atoms: C_7  and  O_8
REMARK    5  A    between atoms: O_8  and  C_9
REMARK    6  A    between atoms: C_12  and  C_13
REMARK                            x       y       z     vdW  Elec       q    Type
REMARK                         _______ _______ _______ _____ _____    ______ ____
ROOT
ATOM      1  C   UNL     1      47.642   3.869  16.309  0.00  0.00    +0.000 A 
ATOM      2  C   UNL     1      48.468   2.910  16.880  0.00  0.00    +0.000 A 
ATOM      3  C   UNL     1      48.905   3.104  18.190  0.00  0.00    +0.000 A 
ATOM      4  C   UNL     1      48.503   4.250  18.880  0.00  0.00    +0.000 A 
ATOM      5  C   UNL     1      47.689   5.159  18.219  0.00  0.00    +0.000 A 
ATOM      6  N   UNL     1      47.240   4.985  16.953  0.00  0.00    +0.000 NA
ENDROOT
BRANCH   4   7
ATOM      7  C   UNL     1      48.920   4.556  20.263  0.00  0.00    +0.000 C 
ATOM      8  N   UNL     1      47.938   4.676  21.208  0.00  0.00    +0.000 N 
ATOM      9  O   UNL     1      50.096   4.732  20.550  0.00  0.00    +0.000 OA
ATOM     10  H   UNL     1      46.960   4.771  20.978  0.00  0.00    +0.000 HD
ATOM     11  H   UNL     1      48.236   4.986  22.126  0.00  0.00    +0.000 HD
ENDBRANCH   4   7
BRANCH   1  12
ATOM     12  O   UNL     1      47.238   3.649  15.008  0.00  0.00    +0.000 OA
BRANCH  12  13
ATOM     13  C   UNL     1      46.972   4.869  14.314  0.00  0.00    +0.000 C 
BRANCH  13  17
ATOM     14  C   UNL     1      44.776   4.236  10.634  0.00  0.00    +0.000 A 
ATOM     15  C   UNL     1      44.865   3.211  11.576  0.00  0.00    +0.000 A 
ATOM     16  C   UNL     1      45.586   3.400  12.761  0.00  0.00    +0.000 A 
ATOM     17  C   UNL     1      46.241   4.611  13.014  0.00  0.00    +0.000 A 
ATOM     18  C   UNL     1      46.141   5.639  12.066  0.00  0.00    +0.000 A 
ATOM     19  C   UNL     1      45.418   5.450  10.886  0.00  0.00    +0.000 A 
BRANCH  14  21
ATOM     20  C   UNL     1      44.869   3.933   8.283  0.00  0.00    +0.000 C 
ATOM     21  O   UNL     1      44.096   4.182   9.449  0.00  0.00    +0.000 OA
ENDBRANCH  14  21
ENDBRANCH  13  17
ENDBRANCH  12  13
ENDBRANCH   1  12
TORSDOF 5
ENDMDL
MODEL 8
REMARK VINA RESULT:    -5.416      3.854      6.130
REMARK INTER + INTRA:          -7.578
REMARK INTER:                  -7.216
REMARK INTRA:                  -0.362
REMARK UNBOUND:                -0.578
REMARK  Name = 
REMARK  6 active torsions:
REMARK  status: ('A' for Active; 'I' for Inactive)
REMARK    1  A    between atoms: C_1  and  O_2
REMARK    2  A    between atoms: O_2  and  C_3
REMARK    3  A    between atoms: C_6  and  C_7
REMARK    4  A    between atoms: C_7  and  O_8
REMARK    5  A    between atoms: O_8  and  C_9
REMARK    6  A    between atoms: C_12  and  C_13
REMARK                            x       y       z     vdW  Elec       q    Type
REMARK                         _______ _______ _______ _____ _____    ______ ____
ROOT
ATOM      1  C   UNL     1      46.727   4.552  13.637  0.00  0.00    +0.000 A 
ATOM      2  C   UNL     1      46.412   5.843  13.236  0.00  0.00    +0.000 A 
ATOM      3  C   UNL     1      45.395   6.016  12.297  0.00  0.00    +0.000 A 
ATOM      4  C   UNL     1      44.733   4.894  11.793  0.00  0.00    +0.000 A 
ATOM      5  C   UNL     1      45.131   3.644  12.245  0.00  0.00    +0.000 A 
ATOM      6  N   UNL     1      46.106   3.451  13.165  0.00  0.00    +0.000 NA
ENDROOT
BRANCH   4   7
ATOM      7  C   UNL     1      43.654   4.968  10.788  0.00  0.00    +0.000 C 
ATOM      8  N   UNL     1      43.976   4.678   9.491  0.00  0.00    +0.000 N 
ATOM      9  O   UNL     1      42.520   5.309  11.095  0.00  0.00    +0.000 OA
ATOM     10  H   UNL     1      44.928   4.623   9.158  0.00  0.00    +0.000 HD
ATOM     11  H   UNL     1      43.248   4.834   8.803  0.00  0.00    +0.000 HD
ENDBRANCH   4   7
BRANCH   1  12
ATOM     12  O   UNL     1      47.746   4.417  14.559  0.00  0.00    +0.000 OA
BRANCH  12  13
ATOM     13  C   UNL     1      47.414   3.492  15.596  0.00  0.00    +0.000 C 
BRANCH  13  17
ATOM     14  C   UNL     1      48.971   4.945  19.368  0.00  0.00    +0.000 A 
ATOM     15  C   UNL     1      49.737   4.078  18.587  0.00  0.00    +0.000 A 
ATOM     16  C   UNL     1      49.236   3.590  17.374  0.00  0.00    +0.000 A 
ATOM     17  C   UNL     1      47.957   3.949  16.933  0.00  0.00    +0.000 A 
ATOM     18  C   UNL     1      47.196   4.826  17.720  0.00  0.00    +0.000 A 
ATOM     19  C   UNL     1      47.700   5.315  18.927  0.00  0.00    +0.000 A 
BRANCH  14  21
ATOM     20  C   UNL     1      48.699   5.007  21.724  0.00  0.00    +0.000 C 
ATOM     21  O   UNL     1      49.349   5.498  20.559  0.00  0.00    +0.000 OA
ENDBRANCH  14  21
ENDBRANCH  13  17
ENDBRANCH  12  13
ENDBRANCH   1  12
TORSDOF 5
ENDMDL
MODEL 9
REMARK VINA RESULT:    -5.181      3.976      5.912
REMARK INTER + INTRA:          -7.274
REMARK INTER:                  -6.726
REMARK INTRA:                  -0.547
REMARK UNBOUND:                -0.578
REMARK  Name = 
REMARK  6 active torsions:
REMARK  status: ('A' for Active; 'I' for Inactive)
REMARK    1  A    between atoms: C_1  and  O_2
REMARK    2  A    between atoms: O_2  and  C_3
REMARK    3  A    between atoms: C_6  and  C_7
REMARK    4  A    between atoms: C_7  and  O_8
REMARK    5  A    between atoms: O_8  and  C_9
REMARK    6  A    between atoms: C_12  and  C_13
REMARK                            x       y       z     vdW  Elec       q    Type
REMARK                         _______ _______ _______ _____ _____    ______ ____
ROOT
ATOM      1  C   UNL     1      46.784   6.184  12.244  0.00  0.00    +0.000 A 
ATOM      2  C   UNL     1      46.200   6.168  10.985  0.00  0.00    +0.000 A 
ATOM      3  C   UNL     1      45.277   5.163  10.694  0.00  0.00    +0.000 A 
ATOM      4  C   UNL     1      44.975   4.211  11.670  0.00  0.00    +0.000 A 
ATOM      5  C   UNL     1      45.624   4.302  12.894  0.00  0.00    +0.000 A 
ATOM      6  N   UNL     1      46.513   5.276  13.205  0.00  0.00    +0.000 NA
ENDROOT
BRANCH   4   7
ATOM      7  C   UNL     1      44.025   3.101  11.460  0.00  0.00    +0.000 C 
ATOM      8  N   UNL     1      43.650   2.373  12.555  0.00  0.00    +0.000 N 
ATOM      9  O   UNL     1      43.613   2.818  10.343  0.00  0.00    +0.000 OA
ATOM     10  H   UNL     1      44.134   2.418  13.440  0.00  0.00    +0.000 HD
ATOM     11  H   UNL     1      43.079   1.555  12.374  0.00  0.00    +0.000 HD
ENDBRANCH   4   7
BRANCH   1  12
ATOM     12  O   UNL     1      47.700   7.187  12.493  0.00  0.00    +0.000 OA
BRANCH  12  13
ATOM     13  C   UNL     1      47.167   8.202  13.345  0.00  0.00    +0.000 C 
BRANCH  13  17
ATOM     14  C   UNL     1      45.365  11.467  11.141  0.00  0.00    +0.000 A 
ATOM     15  C   UNL     1      44.555  10.500  11.737  0.00  0.00    +0.000 A 
ATOM     16  C   UNL     1      45.128   9.432  12.438  0.00  0.00    +0.000 A 
ATOM     17  C   UNL     1      46.519   9.308  12.539  0.00  0.00    +0.000 A 
ATOM     18  C   UNL     1      47.326  10.287  11.944  0.00  0.00    +0.000 A 
ATOM     19  C   UNL     1      46.752  11.354  11.248  0.00  0.00    +0.000 A 
BRANCH  14  21
ATOM     20  C   UNL     1      45.212  12.578   9.050  0.00  0.00    +0.000 C 
ATOM     21  O   UNL     1      44.930  12.559  10.444  0.00  0.00    +0.000 OA
ENDBRANCH  14  21
ENDBRANCH  13  17
ENDBRANCH  12  13
ENDBRANCH   1  12
TORSDOF 5
ENDMDL
