MODEL 1
REMARK VINA RESULT:    -9.189      0.000      0.000
REMARK INTER + INTRA:         -13.923
REMARK INTER:                 -12.949
REMARK INTRA:                  -0.973
REMARK UNBOUND:                -0.973
REMARK  Name = 
REMARK  7 active torsions:
REMARK  status: ('A' for Active; 'I' for Inactive)
REMARK    1  A    between atoms: C_2  and  C_4
REMARK    2  A    between atoms: C_7  and  O_8
REMARK    3  A    between atoms: O_8  and  C_9
REMARK    4  A    between atoms: C_9  and  C_10
REMARK    5  A    between atoms: C_13  and  C_14
REMARK    6  A    between atoms: C_14  and  N_15
REMARK    7  A    between atoms: C_16  and  C_18
REMARK                            x       y       z     vdW  Elec       q    Type
REMARK                         _______ _______ _______ _____ _____    ______ ____
ROOT
ATOM      1  C   UNL     1      44.806   4.993  11.905  0.00  0.00    +0.000 A 
ATOM      2  C   UNL     1      45.538   4.205  12.802  0.00  0.00    +0.000 A 
ATOM      3  C   UNL     1      46.671   4.721  13.442  0.00  0.00    +0.000 A 
ATOM      4  C   UNL     1      47.079   6.040  13.212  0.00  0.00    +0.000 A 
ATOM      5  C   UNL     1      46.356   6.823  12.301  0.00  0.00    +0.000 A 
ATOM      6  C   UNL     1      45.224   6.308  11.662  0.00  0.00    +0.000 A 
ENDROOT
BRANCH   1   7
ATOM      7  C   UNL     1      43.596   4.428  11.197  0.00  0.00    +0.000 C 
BRANCH   7   8
ATOM      8  O   UNL     1      43.634   4.776   9.811  0.00  0.00    +0.000 OA
BRANCH   8  12
ATOM      9  C   UNL     1      46.388   2.489   7.762  0.00  0.00    +0.000 A 
ATOM     10  C   UNL     1      45.486   1.871   8.630  0.00  0.00    +0.000 A 
ATOM     11  C   UNL     1      44.559   2.653   9.324  0.00  0.00    +0.000 A 
ATOM     12  C   UNL     1      44.571   4.026   9.120  0.00  0.00    +0.000 A 
ATOM     13  N   UNL     1      45.441   4.649   8.299  0.00  0.00    +0.000 NA
ATOM     14  C   UNL     1      46.338   3.871   7.648  0.00  0.00    +0.000 A 
BRANCH   9  16
ATOM     15  N   UNL     1      48.433   2.485   6.453  0.00  0.00    +0.000 N 
ATOM     16  C   UNL     1      47.395   1.760   6.967  0.00  0.00    +0.000 C 
ATOM     17  O   UNL     1      47.336   0.546   6.817  0.00  0.00    +0.000 OA
ATOM     18  H   UNL     1      49.179   1.949   6.025  0.00  0.00    +0.000 HD
ATOM     19  H   UNL     1      48.656   3.418   6.773  0.00  0.00    +0.000 HD
ENDBRANCH   9  16
ENDBRANCH   8  12
ENDBRANCH   7   8
ENDBRANCH   1   7
BRANCH   4  20
ATOM     20  C   UNL     1      48.292   6.607  13.903  0.00  0.00    +0.000 C 
BRANCH  20  21
ATOM     21  N   UNL     1      48.048   6.814  15.307  0.00  0.00    +0.000 N 
ATOM     22  C   UNL     1      49.036   6.619  16.236  0.00  0.00    +0.000 C 
ATOM     23  O   UNL     1      50.181   6.307  15.913  0.00  0.00    +0.000 OA
ATOM     24  H   UNL     1      47.077   6.846  15.606  0.00  0.00    +0.000 HD
BRANCH  22  25
ATOM     25  C   UNL     1      48.678   6.865  17.638  0.00  0.00    +0.000 A 
ATOM     26  C   UNL     1      48.364   8.154  18.052  0.00  0.00    +0.000 A 
ATOM     27  S   UNL     1      47.919   8.256  19.695  0.00  0.00    +0.000 S 
ATOM     28  C   UNL     1      48.184   6.591  19.925  0.00  0.00    +0.000 A 
ATOM     29  N   UNL     1      48.004   6.018  21.147  0.00  0.00    +0.000 NA
ATOM     30  C   UNL     1      48.269   4.755  21.186  0.00  0.00    +0.000 A 
ATOM     31  N   UNL     1      48.692   4.012  20.115  0.00  0.00    +0.000 N 
ATOM     32  C   UNL     1      48.863   4.542  18.858  0.00  0.00    +0.000 A 
ATOM     33  O   UNL     1      49.205   3.839  17.911  0.00  0.00    +0.000 OA
ATOM     34  C   UNL     1      48.587   5.963  18.761  0.00  0.00    +0.000 A 
ATOM     35  H   UNL     1      48.877   3.024  20.210  0.00  0.00    +0.000 HD
ENDBRANCH  22  25
ENDBRANCH  20  21
ENDBRANCH   4  20
TORSDOF 7
ENDMDL
MODEL 2
REMARK VINA RESULT:    -8.649      4.015      5.789
REMARK INTER + INTRA:         -13.161
REMARK INTER:                 -12.126
REMARK INTRA:                  -1.035
REMARK UNBOUND:                -0.973
REMARK  Name = 
REMARK  7 active torsions:
REMARK  status: ('A' for Active; 'I' for Inactive)
REMARK    1  A    between atoms: C_2  and  C_4
REMARK    2  A    between atoms: C_7  and  O_8
REMARK    3  A    between atoms: O_8  and  C_9
REMARK    4  A    between atoms: C_9  and  C_10
REMARK    5  A    between atoms: C_13  and  C_14
REMARK    6  A    between atoms: C_14  and  N_15
REMARK    7  A    between atoms: C_16  and  C_18
REMARK                            x       y       z     vdW  Elec       q    Type
REMARK                         _______ _______ _______ _____ _____    ______ ____
ROOT
ATOM      1  C   UNL     1      44.834   3.913  12.170  0.00  0.00    +0.000 A 
ATOM      2  C   UNL     1      45.950   3.369  12.821  0.00  0.00    +0.000 A 
ATOM      3  C   UNL     1      46.916   4.203  13.394  0.00  0.00    +0.000 A 
ATOM      4  C   UNL     1      46.775   5.595  13.345  0.00  0.00    +0.000 A 
ATOM      5  C   UNL     1      45.668   6.139  12.679  0.00  0.00    +0.000 A 
ATOM      6  C   UNL     1      44.701   5.306  12.107  0.00  0.00    +0.000 A 
ENDROOT
BRANCH   1   7
ATOM      7  C   UNL     1      43.802   3.013  11.532  0.00  0.00    +0.000 C 
BRANCH   7   8
ATOM      8  O   UNL     1      43.497   3.478  10.214  0.00  0.00    +0.000 OA
BRANCH   8  12
ATOM      9  C   UNL     1      46.524   2.639   7.542  0.00  0.00    +0.000 A 
ATOM     10  C   UNL     1      46.068   3.952   7.679  0.00  0.00    +0.000 A 
ATOM     11  C   UNL     1      45.038   4.227   8.584  0.00  0.00    +0.000 A 
ATOM     12  C   UNL     1      44.506   3.175   9.317  0.00  0.00    +0.000 A 
ATOM     13  N   UNL     1      44.919   1.898   9.193  0.00  0.00    +0.000 NA
ATOM     14  C   UNL     1      45.908   1.654   8.301  0.00  0.00    +0.000 A 
BRANCH   9  16
ATOM     15  N   UNL     1      47.788   2.980   5.498  0.00  0.00    +0.000 N 
ATOM     16  C   UNL     1      47.616   2.240   6.632  0.00  0.00    +0.000 C 
ATOM     17  O   UNL     1      48.372   1.316   6.906  0.00  0.00    +0.000 OA
ATOM     18  H   UNL     1      48.619   2.774   4.955  0.00  0.00    +0.000 HD
ATOM     19  H   UNL     1      47.367   3.891   5.373  0.00  0.00    +0.000 HD
ENDBRANCH   9  16
ENDBRANCH   8  12
ENDBRANCH   7   8
ENDBRANCH   1   7
BRANCH   4  20
ATOM     20  C   UNL     1      47.806   6.501  13.967  0.00  0.00    +0.000 C 
BRANCH  20  21
ATOM     21  N   UNL     1      47.723   7.836  13.433  0.00  0.00    +0.000 N 
ATOM     22  C   UNL     1      48.380   8.182  12.281  0.00  0.00    +0.000 C 
ATOM     23  O   UNL     1      49.027   7.365  11.630  0.00  0.00    +0.000 OA
ATOM     24  H   UNL     1      47.393   8.564  14.061  0.00  0.00    +0.000 HD
BRANCH  22  25
ATOM     25  C   UNL     1      48.220   9.568  11.825  0.00  0.00    +0.000 A 
ATOM     26  C   UNL     1      49.322  10.267  11.348  0.00  0.00    +0.000 A 
ATOM     27  S   UNL     1      48.954  11.842  10.809  0.00  0.00    +0.000 S 
ATOM     28  C   UNL     1      47.318  11.666  11.245  0.00  0.00    +0.000 A 
ATOM     29  N   UNL     1      46.435  12.686  11.066  0.00  0.00    +0.000 NA
ATOM     30  C   UNL     1      45.235  12.427  11.467  0.00  0.00    +0.000 A 
ATOM     31  N   UNL     1      44.837  11.240  12.025  0.00  0.00    +0.000 N 
ATOM     32  C   UNL     1      45.688  10.174  12.202  0.00  0.00    +0.000 A 
ATOM     33  O   UNL     1      45.290   9.111  12.670  0.00  0.00    +0.000 OA
ATOM     34  C   UNL     1      47.053  10.417  11.776  0.00  0.00    +0.000 A 
ATOM     35  H   UNL     1      43.881  11.098  12.314  0.00  0.00    +0.000 HD
ENDBRANCH  22  25
ENDBRANCH  20  21
ENDBRANCH   4  20
TORSDOF 7
ENDMDL
MODEL 3
REMARK VINA RESULT:    -8.479      1.463      2.320
REMARK INTER + INTRA:         -12.922
REMARK INTER:                 -12.029
REMARK INTRA:                  -0.893
REMARK UNBOUND:                -0.973
REMARK  Name = 
REMARK  7 active torsions:
REMARK  status: ('A' for Active; 'I' for Inactive)
REMARK    1  A    between atoms: C_2  and  C_4
REMARK    2  A    between atoms: C_7  and  O_8
REMARK    3  A    between atoms: O_8  and  C_9
REMARK    4  A    between atoms: C_9  and  C_10
REMARK    5  A    between atoms: C_13  and  C_14
REMARK    6  A    between atoms: C_14  and  N_15
REMARK    7  A    between atoms: C_16  and  C_18
REMARK                            x       y       z     vdW  Elec       q    Type
REMARK                         _______ _______ _______ _____ _____    ______ ____
ROOT
ATOM      1  C   UNL     1      44.923   5.401  11.636  0.00  0.00    +0.000 A 
ATOM      2  C   UNL     1      45.623   6.557  11.266  0.00  0.00    +0.000 A 
ATOM      3  C   UNL     1      46.715   7.000  12.020  0.00  0.00    +0.000 A 
ATOM      4  C   UNL     1      47.140   6.284  13.146  0.00  0.00    +0.000 A 
ATOM      5  C   UNL     1      46.429   5.137  13.526  0.00  0.00    +0.000 A 
ATOM      6  C   UNL     1      45.338   4.694  12.772  0.00  0.00    +0.000 A 
ENDROOT
BRANCH   1   7
ATOM      7  C   UNL     1      43.730   4.935  10.835  0.00  0.00    +0.000 C 
BRANCH   7   8
ATOM      8  O   UNL     1      43.811   3.525  10.610  0.00  0.00    +0.000 OA
BRANCH   8  12
ATOM      9  C   UNL     1      46.358   2.685   7.477  0.00  0.00    +0.000 A 
ATOM     10  C   UNL     1      45.839   3.974   7.619  0.00  0.00    +0.000 A 
ATOM     11  C   UNL     1      44.973   4.249   8.681  0.00  0.00    +0.000 A 
ATOM     12  C   UNL     1      44.661   3.222   9.561  0.00  0.00    +0.000 A 
ATOM     13  N   UNL     1      45.137   1.966   9.438  0.00  0.00    +0.000 NA
ATOM     14  C   UNL     1      45.963   1.720   8.394  0.00  0.00    +0.000 A 
BRANCH   9  16
ATOM     15  N   UNL     1      47.272   3.021   5.253  0.00  0.00    +0.000 N 
ATOM     16  C   UNL     1      47.293   2.288   6.406  0.00  0.00    +0.000 C 
ATOM     17  O   UNL     1      48.094   1.375   6.561  0.00  0.00    +0.000 OA
ATOM     18  H   UNL     1      48.006   2.818   4.586  0.00  0.00    +0.000 HD
ATOM     19  H   UNL     1      46.825   3.926   5.192  0.00  0.00    +0.000 HD
ENDBRANCH   9  16
ENDBRANCH   8  12
ENDBRANCH   7   8
ENDBRANCH   1   7
BRANCH   4  20
ATOM     20  C   UNL     1      48.320   6.749  13.959  0.00  0.00    +0.000 C 
BRANCH  20  21
ATOM     21  N   UNL     1      48.102   6.541  15.367  0.00  0.00    +0.000 N 
ATOM     22  C   UNL     1      49.145   6.276  16.216  0.00  0.00    +0.000 C 
ATOM     23  O   UNL     1      50.310   6.249  15.827  0.00  0.00    +0.000 OA
ATOM     24  H   UNL     1      47.151   6.335  15.660  0.00  0.00    +0.000 HD
BRANCH  22  25
ATOM     25  C   UNL     1      48.808   6.088  17.632  0.00  0.00    +0.000 A 
ATOM     26  C   UNL     1      48.992   4.845  18.224  0.00  0.00    +0.000 A 
ATOM     27  S   UNL     1      48.603   4.812  19.885  0.00  0.00    +0.000 S 
ATOM     28  C   UNL     1      48.122   6.444  19.858  0.00  0.00    +0.000 A 
ATOM     29  N   UNL     1      47.648   7.049  20.981  0.00  0.00    +0.000 NA
ATOM     30  C   UNL     1      47.292   8.279  20.812  0.00  0.00    +0.000 A 
ATOM     31  N   UNL     1      47.373   8.960  19.625  0.00  0.00    +0.000 N 
ATOM     32  C   UNL     1      47.869   8.397  18.473  0.00  0.00    +0.000 A 
ATOM     33  O   UNL     1      47.964   9.048  17.436  0.00  0.00    +0.000 OA
ATOM     34  C   UNL     1      48.275   7.011  18.606  0.00  0.00    +0.000 A 
ATOM     35  H   UNL     1      47.083   9.925  19.560  0.00  0.00    +0.000 HD
ENDBRANCH  22  25
ENDBRANCH  20  21
ENDBRANCH   4  20
TORSDOF 7
ENDMDL
MODEL 4
REMARK VINA RESULT:    -8.473      1.802      2.145
REMARK INTER + INTRA:         -12.913
REMARK INTER:                 -12.458
REMARK INTRA:                  -0.455
REMARK UNBOUND:                -0.973
REMARK  Name = 
REMARK  7 active torsions:
REMARK  status: ('A' for Active; 'I' for Inactive)
REMARK    1  A    between atoms: C_2  and  C_4
REMARK    2  A    between atoms: C_7  and  O_8
REMARK    3  A    between atoms: O_8  and  C_9
REMARK    4  A    between atoms: C_9  and  C_10
REMARK    5  A    between atoms: C_13  and  C_14
REMARK    6  A    between atoms: C_14  and  N_15
REMARK    7  A    between atoms: C_16  and  C_18
REMARK                            x       y       z     vdW  Elec       q    Type
REMARK                         _______ _______ _______ _____ _____    ______ ____
ROOT
ATOM      1  C   UNL     1      44.469   5.857  11.315  0.00  0.00    +0.000 A 
ATOM      2  C   UNL     1      45.322   5.244  12.242  0.00  0.00    +0.000 A 
ATOM      3  C   UNL     1      46.230   6.005  12.987  0.00  0.00    +0.000 A 
ATOM      4  C   UNL     1      46.286   7.395  12.834  0.00  0.00    +0.000 A 
ATOM      5  C   UNL     1      45.444   8.007  11.895  0.00  0.00    +0.000 A 
ATOM      6  C   UNL     1      44.537   7.247  11.151  0.00  0.00    +0.000 A 
ENDROOT
BRANCH   1   7
ATOM      7  C   UNL     1      43.505   5.032  10.495  0.00  0.00    +0.000 C 
BRANCH   7   8
ATOM      8  O   UNL     1      43.872   3.651  10.552  0.00  0.00    +0.000 OA
BRANCH   8  12
ATOM      9  C   UNL     1      46.476   2.691   7.502  0.00  0.00    +0.000 A 
ATOM     10  C   UNL     1      46.057   4.014   7.662  0.00  0.00    +0.000 A 
ATOM     11  C   UNL     1      45.171   4.330   8.695  0.00  0.00    +0.000 A 
ATOM     12  C   UNL     1      44.739   3.308   9.530  0.00  0.00    +0.000 A 
ATOM     13  N   UNL     1      45.117   2.022   9.387  0.00  0.00    +0.000 NA
ATOM     14  C   UNL     1      45.965   1.738   8.371  0.00  0.00    +0.000 A 
BRANCH   9  16
ATOM     15  N   UNL     1      47.449   2.964   5.294  0.00  0.00    +0.000 N 
ATOM     16  C   UNL     1      47.421   2.249   6.457  0.00  0.00    +0.000 C 
ATOM     17  O   UNL     1      48.189   1.314   6.644  0.00  0.00    +0.000 OA
ATOM     18  H   UNL     1      48.191   2.728   4.646  0.00  0.00    +0.000 HD
ATOM     19  H   UNL     1      47.032   3.882   5.209  0.00  0.00    +0.000 HD
ENDBRANCH   9  16
ENDBRANCH   8  12
ENDBRANCH   7   8
ENDBRANCH   1   7
BRANCH   4  20
ATOM     20  C   UNL     1      47.253   8.225  13.639  0.00  0.00    +0.000 C 
BRANCH  20  21
ATOM     21  N   UNL     1      47.669   7.535  14.833  0.00  0.00    +0.000 N 
ATOM     22  C   UNL     1      48.864   6.867  14.888  0.00  0.00    +0.000 C 
ATOM     23  O   UNL     1      49.652   6.864  13.944  0.00  0.00    +0.000 OA
ATOM     24  H   UNL     1      46.951   7.337  15.524  0.00  0.00    +0.000 HD
BRANCH  22  25
ATOM     25  C   UNL     1      49.189   6.205  16.157  0.00  0.00    +0.000 A 
ATOM     26  C   UNL     1      50.238   6.682  16.933  0.00  0.00    +0.000 A 
ATOM     27  S   UNL     1      50.447   5.835  18.398  0.00  0.00    +0.000 S 
ATOM     28  C   UNL     1      49.178   4.765  18.021  0.00  0.00    +0.000 A 
ATOM     29  N   UNL     1      48.844   3.754  18.869  0.00  0.00    +0.000 NA
ATOM     30  C   UNL     1      47.884   3.000  18.446  0.00  0.00    +0.000 A 
ATOM     31  N   UNL     1      47.226   3.169  17.256  0.00  0.00    +0.000 N 
ATOM     32  C   UNL     1      47.512   4.191  16.381  0.00  0.00    +0.000 A 
ATOM     33  O   UNL     1      46.876   4.336  15.340  0.00  0.00    +0.000 OA
ATOM     34  C   UNL     1      48.592   5.062  16.805  0.00  0.00    +0.000 A 
ATOM     35  H   UNL     1      46.478   2.548  16.985  0.00  0.00    +0.000 HD
ENDBRANCH  22  25
ENDBRANCH  20  21
ENDBRANCH   4  20
TORSDOF 7
ENDMDL
MODEL 5
REMARK VINA RESULT:    -7.775      4.914      5.841
REMARK INTER + INTRA:         -11.931
REMARK INTER:                 -10.731
REMARK INTRA:                  -1.199
REMARK UNBOUND:                -0.973
REMARK  Name = 
REMARK  7 active torsions:
REMARK  status: ('A' for Active; 'I' for Inactive)
REMARK    1  A    between atoms: C_2  and  C_4
REMARK    2  A    between atoms: C_7  and  O_8
REMARK    3  A    between atoms: O_8  and  C_9
REMARK    4  A    between atoms: C_9  and  C_10
REMARK    5  A    between atoms: C_13  and  C_14
REMARK    6  A    between atoms: C_14  and  N_15
REMARK    7  A    between atoms: C_16  and  C_18
REMARK                            x       y       z     vdW  Elec       q    Type
REMARK                         _______ _______ _______ _____ _____    ______ ____
ROOT
ATOM      1  C   UNL     1      44.687   5.590  11.728  0.00  0.00    +0.000 A 
ATOM      2  C   UNL     1      45.916   5.801  12.366  0.00  0.00    +0.000 A 
ATOM      3  C   UNL     1      46.398   7.098  12.573  0.00  0.00    +0.000 A 
ATOM      4  C   UNL     1      45.650   8.208  12.164  0.00  0.00    +0.000 A 
ATOM      5  C   UNL     1      44.428   7.997  11.510  0.00  0.00    +0.000 A 
ATOM      6  C   UNL     1      43.946   6.701  11.304  0.00  0.00    +0.000 A 
ENDROOT
BRANCH   1   7
ATOM      7  C   UNL     1      44.178   4.188  11.484  0.00  0.00    +0.000 C 
BRANCH   7   8
ATOM      8  O   UNL     1      43.664   4.080  10.154  0.00  0.00    +0.000 OA
BRANCH   8  12
ATOM      9  C   UNL     1      46.499   2.643   7.526  0.00  0.00    +0.000 A 
ATOM     10  C   UNL     1      45.873   1.766   8.414  0.00  0.00    +0.000 A 
ATOM     11  C   UNL     1      44.917   2.262   9.305  0.00  0.00    +0.000 A 
ATOM     12  C   UNL     1      44.623   3.618   9.270  0.00  0.00    +0.000 A 
ATOM     13  N   UNL     1      45.223   4.488   8.432  0.00  0.00    +0.000 NA
ATOM     14  C   UNL     1      46.156   3.987   7.588  0.00  0.00    +0.000 A 
BRANCH   9  16
ATOM     15  N   UNL     1      47.538   2.904   5.347  0.00  0.00    +0.000 N 
ATOM     16  C   UNL     1      47.508   2.226   6.532  0.00  0.00    +0.000 C 
ATOM     17  O   UNL     1      48.322   1.345   6.778  0.00  0.00    +0.000 OA
ATOM     18  H   UNL     1      48.317   2.693   4.735  0.00  0.00    +0.000 HD
ATOM     19  H   UNL     1      47.071   3.792   5.216  0.00  0.00    +0.000 HD
ENDBRANCH   9  16
ENDBRANCH   8  12
ENDBRANCH   7   8
ENDBRANCH   1   7
BRANCH   4  20
ATOM     20  C   UNL     1      46.156   9.610  12.391  0.00  0.00    +0.000 C 
BRANCH  20  21
ATOM     21  N   UNL     1      47.433   9.816  11.757  0.00  0.00    +0.000 N 
ATOM     22  C   UNL     1      48.553  10.103  12.494  0.00  0.00    +0.000 C 
ATOM     23  O   UNL     1      48.529  10.151  13.722  0.00  0.00    +0.000 OA
ATOM     24  H   UNL     1      47.427  10.004  10.759  0.00  0.00    +0.000 HD
BRANCH  22  25
ATOM     25  C   UNL     1      49.802  10.287  11.745  0.00  0.00    +0.000 A 
ATOM     26  C   UNL     1      50.210  11.568  11.394  0.00  0.00    +0.000 A 
ATOM     27  S   UNL     1      51.707  11.609  10.576  0.00  0.00    +0.000 S 
ATOM     28  C   UNL     1      51.834   9.912  10.615  0.00  0.00    +0.000 A 
ATOM     29  N   UNL     1      52.899   9.280  10.049  0.00  0.00    +0.000 NA
ATOM     30  C   UNL     1      52.853   7.992  10.124  0.00  0.00    +0.000 A 
ATOM     31  N   UNL     1      51.844   7.279  10.718  0.00  0.00    +0.000 N 
ATOM     32  C   UNL     1      50.764   7.875  11.324  0.00  0.00    +0.000 A 
ATOM     33  O   UNL     1      49.897   7.208  11.881  0.00  0.00    +0.000 OA
ATOM     34  C   UNL     1      50.761   9.325  11.258  0.00  0.00    +0.000 A 
ATOM     35  H   UNL     1      51.871   6.271  10.748  0.00  0.00    +0.000 HD
ENDBRANCH  22  25
ENDBRANCH  20  21
ENDBRANCH   4  20
TORSDOF 7
ENDMDL
MODEL 6
REMARK VINA RESULT:    -7.689      3.041      8.983
REMARK INTER + INTRA:         -11.810
REMARK INTER:                 -10.395
REMARK INTRA:                  -1.414
REMARK UNBOUND:                -0.973
REMARK  Name = 
REMARK  7 active torsions:
REMARK  status: ('A' for Active; 'I' for Inactive)
REMARK    1  A    between atoms: C_2  and  C_4
REMARK    2  A    between atoms: C_7  and  O_8
REMARK    3  A    between atoms: O_8  and  C_9
REMARK    4  A    between atoms: C_9  and  C_10
REMARK    5  A    between atoms: C_13  and  C_14
REMARK    6  A    between atoms: C_14  and  N_15
REMARK    7  A    between atoms: C_16  and  C_18
REMARK                            x       y       z     vdW  Elec       q    Type
REMARK                         _______ _______ _______ _____ _____    ______ ____
ROOT
ATOM      1  C   UNL     1      49.683   8.342  15.754  0.00  0.00    +0.000 A 
ATOM      2  C   UNL     1      50.375   7.734  14.698  0.00  0.00    +0.000 A 
ATOM      3  C   UNL     1      49.781   7.606  13.438  0.00  0.00    +0.000 A 
ATOM      4  C   UNL     1      48.492   8.102  13.205  0.00  0.00    +0.000 A 
ATOM      5  C   UNL     1      47.794   8.696  14.266  0.00  0.00    +0.000 A 
ATOM      6  C   UNL     1      48.388   8.824  15.525  0.00  0.00    +0.000 A 
ENDROOT
BRANCH   1   7
ATOM      7  C   UNL     1      50.316   8.460  17.121  0.00  0.00    +0.000 C 
BRANCH   7   8
ATOM      8  O   UNL     1      49.589   7.670  18.066  0.00  0.00    +0.000 OA
BRANCH   8  12
ATOM      9  C   UNL     1      49.947   3.634  17.303  0.00  0.00    +0.000 A 
ATOM     10  C   UNL     1      48.678   4.213  17.374  0.00  0.00    +0.000 A 
ATOM     11  C   UNL     1      48.565   5.581  17.638  0.00  0.00    +0.000 A 
ATOM     12  C   UNL     1      49.729   6.316  17.818  0.00  0.00    +0.000 A 
ATOM     13  N   UNL     1      50.964   5.778  17.769  0.00  0.00    +0.000 NA
ATOM     14  C   UNL     1      51.048   4.449  17.525  0.00  0.00    +0.000 A 
BRANCH   9  16
ATOM     15  N   UNL     1      51.010   1.523  17.858  0.00  0.00    +0.000 N 
ATOM     16  C   UNL     1      50.183   2.205  17.012  0.00  0.00    +0.000 C 
ATOM     17  O   UNL     1      49.620   1.639  16.085  0.00  0.00    +0.000 OA
ATOM     18  H   UNL     1      51.056   0.520  17.721  0.00  0.00    +0.000 HD
ATOM     19  H   UNL     1      51.274   1.880  18.767  0.00  0.00    +0.000 HD
ENDBRANCH   9  16
ENDBRANCH   8  12
ENDBRANCH   7   8
ENDBRANCH   1   7
BRANCH   4  20
ATOM     20  C   UNL     1      47.848   7.977  11.849  0.00  0.00    +0.000 C 
BRANCH  20  21
ATOM     21  N   UNL     1      47.098   6.753  11.734  0.00  0.00    +0.000 N 
ATOM     22  C   UNL     1      45.729   6.750  11.802  0.00  0.00    +0.000 C 
ATOM     23  O   UNL     1      45.081   7.788  11.915  0.00  0.00    +0.000 OA
ATOM     24  H   UNL     1      47.609   5.886  11.870  0.00  0.00    +0.000 HD
BRANCH  22  25
ATOM     25  C   UNL     1      45.067   5.446  11.667  0.00  0.00    +0.000 A 
ATOM     26  C   UNL     1      44.386   4.906  12.750  0.00  0.00    +0.000 A 
ATOM     27  S   UNL     1      43.631   3.415  12.409  0.00  0.00    +0.000 S 
ATOM     28  C   UNL     1      44.234   3.413  10.818  0.00  0.00    +0.000 A 
ATOM     29  N   UNL     1      43.970   2.379   9.974  0.00  0.00    +0.000 NA
ATOM     30  C   UNL     1      44.514   2.492   8.808  0.00  0.00    +0.000 A 
ATOM     31  N   UNL     1      45.293   3.547   8.408  0.00  0.00    +0.000 N 
ATOM     32  C   UNL     1      45.565   4.624   9.218  0.00  0.00    +0.000 A 
ATOM     33  O   UNL     1      46.235   5.571   8.815  0.00  0.00    +0.000 OA
ATOM     34  C   UNL     1      44.985   4.542  10.545  0.00  0.00    +0.000 A 
ATOM     35  H   UNL     1      45.685   3.579   7.479  0.00  0.00    +0.000 HD
ENDBRANCH  22  25
ENDBRANCH  20  21
ENDBRANCH   4  20
TORSDOF 7
ENDMDL
MODEL 7
REMARK VINA RESULT:    -7.422      1.502      2.057
REMARK INTER + INTRA:         -11.432
REMARK INTER:                 -10.699
REMARK INTRA:                  -0.733
REMARK UNBOUND:                -0.973
REMARK  Name = 
REMARK  7 active torsions:
REMARK  status: ('A' for Active; 'I' for Inactive)
REMARK    1  A    between atoms: C_2  and  C_4
REMARK    2  A    between atoms: C_7  and  O_8
REMARK    3  A    between atoms: O_8  and  C_9
REMARK    4  A    between atoms: C_9  and  C_10
REMARK    5  A    between atoms: C_13  and  C_14
REMARK    6  A    between atoms: C_14  and  N_15
REMARK    7  A    between atoms: C_16  and  C_18
REMARK                            x       y       z     vdW  Elec       q    Type
REMARK                         _______ _______ _______ _____ _____    ______ ____
ROOT
ATOM      1  C   UNL     1      45.143   6.432  11.544  0.00  0.00    +0.000 A 
ATOM      2  C   UNL     1      44.967   7.801  11.785  0.00  0.00    +0.000 A 
ATOM      3  C   UNL     1      45.843   8.494  12.627  0.00  0.00    +0.000 A 
ATOM      4  C   UNL     1      46.923   7.836  13.227  0.00  0.00    +0.000 A 
ATOM      5  C   UNL     1      47.089   6.463  13.000  0.00  0.00    +0.000 A 
ATOM      6  C   UNL     1      46.214   5.770  12.157  0.00  0.00    +0.000 A 
ENDROOT
BRANCH   1   7
ATOM      7  C   UNL     1      44.183   5.679  10.653  0.00  0.00    +0.000 C 
BRANCH   7   8
ATOM      8  O   UNL     1      44.416   4.272  10.761  0.00  0.00    +0.000 OA
BRANCH   8  12
ATOM      9  C   UNL     1      46.444   2.754   7.508  0.00  0.00    +0.000 A 
ATOM     10  C   UNL     1      45.907   1.880   8.456  0.00  0.00    +0.000 A 
ATOM     11  C   UNL     1      45.226   2.403   9.558  0.00  0.00    +0.000 A 
ATOM     12  C   UNL     1      45.107   3.782   9.667  0.00  0.00    +0.000 A 
ATOM     13  N   UNL     1      45.628   4.647   8.773  0.00  0.00    +0.000 NA
ATOM     14  C   UNL     1      46.296   4.117   7.721  0.00  0.00    +0.000 A 
BRANCH   9  16
ATOM     15  N   UNL     1      47.102   3.120   5.199  0.00  0.00    +0.000 N 
ATOM     16  C   UNL     1      47.166   2.311   6.298  0.00  0.00    +0.000 C 
ATOM     17  O   UNL     1      47.839   1.288   6.293  0.00  0.00    +0.000 OA
ATOM     18  H   UNL     1      47.708   2.867   4.427  0.00  0.00    +0.000 HD
ATOM     19  H   UNL     1      46.787   4.080   5.248  0.00  0.00    +0.000 HD
ENDBRANCH   9  16
ENDBRANCH   8  12
ENDBRANCH   7   8
ENDBRANCH   1   7
BRANCH   4  20
ATOM     20  C   UNL     1      47.878   8.576  14.128  0.00  0.00    +0.000 C 
BRANCH  20  21
ATOM     21  N   UNL     1      48.102   7.859  15.358  0.00  0.00    +0.000 N 
ATOM     22  C   UNL     1      48.227   8.519  16.552  0.00  0.00    +0.000 C 
ATOM     23  O   UNL     1      48.107   9.740  16.637  0.00  0.00    +0.000 OA
ATOM     24  H   UNL     1      48.426   6.899  15.278  0.00  0.00    +0.000 HD
BRANCH  22  25
ATOM     25  C   UNL     1      48.447   7.688  17.742  0.00  0.00    +0.000 A 
ATOM     26  C   UNL     1      47.770   7.980  18.919  0.00  0.00    +0.000 A 
ATOM     27  S   UNL     1      48.099   6.887  20.187  0.00  0.00    +0.000 S 
ATOM     28  C   UNL     1      49.201   6.018  19.223  0.00  0.00    +0.000 A 
ATOM     29  N   UNL     1      49.872   4.946  19.725  0.00  0.00    +0.000 NA
ATOM     30  C   UNL     1      50.697   4.400  18.896  0.00  0.00    +0.000 A 
ATOM     31  N   UNL     1      50.909   4.824  17.610  0.00  0.00    +0.000 N 
ATOM     32  C   UNL     1      50.236   5.886  17.053  0.00  0.00    +0.000 A 
ATOM     33  O   UNL     1      50.421   6.216  15.885  0.00  0.00    +0.000 OA
ATOM     34  C   UNL     1      49.301   6.543  17.948  0.00  0.00    +0.000 A 
ATOM     35  H   UNL     1      51.565   4.349  17.009  0.00  0.00    +0.000 HD
ENDBRANCH  22  25
ENDBRANCH  20  21
ENDBRANCH   4  20
TORSDOF 7
ENDMDL
MODEL 8
REMARK VINA RESULT:    -7.341      3.883      9.071
REMARK INTER + INTRA:         -11.319
REMARK INTER:                 -10.295
REMARK INTRA:                  -1.024
REMARK UNBOUND:                -0.973
REMARK  Name = 
REMARK  7 active torsions:
REMARK  status: ('A' for Active; 'I' for Inactive)
REMARK    1  A    between atoms: C_2  and  C_4
REMARK    2  A    between atoms: C_7  and  O_8
REMARK    3  A    between atoms: O_8  and  C_9
REMARK    4  A    between atoms: C_9  and  C_10
REMARK    5  A    between atoms: C_13  and  C_14
REMARK    6  A    between atoms: C_14  and  N_15
REMARK    7  A    between atoms: C_16  and  C_18
REMARK                            x       y       z     vdW  Elec       q    Type
REMARK                         _______ _______ _______ _____ _____    ______ ____
ROOT
ATOM      1  C   UNL     1      49.938   6.551  16.218  0.00  0.00    +0.000 A 
ATOM      2  C   UNL     1      50.703   7.417  15.426  0.00  0.00    +0.000 A 
ATOM      3  C   UNL     1      50.239   7.831  14.172  0.00  0.00    +0.000 A 
ATOM      4  C   UNL     1      48.993   7.405  13.698  0.00  0.00    +0.000 A 
ATOM      5  C   UNL     1      48.235   6.526  14.485  0.00  0.00    +0.000 A 
ATOM      6  C   UNL     1      48.698   6.112  15.737  0.00  0.00    +0.000 A 
ENDROOT
BRANCH   1   7
ATOM      7  C   UNL     1      50.450   6.086  17.562  0.00  0.00    +0.000 C 
BRANCH   7   8
ATOM      8  O   UNL     1      49.801   4.867  17.936  0.00  0.00    +0.000 OA
BRANCH   8  12
ATOM      9  C   UNL     1      52.334   1.621  17.704  0.00  0.00    +0.000 A 
ATOM     10  C   UNL     1      51.009   1.494  17.283  0.00  0.00    +0.000 A 
ATOM     11  C   UNL     1      50.155   2.598  17.369  0.00  0.00    +0.000 A 
ATOM     12  C   UNL     1      50.664   3.787  17.873  0.00  0.00    +0.000 A 
ATOM     13  N   UNL     1      51.935   3.931  18.299  0.00  0.00    +0.000 NA
ATOM     14  C   UNL     1      52.739   2.845  18.218  0.00  0.00    +0.000 A 
BRANCH   9  16
ATOM     15  N   UNL     1      53.080  -0.583  18.395  0.00  0.00    +0.000 N 
ATOM     16  C   UNL     1      53.325   0.528  17.640  0.00  0.00    +0.000 C 
ATOM     17  O   UNL     1      54.299   0.589  16.901  0.00  0.00    +0.000 OA
ATOM     18  H   UNL     1      53.698  -1.371  18.239  0.00  0.00    +0.000 HD
ATOM     19  H   UNL     1      52.174  -0.778  18.800  0.00  0.00    +0.000 HD
ENDBRANCH   9  16
ENDBRANCH   8  12
ENDBRANCH   7   8
ENDBRANCH   1   7
BRANCH   4  20
ATOM     20  C   UNL     1      48.480   7.854  12.354  0.00  0.00    +0.000 C 
BRANCH  20  21
ATOM     21  N   UNL     1      47.739   6.807  11.699  0.00  0.00    +0.000 N 
ATOM     22  C   UNL     1      46.372   6.851  11.614  0.00  0.00    +0.000 C 
ATOM     23  O   UNL     1      45.723   7.801  12.048  0.00  0.00    +0.000 OA
ATOM     24  H   UNL     1      48.224   5.928  11.544  0.00  0.00    +0.000 HD
BRANCH  22  25
ATOM     25  C   UNL     1      45.720   5.735  10.919  0.00  0.00    +0.000 A 
ATOM     26  C   UNL     1      45.858   5.607   9.543  0.00  0.00    +0.000 A 
ATOM     27  S   UNL     1      45.085   4.228   8.902  0.00  0.00    +0.000 S 
ATOM     28  C   UNL     1      44.492   3.783  10.434  0.00  0.00    +0.000 A 
ATOM     29  N   UNL     1      43.712   2.679  10.586  0.00  0.00    +0.000 NA
ATOM     30  C   UNL     1      43.307   2.476  11.796  0.00  0.00    +0.000 A 
ATOM     31  N   UNL     1      43.616   3.274  12.867  0.00  0.00    +0.000 N 
ATOM     32  C   UNL     1      44.420   4.384  12.765  0.00  0.00    +0.000 A 
ATOM     33  O   UNL     1      44.708   5.056  13.752  0.00  0.00    +0.000 OA
ATOM     34  C   UNL     1      44.894   4.663  11.422  0.00  0.00    +0.000 A 
ATOM     35  H   UNL     1      43.272   3.057  13.790  0.00  0.00    +0.000 HD
ENDBRANCH  22  25
ENDBRANCH  20  21
ENDBRANCH   4  20
TORSDOF 7
ENDMDL
MODEL 9
REMARK VINA RESULT:    -7.332      2.178      3.614
REMARK INTER + INTRA:         -11.306
REMARK INTER:                 -10.521
REMARK INTRA:                  -0.784
REMARK UNBOUND:                -0.973
REMARK  Name = 
REMARK  7 active torsions:
REMARK  status: ('A' for Active; 'I' for Inactive)
REMARK    1  A    between atoms: C_2  and  C_4
REMARK    2  A    between atoms: C_7  and  O_8
REMARK    3  A    between atoms: O_8  and  C_9
REMARK    4  A    between atoms: C_9  and  C_10
REMARK    5  A    between atoms: C_13  and  C_14
REMARK    6  A    between atoms: C_14  and  N_15
REMARK    7  A    between atoms: C_16  and  C_18
REMARK                            x       y       z     vdW  Elec       q    Type
REMARK                         _______ _______ _______ _____ _____    ______ ____
ROOT
ATOM      1  C   UNL     1      44.813   4.729  11.625  0.00  0.00    +0.000 A 
ATOM      2  C   UNL     1      45.279   5.947  12.137  0.00  0.00    +0.000 A 
ATOM      3  C   UNL     1      46.161   5.972  13.222  0.00  0.00    +0.000 A 
ATOM      4  C   UNL     1      46.610   4.780  13.802  0.00  0.00    +0.000 A 
ATOM      5  C   UNL     1      46.131   3.562  13.301  0.00  0.00    +0.000 A 
ATOM      6  C   UNL     1      45.249   3.536  12.216  0.00  0.00    +0.000 A 
ENDROOT
BRANCH   1   7
ATOM      7  C   UNL     1      43.841   4.703  10.468  0.00  0.00    +0.000 C 
BRANCH   7   8
ATOM      8  O   UNL     1      43.743   3.376   9.942  0.00  0.00    +0.000 OA
BRANCH   8  12
ATOM      9  C   UNL     1      46.726   2.524   7.226  0.00  0.00    +0.000 A 
ATOM     10  C   UNL     1      46.275   1.526   8.091  0.00  0.00    +0.000 A 
ATOM     11  C   UNL     1      45.267   1.824   9.013  0.00  0.00    +0.000 A 
ATOM     12  C   UNL     1      44.749   3.112   9.029  0.00  0.00    +0.000 A 
ATOM     13  N   UNL     1      45.177   4.096   8.214  0.00  0.00    +0.000 NA
ATOM     14  C   UNL     1      46.164   3.787   7.339  0.00  0.00    +0.000 A 
BRANCH   9  16
ATOM     15  N   UNL     1      49.017   2.808   6.471  0.00  0.00    +0.000 N 
ATOM     16  C   UNL     1      47.772   2.315   6.204  0.00  0.00    +0.000 C 
ATOM     17  O   UNL     1      47.549   1.679   5.181  0.00  0.00    +0.000 OA
ATOM     18  H   UNL     1      49.748   2.542   5.823  0.00  0.00    +0.000 HD
ATOM     19  H   UNL     1      49.301   3.095   7.398  0.00  0.00    +0.000 HD
ENDBRANCH   9  16
ENDBRANCH   8  12
ENDBRANCH   7   8
ENDBRANCH   1   7
BRANCH   4  20
ATOM     20  C   UNL     1      47.568   4.797  14.965  0.00  0.00    +0.000 C 
BRANCH  20  21
ATOM     21  N   UNL     1      47.774   6.135  15.456  0.00  0.00    +0.000 N 
ATOM     22  C   UNL     1      48.975   6.516  15.996  0.00  0.00    +0.000 C 
ATOM     23  O   UNL     1      49.938   5.754  16.043  0.00  0.00    +0.000 OA
ATOM     24  H   UNL     1      46.944   6.693  15.634  0.00  0.00    +0.000 HD
BRANCH  22  25
ATOM     25  C   UNL     1      49.075   7.905  16.460  0.00  0.00    +0.000 A 
ATOM     26  C   UNL     1      48.506   8.268  17.674  0.00  0.00    +0.000 A 
ATOM     27  S   UNL     1      48.760   9.903  18.088  0.00  0.00    +0.000 S 
ATOM     28  C   UNL     1      49.593  10.197  16.633  0.00  0.00    +0.000 A 
ATOM     29  N   UNL     1      50.070  11.438  16.341  0.00  0.00    +0.000 NA
ATOM     30  C   UNL     1      50.653  11.527  15.193  0.00  0.00    +0.000 A 
ATOM     31  N   UNL     1      50.808  10.487  14.313  0.00  0.00    +0.000 N 
ATOM     32  C   UNL     1      50.366   9.212  14.576  0.00  0.00    +0.000 A 
ATOM     33  O   UNL     1      50.555   8.295  13.782  0.00  0.00    +0.000 OA
ATOM     34  C   UNL     1      49.692   9.060  15.852  0.00  0.00    +0.000 A 
ATOM     35  H   UNL     1      51.281  10.620  13.431  0.00  0.00    +0.000 HD
ENDBRANCH  22  25
ENDBRANCH  20  21
ENDBRANCH   4  20
TORSDOF 7
ENDMDL
