MODEL 1
REMARK VINA RESULT:    -8.704      0.000      0.000
REMARK INTER + INTRA:         -12.414
REMARK INTER:                 -11.757
REMARK INTRA:                  -0.657
REMARK UNBOUND:                -0.657
REMARK  Name = 
REMARK  6 active torsions:
REMARK  status: ('A' for Active; 'I' for Inactive)
REMARK    1  A    between atoms: C_2  and  C_25
REMARK    2  A    between atoms: N_3  and  C_4
REMARK    3  A    between atoms: C_4  and  C_5
REMARK    4  A    between atoms: C_8  and  C_9
REMARK    5  A    between atoms: C_9  and  N_10
REMARK    6  A    between atoms: C_11  and  C_13
REMARK                            x       y       z     vdW  Elec       q    Type
REMARK                         _______ _______ _______ _____ _____    ______ ____
ROOT
ATOM      1  C   UNL     1      44.610   5.336  11.255  0.00  0.00    +0.000 A 
ATOM      2  C   UNL     1      45.725   4.846  11.949  0.00  0.00    +0.000 A 
ATOM      3  C   UNL     1      46.551   5.712  12.673  0.00  0.00    +0.000 A 
ATOM      4  C   UNL     1      46.267   7.082  12.735  0.00  0.00    +0.000 A 
ATOM      5  C   UNL     1      45.156   7.572  12.035  0.00  0.00    +0.000 A 
ATOM      6  C   UNL     1      44.329   6.707  11.312  0.00  0.00    +0.000 A 
ENDROOT
BRANCH   1   7
ATOM      7  C   UNL     1      43.729   4.405  10.465  0.00  0.00    +0.000 C 
BRANCH   7  10
ATOM      8  O   UNL     1      45.389   5.090   8.354  0.00  0.00    +0.000 OA
ATOM      9  C   UNL     1      45.308   3.907   8.670  0.00  0.00    +0.000 C 
ATOM     10  N   UNL     1      44.497   3.455   9.692  0.00  0.00    +0.000 N 
ATOM     11  H   UNL     1      44.610   2.519  10.058  0.00  0.00    +0.000 HD
BRANCH   9  12
ATOM     12  C   UNL     1      46.135   2.897   7.968  0.00  0.00    +0.000 A 
ATOM     13  C   UNL     1      46.917   3.319   6.890  0.00  0.00    +0.000 A 
ATOM     14  C   UNL     1      47.669   2.371   6.222  0.00  0.00    +0.000 A 
ATOM     15  N   UNL     1      47.679   1.061   6.547  0.00  0.00    +0.000 NA
ATOM     16  C   UNL     1      46.896   0.678   7.579  0.00  0.00    +0.000 A 
ATOM     17  C   UNL     1      46.113   1.548   8.318  0.00  0.00    +0.000 A 
ENDBRANCH   9  12
ENDBRANCH   7  10
ENDBRANCH   1   7
BRANCH   4  18
ATOM     18  C   UNL     1      47.155   8.022  13.508  0.00  0.00    +0.000 C 
BRANCH  18  19
ATOM     19  N   UNL     1      47.637   7.417  14.724  0.00  0.00    +0.000 N 
ATOM     20  C   UNL     1      48.904   6.898  14.800  0.00  0.00    +0.000 C 
ATOM     21  O   UNL     1      49.692   6.971  13.859  0.00  0.00    +0.000 OA
ATOM     22  H   UNL     1      46.943   7.150  15.416  0.00  0.00    +0.000 HD
BRANCH  20  23
ATOM     23  C   UNL     1      49.301   6.303  16.083  0.00  0.00    +0.000 A 
ATOM     24  C   UNL     1      50.386   6.824  16.774  0.00  0.00    +0.000 A 
ATOM     25  S   UNL     1      50.679   6.057  18.269  0.00  0.00    +0.000 S 
ATOM     26  C   UNL     1      49.398   4.965  18.020  0.00  0.00    +0.000 A 
ATOM     27  N   UNL     1      49.115   4.001  18.937  0.00  0.00    +0.000 NA
ATOM     28  C   UNL     1      48.142   3.218  18.605  0.00  0.00    +0.000 A 
ATOM     29  N   UNL     1      47.424   3.317  17.441  0.00  0.00    +0.000 N 
ATOM     30  C   UNL     1      47.656   4.293  16.500  0.00  0.00    +0.000 A 
ATOM     31  O   UNL     1      46.969   4.377  15.487  0.00  0.00    +0.000 OA
ATOM     32  C   UNL     1      48.747   5.192  16.821  0.00  0.00    +0.000 A 
ATOM     33  H   UNL     1      46.670   2.677  17.244  0.00  0.00    +0.000 HD
ENDBRANCH  20  23
ENDBRANCH  18  19
ENDBRANCH   4  18
TORSDOF 6
ENDMDL
MODEL 2
REMARK VINA RESULT:    -8.252      1.959      2.258
REMARK INTER + INTRA:         -11.803
REMARK INTER:                 -10.910
REMARK INTRA:                  -0.893
REMARK UNBOUND:                -0.657
REMARK  Name = 
REMARK  6 active torsions:
REMARK  status: ('A' for Active; 'I' for Inactive)
REMARK    1  A    between atoms: C_2  and  C_25
REMARK    2  A    between atoms: N_3  and  C_4
REMARK    3  A    between atoms: C_4  and  C_5
REMARK    4  A    between atoms: C_8  and  C_9
REMARK    5  A    between atoms: C_9  and  N_10
REMARK    6  A    between atoms: C_11  and  C_13
REMARK                            x       y       z     vdW  Elec       q    Type
REMARK                         _______ _______ _______ _____ _____    ______ ____
ROOT
ATOM      1  C   UNL     1      44.983   5.538  11.367  0.00  0.00    +0.000 A 
ATOM      2  C   UNL     1      45.897   4.848  12.176  0.00  0.00    +0.000 A 
ATOM      3  C   UNL     1      46.831   5.545  12.950  0.00  0.00    +0.000 A 
ATOM      4  C   UNL     1      46.855   6.945  12.948  0.00  0.00    +0.000 A 
ATOM      5  C   UNL     1      45.945   7.633  12.134  0.00  0.00    +0.000 A 
ATOM      6  C   UNL     1      45.011   6.938  11.361  0.00  0.00    +0.000 A 
ENDROOT
BRANCH   1   7
ATOM      7  C   UNL     1      43.987   4.787  10.524  0.00  0.00    +0.000 C 
BRANCH   7  10
ATOM      8  O   UNL     1      45.678   5.206   8.370  0.00  0.00    +0.000 OA
ATOM      9  C   UNL     1      45.451   4.050   8.714  0.00  0.00    +0.000 C 
ATOM     10  N   UNL     1      44.609   3.729   9.760  0.00  0.00    +0.000 N 
ATOM     11  H   UNL     1      44.607   2.795  10.146  0.00  0.00    +0.000 HD
BRANCH   9  12
ATOM     12  C   UNL     1      46.125   2.926   8.021  0.00  0.00    +0.000 A 
ATOM     13  C   UNL     1      46.893   3.215   6.891  0.00  0.00    +0.000 A 
ATOM     14  C   UNL     1      47.502   2.163   6.232  0.00  0.00    +0.000 A 
ATOM     15  N   UNL     1      47.385   0.874   6.616  0.00  0.00    +0.000 NA
ATOM     16  C   UNL     1      46.618   0.623   7.700  0.00  0.00    +0.000 A 
ATOM     17  C   UNL     1      45.973   1.604   8.434  0.00  0.00    +0.000 A 
ENDBRANCH   9  12
ENDBRANCH   7  10
ENDBRANCH   1   7
BRANCH   4  18
ATOM     18  C   UNL     1      47.862   7.702  13.774  0.00  0.00    +0.000 C 
BRANCH  18  19
ATOM     19  N   UNL     1      47.841   7.281  15.153  0.00  0.00    +0.000 N 
ATOM     20  C   UNL     1      48.962   6.759  15.747  0.00  0.00    +0.000 C 
ATOM     21  O   UNL     1      50.033   6.676  15.151  0.00  0.00    +0.000 OA
ATOM     22  H   UNL     1      46.932   7.133  15.579  0.00  0.00    +0.000 HD
BRANCH  20  23
ATOM     23  C   UNL     1      48.839   6.358  17.155  0.00  0.00    +0.000 A 
ATOM     24  C   UNL     1      49.191   5.070  17.535  0.00  0.00    +0.000 A 
ATOM     25  S   UNL     1      49.043   4.785  19.210  0.00  0.00    +0.000 S 
ATOM     26  C   UNL     1      48.453   6.358  19.479  0.00  0.00    +0.000 A 
ATOM     27  N   UNL     1      48.101   6.766  20.728  0.00  0.00    +0.000 NA
ATOM     28  C   UNL     1      47.635   7.970  20.784  0.00  0.00    +0.000 A 
ATOM     29  N   UNL     1      47.494   8.803  19.704  0.00  0.00    +0.000 N 
ATOM     30  C   UNL     1      47.864   8.443  18.429  0.00  0.00    +0.000 A 
ATOM     31  O   UNL     1      47.760   9.226  17.491  0.00  0.00    +0.000 OA
ATOM     32  C   UNL     1      48.384   7.094  18.311  0.00  0.00    +0.000 A 
ATOM     33  H   UNL     1      47.128   9.736  19.816  0.00  0.00    +0.000 HD
ENDBRANCH  20  23
ENDBRANCH  18  19
ENDBRANCH   4  18
TORSDOF 6
ENDMDL
MODEL 3
REMARK VINA RESULT:    -7.789      2.208      2.411
REMARK INTER + INTRA:         -11.178
REMARK INTER:                 -10.268
REMARK INTRA:                  -0.910
REMARK UNBOUND:                -0.657
REMARK  Name = 
REMARK  6 active torsions:
REMARK  status: ('A' for Active; 'I' for Inactive)
REMARK    1  A    between atoms: C_2  and  C_25
REMARK    2  A    between atoms: N_3  and  C_4
REMARK    3  A    between atoms: C_4  and  C_5
REMARK    4  A    between atoms: C_8  and  C_9
REMARK    5  A    between atoms: C_9  and  N_10
REMARK    6  A    between atoms: C_11  and  C_13
REMARK                            x       y       z     vdW  Elec       q    Type
REMARK                         _______ _______ _______ _____ _____    ______ ____
ROOT
ATOM      1  C   UNL     1      45.055   5.169  12.093  0.00  0.00    +0.000 A 
ATOM      2  C   UNL     1      46.190   5.031  12.903  0.00  0.00    +0.000 A 
ATOM      3  C   UNL     1      46.888   6.159  13.349  0.00  0.00    +0.000 A 
ATOM      4  C   UNL     1      46.452   7.446  13.011  0.00  0.00    +0.000 A 
ATOM      5  C   UNL     1      45.321   7.582  12.195  0.00  0.00    +0.000 A 
ATOM      6  C   UNL     1      44.622   6.456  11.750  0.00  0.00    +0.000 A 
ENDROOT
BRANCH   1   7
ATOM      7  C   UNL     1      44.311   3.954  11.602  0.00  0.00    +0.000 C 
BRANCH   7  10
ATOM      8  O   UNL     1      44.143   4.366   8.868  0.00  0.00    +0.000 OA
ATOM      9  C   UNL     1      44.921   3.513   9.279  0.00  0.00    +0.000 C 
ATOM     10  N   UNL     1      45.069   3.214  10.619  0.00  0.00    +0.000 N 
ATOM     11  H   UNL     1      45.856   2.663  10.936  0.00  0.00    +0.000 HD
BRANCH   9  12
ATOM     12  C   UNL     1      45.786   2.778   8.325  0.00  0.00    +0.000 A 
ATOM     13  C   UNL     1      46.339   3.487   7.257  0.00  0.00    +0.000 A 
ATOM     14  C   UNL     1      47.125   2.796   6.355  0.00  0.00    +0.000 A 
ATOM     15  N   UNL     1      47.377   1.473   6.445  0.00  0.00    +0.000 NA
ATOM     16  C   UNL     1      46.811   0.808   7.476  0.00  0.00    +0.000 A 
ATOM     17  C   UNL     1      46.015   1.408   8.436  0.00  0.00    +0.000 A 
ENDBRANCH   9  12
ENDBRANCH   7  10
ENDBRANCH   1   7
BRANCH   4  18
ATOM     18  C   UNL     1      47.202   8.665  13.481  0.00  0.00    +0.000 C 
BRANCH  18  19
ATOM     19  N   UNL     1      47.197   8.769  14.919  0.00  0.00    +0.000 N 
ATOM     20  C   UNL     1      48.361   8.973  15.615  0.00  0.00    +0.000 C 
ATOM     21  O   UNL     1      49.439   9.126  15.046  0.00  0.00    +0.000 OA
ATOM     22  H   UNL     1      46.374   8.426  15.406  0.00  0.00    +0.000 HD
BRANCH  20  23
ATOM     23  C   UNL     1      48.251   9.064  17.077  0.00  0.00    +0.000 A 
ATOM     24  C   UNL     1      47.863  10.262  17.663  0.00  0.00    +0.000 A 
ATOM     25  S   UNL     1      47.730  10.182  19.362  0.00  0.00    +0.000 S 
ATOM     26  C   UNL     1      48.239   8.559  19.379  0.00  0.00    +0.000 A 
ATOM     27  N   UNL     1      48.367   7.881  20.551  0.00  0.00    +0.000 NA
ATOM     28  C   UNL     1      48.796   6.668  20.422  0.00  0.00    +0.000 A 
ATOM     29  N   UNL     1      49.103   6.073  19.225  0.00  0.00    +0.000 N 
ATOM     30  C   UNL     1      48.960   6.710  18.015  0.00  0.00    +0.000 A 
ATOM     31  O   UNL     1      49.206   6.136  16.960  0.00  0.00    +0.000 OA
ATOM     32  C   UNL     1      48.491   8.080  18.106  0.00  0.00    +0.000 A 
ATOM     33  H   UNL     1      49.427   5.119  19.192  0.00  0.00    +0.000 HD
ENDBRANCH  20  23
ENDBRANCH  18  19
ENDBRANCH   4  18
TORSDOF 6
ENDMDL
MODEL 4
REMARK VINA RESULT:    -7.721      1.835      2.503
REMARK INTER + INTRA:         -11.086
REMARK INTER:                 -10.195
REMARK INTRA:                  -0.892
REMARK UNBOUND:                -0.657
REMARK  Name = 
REMARK  6 active torsions:
REMARK  status: ('A' for Active; 'I' for Inactive)
REMARK    1  A    between atoms: C_2  and  C_25
REMARK    2  A    between atoms: N_3  and  C_4
REMARK    3  A    between atoms: C_4  and  C_5
REMARK    4  A    between atoms: C_8  and  C_9
REMARK    5  A    between atoms: C_9  and  N_10
REMARK    6  A    between atoms: C_11  and  C_13
REMARK                            x       y       z     vdW  Elec       q    Type
REMARK                         _______ _______ _______ _____ _____    ______ ____
ROOT
ATOM      1  C   UNL     1      45.397   6.516  11.452  0.00  0.00    +0.000 A 
ATOM      2  C   UNL     1      45.124   7.860  11.740  0.00  0.00    +0.000 A 
ATOM      3  C   UNL     1      45.894   8.558  12.677  0.00  0.00    +0.000 A 
ATOM      4  C   UNL     1      46.965   7.932  13.328  0.00  0.00    +0.000 A 
ATOM      5  C   UNL     1      47.232   6.586  13.043  0.00  0.00    +0.000 A 
ATOM      6  C   UNL     1      46.464   5.888  12.107  0.00  0.00    +0.000 A 
ENDROOT
BRANCH   1   7
ATOM      7  C   UNL     1      44.560   5.761  10.453  0.00  0.00    +0.000 C 
BRANCH   7  10
ATOM      8  O   UNL     1      43.944   3.168   9.696  0.00  0.00    +0.000 OA
ATOM      9  C   UNL     1      44.959   3.682   9.236  0.00  0.00    +0.000 C 
ATOM     10  N   UNL     1      45.368   4.960   9.562  0.00  0.00    +0.000 N 
ATOM     11  H   UNL     1      46.081   5.423   9.015  0.00  0.00    +0.000 HD
BRANCH   9  12
ATOM     12  C   UNL     1      45.784   2.939   8.253  0.00  0.00    +0.000 A 
ATOM     13  C   UNL     1      45.978   1.571   8.457  0.00  0.00    +0.000 A 
ATOM     14  C   UNL     1      46.767   0.885   7.553  0.00  0.00    +0.000 A 
ATOM     15  N   UNL     1      47.367   1.467   6.493  0.00  0.00    +0.000 NA
ATOM     16  C   UNL     1      47.179   2.796   6.334  0.00  0.00    +0.000 A 
ATOM     17  C   UNL     1      46.402   3.572   7.177  0.00  0.00    +0.000 A 
ENDBRANCH   9  12
ENDBRANCH   7  10
ENDBRANCH   1   7
BRANCH   4  18
ATOM     18  C   UNL     1      47.794   8.675  14.343  0.00  0.00    +0.000 C 
BRANCH  18  19
ATOM     19  N   UNL     1      48.099   7.851  15.485  0.00  0.00    +0.000 N 
ATOM     20  C   UNL     1      48.237   8.400  16.734  0.00  0.00    +0.000 C 
ATOM     21  O   UNL     1      48.059   9.598  16.939  0.00  0.00    +0.000 OA
ATOM     22  H   UNL     1      48.465   6.921  15.302  0.00  0.00    +0.000 HD
BRANCH  20  23
ATOM     23  C   UNL     1      48.548   7.476  17.833  0.00  0.00    +0.000 A 
ATOM     24  C   UNL     1      47.863   7.584  19.036  0.00  0.00    +0.000 A 
ATOM     25  S   UNL     1      48.303   6.403  20.184  0.00  0.00    +0.000 S 
ATOM     26  C   UNL     1      49.466   5.739  19.134  0.00  0.00    +0.000 A 
ATOM     27  N   UNL     1      50.235   4.686  19.522  0.00  0.00    +0.000 NA
ATOM     28  C   UNL     1      51.100   4.304  18.641  0.00  0.00    +0.000 A 
ATOM     29  N   UNL     1      51.261   4.879  17.407  0.00  0.00    +0.000 N 
ATOM     30  C   UNL     1      50.487   5.925  16.962  0.00  0.00    +0.000 A 
ATOM     31  O   UNL     1      50.631   6.391  15.836  0.00  0.00    +0.000 OA
ATOM     32  C   UNL     1      49.506   6.398  17.919  0.00  0.00    +0.000 A 
ATOM     33  H   UNL     1      51.953   4.529  16.761  0.00  0.00    +0.000 HD
ENDBRANCH  20  23
ENDBRANCH  18  19
ENDBRANCH   4  18
TORSDOF 6
ENDMDL
MODEL 5
REMARK VINA RESULT:    -7.293      4.046      6.893
REMARK INTER + INTRA:         -10.508
REMARK INTER:                  -9.512
REMARK INTRA:                  -0.996
REMARK UNBOUND:                -0.657
REMARK  Name = 
REMARK  6 active torsions:
REMARK  status: ('A' for Active; 'I' for Inactive)
REMARK    1  A    between atoms: C_2  and  C_25
REMARK    2  A    between atoms: N_3  and  C_4
REMARK    3  A    between atoms: C_4  and  C_5
REMARK    4  A    between atoms: C_8  and  C_9
REMARK    5  A    between atoms: C_9  and  N_10
REMARK    6  A    between atoms: C_11  and  C_13
REMARK                            x       y       z     vdW  Elec       q    Type
REMARK                         _______ _______ _______ _____ _____    ______ ____
ROOT
ATOM      1  C   UNL     1      44.883   9.153  11.869  0.00  0.00    +0.000 A 
ATOM      2  C   UNL     1      44.260   7.996  11.381  0.00  0.00    +0.000 A 
ATOM      3  C   UNL     1      44.707   6.728  11.770  0.00  0.00    +0.000 A 
ATOM      4  C   UNL     1      45.772   6.593  12.669  0.00  0.00    +0.000 A 
ATOM      5  C   UNL     1      46.398   7.751  13.151  0.00  0.00    +0.000 A 
ATOM      6  C   UNL     1      45.951   9.018  12.764  0.00  0.00    +0.000 A 
ENDROOT
BRANCH   1   7
ATOM      7  C   UNL     1      44.409  10.516  11.440  0.00  0.00    +0.000 C 
BRANCH   7  10
ATOM      8  O   UNL     1      42.091  10.423   9.924  0.00  0.00    +0.000 OA
ATOM      9  C   UNL     1      41.998  10.724  11.110  0.00  0.00    +0.000 C 
ATOM     10  N   UNL     1      43.090  10.818  11.950  0.00  0.00    +0.000 N 
ATOM     11  H   UNL     1      42.962  10.862  12.952  0.00  0.00    +0.000 HD
BRANCH   9  12
ATOM     12  C   UNL     1      40.664  10.964  11.710  0.00  0.00    +0.000 A 
ATOM     13  C   UNL     1      40.573  11.858  12.778  0.00  0.00    +0.000 A 
ATOM     14  C   UNL     1      39.332  12.063  13.352  0.00  0.00    +0.000 A 
ATOM     15  N   UNL     1      38.208  11.438  12.942  0.00  0.00    +0.000 NA
ATOM     16  C   UNL     1      38.330  10.562  11.920  0.00  0.00    +0.000 A 
ATOM     17  C   UNL     1      39.524  10.292  11.274  0.00  0.00    +0.000 A 
ENDBRANCH   9  12
ENDBRANCH   7  10
ENDBRANCH   1   7
BRANCH   4  18
ATOM     18  C   UNL     1      46.264   5.232  13.087  0.00  0.00    +0.000 C 
BRANCH  18  19
ATOM     19  N   UNL     1      46.809   5.252  14.421  0.00  0.00    +0.000 N 
ATOM     20  C   UNL     1      47.326   4.115  14.988  0.00  0.00    +0.000 C 
ATOM     21  O   UNL     1      47.392   3.054  14.371  0.00  0.00    +0.000 OA
ATOM     22  H   UNL     1      46.562   6.040  15.012  0.00  0.00    +0.000 HD
BRANCH  20  23
ATOM     23  C   UNL     1      47.858   4.238  16.352  0.00  0.00    +0.000 A 
ATOM     24  C   UNL     1      47.434   3.355  17.337  0.00  0.00    +0.000 A 
ATOM     25  S   UNL     1      48.188   3.599  18.847  0.00  0.00    +0.000 S 
ATOM     26  C   UNL     1      49.069   4.928  18.252  0.00  0.00    +0.000 A 
ATOM     27  N   UNL     1      49.912   5.624  19.062  0.00  0.00    +0.000 NA
ATOM     28  C   UNL     1      50.489   6.630  18.492  0.00  0.00    +0.000 A 
ATOM     29  N   UNL     1      50.303   6.998  17.184  0.00  0.00    +0.000 N 
ATOM     30  C   UNL     1      49.485   6.305  16.322  0.00  0.00    +0.000 A 
ATOM     31  O   UNL     1      49.371   6.638  15.147  0.00  0.00    +0.000 OA
ATOM     32  C   UNL     1      48.804   5.172  16.917  0.00  0.00    +0.000 A 
ATOM     33  H   UNL     1      50.790   7.792  16.797  0.00  0.00    +0.000 HD
ENDBRANCH  20  23
ENDBRANCH  18  19
ENDBRANCH   4  18
TORSDOF 6
ENDMDL
MODEL 6
REMARK VINA RESULT:    -7.228      3.142      8.782
REMARK INTER + INTRA:         -10.420
REMARK INTER:                  -9.396
REMARK INTRA:                  -1.025
REMARK UNBOUND:                -0.657
REMARK  Name = 
REMARK  6 active torsions:
REMARK  status: ('A' for Active; 'I' for Inactive)
REMARK    1  A    between atoms: C_2  and  C_25
REMARK    2  A    between atoms: N_3  and  C_4
REMARK    3  A    between atoms: C_4  and  C_5
REMARK    4  A    between atoms: C_8  and  C_9
REMARK    5  A    between atoms: C_9  and  N_10
REMARK    6  A    between atoms: C_11  and  C_13
REMARK                            x       y       z     vdW  Elec       q    Type
REMARK                         _______ _______ _______ _____ _____    ______ ____
ROOT
ATOM      1  C   UNL     1      50.416   7.407  15.332  0.00  0.00    +0.000 A 
ATOM      2  C   UNL     1      49.106   6.914  15.400  0.00  0.00    +0.000 A 
ATOM      3  C   UNL     1      48.242   7.034  14.306  0.00  0.00    +0.000 A 
ATOM      4  C   UNL     1      48.677   7.630  13.116  0.00  0.00    +0.000 A 
ATOM      5  C   UNL     1      49.986   8.129  13.052  0.00  0.00    +0.000 A 
ATOM      6  C   UNL     1      50.851   8.008  14.144  0.00  0.00    +0.000 A 
ENDROOT
BRANCH   1   7
ATOM      7  C   UNL     1      51.342   7.290  16.514  0.00  0.00    +0.000 C 
BRANCH   7  10
ATOM      8  O   UNL     1      50.383   5.559  18.454  0.00  0.00    +0.000 OA
ATOM      9  C   UNL     1      51.253   5.152  17.691  0.00  0.00    +0.000 C 
ATOM     10  N   UNL     1      51.813   5.936  16.703  0.00  0.00    +0.000 N 
ATOM     11  H   UNL     1      52.367   5.516  15.969  0.00  0.00    +0.000 HD
BRANCH   9  12
ATOM     12  C   UNL     1      51.718   3.747  17.782  0.00  0.00    +0.000 A 
ATOM     13  C   UNL     1      50.846   2.737  17.371  0.00  0.00    +0.000 A 
ATOM     14  C   UNL     1      51.272   1.426  17.479  0.00  0.00    +0.000 A 
ATOM     15  N   UNL     1      52.479   1.072  17.968  0.00  0.00    +0.000 NA
ATOM     16  C   UNL     1      53.293   2.069  18.378  0.00  0.00    +0.000 A 
ATOM     17  C   UNL     1      52.965   3.412  18.306  0.00  0.00    +0.000 A 
ENDBRANCH   9  12
ENDBRANCH   7  10
ENDBRANCH   1   7
BRANCH   4  18
ATOM     18  C   UNL     1      47.751   7.768  11.936  0.00  0.00    +0.000 C 
BRANCH  18  19
ATOM     19  N   UNL     1      47.021   6.550  11.689  0.00  0.00    +0.000 N 
ATOM     20  C   UNL     1      45.662   6.496  11.862  0.00  0.00    +0.000 C 
ATOM     21  O   UNL     1      45.008   7.486  12.182  0.00  0.00    +0.000 OA
ATOM     22  H   UNL     1      47.557   5.689  11.648  0.00  0.00    +0.000 HD
BRANCH  20  23
ATOM     23  C   UNL     1      45.010   5.209  11.585  0.00  0.00    +0.000 A 
ATOM     24  C   UNL     1      44.297   4.570  12.591  0.00  0.00    +0.000 A 
ATOM     25  S   UNL     1      43.557   3.117  12.090  0.00  0.00    +0.000 S 
ATOM     26  C   UNL     1      44.208   3.263  10.525  0.00  0.00    +0.000 A 
ATOM     27  N   UNL     1      43.972   2.314   9.580  0.00  0.00    +0.000 NA
ATOM     28  C   UNL     1      44.555   2.531   8.447  0.00  0.00    +0.000 A 
ATOM     29  N   UNL     1      45.349   3.615   8.175  0.00  0.00    +0.000 N 
ATOM     30  C   UNL     1      45.590   4.614   9.089  0.00  0.00    +0.000 A 
ATOM     31  O   UNL     1      46.274   5.591   8.800  0.00  0.00    +0.000 OA
ATOM     32  C   UNL     1      44.966   4.411  10.382  0.00  0.00    +0.000 A 
ATOM     33  H   UNL     1      45.771   3.730   7.266  0.00  0.00    +0.000 HD
ENDBRANCH  20  23
ENDBRANCH  18  19
ENDBRANCH   4  18
TORSDOF 6
ENDMDL
MODEL 7
REMARK VINA RESULT:    -7.089      4.075      6.544
REMARK INTER + INTRA:         -10.233
REMARK INTER:                  -9.450
REMARK INTRA:                  -0.782
REMARK UNBOUND:                -0.657
REMARK  Name = 
REMARK  6 active torsions:
REMARK  status: ('A' for Active; 'I' for Inactive)
REMARK    1  A    between atoms: C_2  and  C_25
REMARK    2  A    between atoms: N_3  and  C_4
REMARK    3  A    between atoms: C_4  and  C_5
REMARK    4  A    between atoms: C_8  and  C_9
REMARK    5  A    between atoms: C_9  and  N_10
REMARK    6  A    between atoms: C_11  and  C_13
REMARK                            x       y       z     vdW  Elec       q    Type
REMARK                         _______ _______ _______ _____ _____    ______ ____
ROOT
ATOM      1  C   UNL     1      45.135   7.976  11.925  0.00  0.00    +0.000 A 
ATOM      2  C   UNL     1      44.298   6.851  11.944  0.00  0.00    +0.000 A 
ATOM      3  C   UNL     1      44.675   5.694  12.633  0.00  0.00    +0.000 A 
ATOM      4  C   UNL     1      45.886   5.645  13.335  0.00  0.00    +0.000 A 
ATOM      5  C   UNL     1      46.725   6.768  13.310  0.00  0.00    +0.000 A 
ATOM      6  C   UNL     1      46.348   7.926  12.623  0.00  0.00    +0.000 A 
ENDROOT
BRANCH   1   7
ATOM      7  C   UNL     1      44.734   9.217  11.172  0.00  0.00    +0.000 C 
BRANCH   7  10
ATOM      8  O   UNL     1      42.742  10.276   9.563  0.00  0.00    +0.000 OA
ATOM      9  C   UNL     1      42.564  10.265  10.776  0.00  0.00    +0.000 C 
ATOM     10  N   UNL     1      43.498   9.779  11.669  0.00  0.00    +0.000 N 
ATOM     11  H   UNL     1      43.240   9.594  12.629  0.00  0.00    +0.000 HD
BRANCH   9  12
ATOM     12  C   UNL     1      41.282  10.752  11.340  0.00  0.00    +0.000 A 
ATOM     13  C   UNL     1      41.315  11.865  12.184  0.00  0.00    +0.000 A 
ATOM     14  C   UNL     1      40.122  12.303  12.728  0.00  0.00    +0.000 A 
ATOM     15  N   UNL     1      38.933  11.709  12.496  0.00  0.00    +0.000 NA
ATOM     16  C   UNL     1      38.935  10.622  11.693  0.00  0.00    +0.000 A 
ATOM     17  C   UNL     1      40.072  10.107  11.094  0.00  0.00    +0.000 A 
ENDBRANCH   9  12
ENDBRANCH   7  10
ENDBRANCH   1   7
BRANCH   4  18
ATOM     18  C   UNL     1      46.302   4.401  14.075  0.00  0.00    +0.000 C 
BRANCH  18  19
ATOM     19  N   UNL     1      47.427   4.649  14.941  0.00  0.00    +0.000 N 
ATOM     20  C   UNL     1      47.453   4.158  16.221  0.00  0.00    +0.000 C 
ATOM     21  O   UNL     1      46.552   3.449  16.663  0.00  0.00    +0.000 OA
ATOM     22  H   UNL     1      48.057   5.402  14.679  0.00  0.00    +0.000 HD
BRANCH  20  23
ATOM     23  C   UNL     1      48.643   4.466  17.025  0.00  0.00    +0.000 A 
ATOM     24  C   UNL     1      48.752   5.705  17.644  0.00  0.00    +0.000 A 
ATOM     25  S   UNL     1      50.165   5.881  18.582  0.00  0.00    +0.000 S 
ATOM     26  C   UNL     1      50.709   4.327  18.151  0.00  0.00    +0.000 A 
ATOM     27  N   UNL     1      51.899   3.853  18.609  0.00  0.00    +0.000 NA
ATOM     28  C   UNL     1      52.206   2.675  18.176  0.00  0.00    +0.000 A 
ATOM     29  N   UNL     1      51.427   1.927  17.330  0.00  0.00    +0.000 N 
ATOM     30  C   UNL     1      50.204   2.354  16.867  0.00  0.00    +0.000 A 
ATOM     31  O   UNL     1      49.514   1.644  16.142  0.00  0.00    +0.000 OA
ATOM     32  C   UNL     1      49.818   3.678  17.316  0.00  0.00    +0.000 A 
ATOM     33  H   UNL     1      51.721   1.010  17.033  0.00  0.00    +0.000 HD
ENDBRANCH  20  23
ENDBRANCH  18  19
ENDBRANCH   4  18
TORSDOF 6
ENDMDL
MODEL 8
REMARK VINA RESULT:    -6.957      4.622      7.568
REMARK INTER + INTRA:         -10.054
REMARK INTER:                  -9.048
REMARK INTRA:                  -1.006
REMARK UNBOUND:                -0.657
REMARK  Name = 
REMARK  6 active torsions:
REMARK  status: ('A' for Active; 'I' for Inactive)
REMARK    1  A    between atoms: C_2  and  C_25
REMARK    2  A    between atoms: N_3  and  C_4
REMARK    3  A    between atoms: C_4  and  C_5
REMARK    4  A    between atoms: C_8  and  C_9
REMARK    5  A    between atoms: C_9  and  N_10
REMARK    6  A    between atoms: C_11  and  C_13
REMARK                            x       y       z     vdW  Elec       q    Type
REMARK                         _______ _______ _______ _____ _____    ______ ____
ROOT
ATOM      1  C   UNL     1      50.235   9.009  11.944  0.00  0.00    +0.000 A 
ATOM      2  C   UNL     1      49.377  10.052  12.319  0.00  0.00    +0.000 A 
ATOM      3  C   UNL     1      48.051   9.789  12.681  0.00  0.00    +0.000 A 
ATOM      4  C   UNL     1      47.563   8.476  12.695  0.00  0.00    +0.000 A 
ATOM      5  C   UNL     1      48.420   7.435  12.313  0.00  0.00    +0.000 A 
ATOM      6  C   UNL     1      49.746   7.697  11.953  0.00  0.00    +0.000 A 
ENDROOT
BRANCH   1   7
ATOM      7  C   UNL     1      51.658   9.295  11.543  0.00  0.00    +0.000 C 
BRANCH   7  10
ATOM      8  O   UNL     1      53.550   7.336  11.033  0.00  0.00    +0.000 OA
ATOM      9  C   UNL     1      52.915   7.791  10.087  0.00  0.00    +0.000 C 
ATOM     10  N   UNL     1      51.964   8.782  10.227  0.00  0.00    +0.000 N 
ATOM     11  H   UNL     1      51.322   8.984   9.473  0.00  0.00    +0.000 HD
BRANCH   9  12
ATOM     12  C   UNL     1      53.127   7.247   8.724  0.00  0.00    +0.000 A 
ATOM     13  C   UNL     1      52.985   8.115   7.639  0.00  0.00    +0.000 A 
ATOM     14  C   UNL     1      53.159   7.601   6.368  0.00  0.00    +0.000 A 
ATOM     15  N   UNL     1      53.447   6.306   6.120  0.00  0.00    +0.000 NA
ATOM     16  C   UNL     1      53.557   5.485   7.187  0.00  0.00    +0.000 A 
ATOM     17  C   UNL     1      53.409   5.901   8.499  0.00  0.00    +0.000 A 
ENDBRANCH   9  12
ENDBRANCH   7  10
ENDBRANCH   1   7
BRANCH   4  18
ATOM     18  C   UNL     1      46.135   8.186  13.076  0.00  0.00    +0.000 C 
BRANCH  18  19
ATOM     19  N   UNL     1      45.754   6.842  12.721  0.00  0.00    +0.000 N 
ATOM     20  C   UNL     1      44.841   6.607  11.725  0.00  0.00    +0.000 C 
ATOM     21  O   UNL     1      44.352   7.521  11.066  0.00  0.00    +0.000 OA
ATOM     22  H   UNL     1      45.968   6.107  13.389  0.00  0.00    +0.000 HD
BRANCH  20  23
ATOM     23  C   UNL     1      44.519   5.203  11.439  0.00  0.00    +0.000 A 
ATOM     24  C   UNL     1      43.788   4.464  12.360  0.00  0.00    +0.000 A 
ATOM     25  S   UNL     1      43.453   2.872  11.851  0.00  0.00    +0.000 S 
ATOM     26  C   UNL     1      44.318   3.096  10.403  0.00  0.00    +0.000 A 
ATOM     27  N   UNL     1      44.443   2.085   9.502  0.00  0.00    +0.000 NA
ATOM     28  C   UNL     1      45.155   2.380   8.464  0.00  0.00    +0.000 A 
ATOM     29  N   UNL     1      45.749   3.597   8.246  0.00  0.00    +0.000 N 
ATOM     30  C   UNL     1      45.625   4.655   9.115  0.00  0.00    +0.000 A 
ATOM     31  O   UNL     1      46.136   5.743   8.871  0.00  0.00    +0.000 OA
ATOM     32  C   UNL     1      44.842   4.372  10.303  0.00  0.00    +0.000 A 
ATOM     33  H   UNL     1      46.288   3.765   7.411  0.00  0.00    +0.000 HD
ENDBRANCH  20  23
ENDBRANCH  18  19
ENDBRANCH   4  18
TORSDOF 6
ENDMDL
MODEL 9
REMARK VINA RESULT:    -6.856      3.499      8.517
REMARK INTER + INTRA:          -9.918
REMARK INTER:                  -9.076
REMARK INTRA:                  -0.842
REMARK UNBOUND:                -0.657
REMARK  Name = 
REMARK  6 active torsions:
REMARK  status: ('A' for Active; 'I' for Inactive)
REMARK    1  A    between atoms: C_2  and  C_25
REMARK    2  A    between atoms: N_3  and  C_4
REMARK    3  A    between atoms: C_4  and  C_5
REMARK    4  A    between atoms: C_8  and  C_9
REMARK    5  A    between atoms: C_9  and  N_10
REMARK    6  A    between atoms: C_11  and  C_13
REMARK                            x       y       z     vdW  Elec       q    Type
REMARK                         _______ _______ _______ _____ _____    ______ ____
ROOT
ATOM      1  C   UNL     1      49.695   6.968  16.068  0.00  0.00    +0.000 A 
ATOM      2  C   UNL     1      48.637   6.257  15.487  0.00  0.00    +0.000 A 
ATOM      3  C   UNL     1      48.195   6.565  14.195  0.00  0.00    +0.000 A 
ATOM      4  C   UNL     1      48.817   7.577  13.452  0.00  0.00    +0.000 A 
ATOM      5  C   UNL     1      49.870   8.292  14.038  0.00  0.00    +0.000 A 
ATOM      6  C   UNL     1      50.314   7.984  15.327  0.00  0.00    +0.000 A 
ENDROOT
BRANCH   1   7
ATOM      7  C   UNL     1      50.162   6.644  17.463  0.00  0.00    +0.000 C 
BRANCH   7  10
ATOM      8  O   UNL     1      49.602   4.289  18.811  0.00  0.00    +0.000 OA
ATOM      9  C   UNL     1      50.651   4.361  18.179  0.00  0.00    +0.000 C 
ATOM     10  N   UNL     1      51.037   5.493  17.489  0.00  0.00    +0.000 N 
ATOM     11  H   UNL     1      51.793   5.451  16.819  0.00  0.00    +0.000 HD
BRANCH   9  12
ATOM     12  C   UNL     1      51.550   3.185  18.102  0.00  0.00    +0.000 A 
ATOM     13  C   UNL     1      52.812   3.281  18.693  0.00  0.00    +0.000 A 
ATOM     14  C   UNL     1      53.658   2.192  18.599  0.00  0.00    +0.000 A 
ATOM     15  N   UNL     1      53.335   1.048  17.959  0.00  0.00    +0.000 NA
ATOM     16  C   UNL     1      52.116   0.992  17.378  0.00  0.00    +0.000 A 
ATOM     17  C   UNL     1      51.193   2.024  17.421  0.00  0.00    +0.000 A 
ENDBRANCH   9  12
ENDBRANCH   7  10
ENDBRANCH   1   7
BRANCH   4  18
ATOM     18  C   UNL     1      48.343   7.919  12.064  0.00  0.00    +0.000 C 
BRANCH  18  19
ATOM     19  N   UNL     1      47.629   6.822  11.461  0.00  0.00    +0.000 N 
ATOM     20  C   UNL     1      46.258   6.799  11.439  0.00  0.00    +0.000 C 
ATOM     21  O   UNL     1      45.587   7.728  11.882  0.00  0.00    +0.000 OA
ATOM     22  H   UNL     1      48.148   5.964  11.301  0.00  0.00    +0.000 HD
BRANCH  20  23
ATOM     23  C   UNL     1      45.625   5.637  10.802  0.00  0.00    +0.000 A 
ATOM     24  C   UNL     1      45.754   5.450   9.432  0.00  0.00    +0.000 A 
ATOM     25  S   UNL     1      45.009   4.026   8.862  0.00  0.00    +0.000 S 
ATOM     26  C   UNL     1      44.440   3.637  10.417  0.00  0.00    +0.000 A 
ATOM     27  N   UNL     1      43.689   2.522  10.627  0.00  0.00    +0.000 NA
ATOM     28  C   UNL     1      43.294   2.366  11.847  0.00  0.00    +0.000 A 
ATOM     29  N   UNL     1      43.587   3.223  12.877  0.00  0.00    +0.000 N 
ATOM     30  C   UNL     1      44.366   4.345  12.717  0.00  0.00    +0.000 A 
ATOM     31  O   UNL     1      44.641   5.070  13.668  0.00  0.00    +0.000 OA
ATOM     32  C   UNL     1      44.826   4.571  11.361  0.00  0.00    +0.000 A 
ATOM     33  H   UNL     1      43.252   3.041  13.811  0.00  0.00    +0.000 HD
ENDBRANCH  20  23
ENDBRANCH  18  19
ENDBRANCH   4  18
TORSDOF 6
ENDMDL
