MODEL 1
REMARK VINA RESULT:    -8.155      0.000      0.000
REMARK INTER + INTRA:         -13.446
REMARK INTER:                 -12.207
REMARK INTRA:                  -1.238
REMARK UNBOUND:                -1.238
REMARK  Name = 
REMARK  10 active torsions:
REMARK  status: ('A' for Active; 'I' for Inactive)
REMARK    1  A    between atoms: C_1  and  C_2
REMARK    2  A    between atoms: C_8  and  C_9
REMARK    3  A    between atoms: N_11  and  C_12
REMARK    4  A    between atoms: C_12  and  C_13
REMARK    5  A    between atoms: C_16  and  N_17
REMARK    6  A    between atoms: N_17  and  C_18
REMARK    7  A    between atoms: N_17  and  C_21
REMARK    8  A    between atoms: C_18  and  C_19
REMARK    9  A    between atoms: C_19  and  O_20
REMARK   10  A    between atoms: C_21  and  C_22
REMARK                            x       y       z     vdW  Elec       q    Type
REMARK                         _______ _______ _______ _____ _____    ______ ____
ROOT
ATOM      1  C   UNL     1      47.509   6.338  13.246  0.00  0.00    +0.000 A 
ATOM      2  C   UNL     1      46.837   5.175  13.619  0.00  0.00    +0.000 A 
ATOM      3  C   UNL     1      45.874   4.595  12.769  0.00  0.00    +0.000 A 
ATOM      4  C   UNL     1      45.506   5.169  11.540  0.00  0.00    +0.000 A 
ATOM      5  C   UNL     1      46.224   6.325  11.186  0.00  0.00    +0.000 A 
ATOM      6  C   UNL     1      47.214   6.888  12.002  0.00  0.00    +0.000 A 
ENDROOT
BRANCH   1   7
ATOM      7  C   UNL     1      48.490   7.017  14.159  0.00  0.00    +0.000 C 
BRANCH   7  10
ATOM      8  C   UNL     1      49.631   6.365  16.198  0.00  0.00    +0.000 C 
ATOM      9  O   UNL     1      50.693   6.511  15.594  0.00  0.00    +0.000 OA
ATOM     10  N   UNL     1      48.432   6.552  15.529  0.00  0.00    +0.000 N 
ATOM     11  H   UNL     1      47.564   6.663  16.034  0.00  0.00    +0.000 HD
BRANCH   8  19
ATOM     12  C   UNL     1      48.463   3.061  16.353  0.00  0.00    +0.000 C 
ATOM     13  C   UNL     1      48.549   3.633  17.715  0.00  0.00    +0.000 A 
ATOM     14  C   UNL     1      48.212   3.021  18.929  0.00  0.00    +0.000 A 
ATOM     15  N   UNL     1      48.443   3.908  19.993  0.00  0.00    +0.000 N 
ATOM     16  C   UNL     1      48.923   5.059  19.464  0.00  0.00    +0.000 A 
ATOM     17  N   UNL     1      49.338   6.280  19.899  0.00  0.00    +0.000 NA
ATOM     18  C   UNL     1      49.653   6.913  18.712  0.00  0.00    +0.000 C 
ATOM     19  C   UNL     1      49.458   6.056  17.586  0.00  0.00    +0.000 C 
ATOM     20  C   UNL     1      48.967   4.870  18.144  0.00  0.00    +0.000 A 
ATOM     21  H   UNL     1      48.281   3.731  20.974  0.00  0.00    +0.000 HD
ENDBRANCH   8  19
ENDBRANCH   7  10
ENDBRANCH   1   7
BRANCH   4  22
ATOM     22  N   UNL     1      44.515   4.643  10.714  0.00  0.00    +0.000 N 
BRANCH  22  23
ATOM     23  C   UNL     1      43.190   4.219  11.223  0.00  0.00    +0.000 C 
BRANCH  23  24
ATOM     24  C   UNL     1      42.372   5.336  11.899  0.00  0.00    +0.000 C 
BRANCH  24  25
ATOM     25  O   UNL     1      42.553   5.356  13.312  0.00  0.00    +0.000 OA
ATOM     26  H   UNL     1      41.760   5.799  13.666  0.00  0.00    +0.000 HD
ENDBRANCH  24  25
ENDBRANCH  23  24
ENDBRANCH  22  23
BRANCH  22  27
ATOM     27  C   UNL     1      44.653   4.688   9.240  0.00  0.00    +0.000 C 
BRANCH  27  28
ATOM     28  C   UNL     1      45.465   3.581   8.596  0.00  0.00    +0.000 A 
ATOM     29  C   UNL     1      46.419   3.751   7.591  0.00  0.00    +0.000 A 
ATOM     30  C   UNL     1      47.092   2.640   7.073  0.00  0.00    +0.000 A 
ATOM     31  C   UNL     1      46.797   1.388   7.582  0.00  0.00    +0.000 A 
ATOM     32  N   UNL     1      45.888   1.178   8.556  0.00  0.00    +0.000 NA
ATOM     33  C   UNL     1      45.251   2.272   9.034  0.00  0.00    +0.000 A 
ENDBRANCH  27  28
ENDBRANCH  22  27
ENDBRANCH   4  22
TORSDOF 9
ENDMDL
MODEL 2
REMARK VINA RESULT:    -7.984      1.206      2.138
REMARK INTER + INTRA:         -13.190
REMARK INTER:                 -12.074
REMARK INTRA:                  -1.116
REMARK UNBOUND:                -1.238
REMARK  Name = 
REMARK  10 active torsions:
REMARK  status: ('A' for Active; 'I' for Inactive)
REMARK    1  A    between atoms: C_1  and  C_2
REMARK    2  A    between atoms: C_8  and  C_9
REMARK    3  A    between atoms: N_11  and  C_12
REMARK    4  A    between atoms: C_12  and  C_13
REMARK    5  A    between atoms: C_16  and  N_17
REMARK    6  A    between atoms: N_17  and  C_18
REMARK    7  A    between atoms: N_17  and  C_21
REMARK    8  A    between atoms: C_18  and  C_19
REMARK    9  A    between atoms: C_19  and  O_20
REMARK   10  A    between atoms: C_21  and  C_22
REMARK                            x       y       z     vdW  Elec       q    Type
REMARK                         _______ _______ _______ _____ _____    ______ ____
ROOT
ATOM      1  C   UNL     1      47.494   5.950  13.314  0.00  0.00    +0.000 A 
ATOM      2  C   UNL     1      46.802   4.766  13.567  0.00  0.00    +0.000 A 
ATOM      3  C   UNL     1      45.832   4.290  12.662  0.00  0.00    +0.000 A 
ATOM      4  C   UNL     1      45.476   4.991  11.498  0.00  0.00    +0.000 A 
ATOM      5  C   UNL     1      46.213   6.166  11.263  0.00  0.00    +0.000 A 
ATOM      6  C   UNL     1      47.210   6.628  12.132  0.00  0.00    +0.000 A 
ENDROOT
BRANCH   1   7
ATOM      7  C   UNL     1      48.484   6.518  14.291  0.00  0.00    +0.000 C 
BRANCH   7  10
ATOM      8  C   UNL     1      49.149   6.165  16.597  0.00  0.00    +0.000 C 
ATOM      9  O   UNL     1      50.316   6.133  16.205  0.00  0.00    +0.000 OA
ATOM     10  N   UNL     1      48.123   6.306  15.678  0.00  0.00    +0.000 N 
ATOM     11  H   UNL     1      47.190   6.561  15.971  0.00  0.00    +0.000 HD
BRANCH   8  19
ATOM     12  C   UNL     1      48.041   9.396  17.396  0.00  0.00    +0.000 C 
ATOM     13  C   UNL     1      47.912   8.510  18.573  0.00  0.00    +0.000 A 
ATOM     14  C   UNL     1      47.448   8.840  19.853  0.00  0.00    +0.000 A 
ATOM     15  N   UNL     1      47.482   7.707  20.682  0.00  0.00    +0.000 N 
ATOM     16  C   UNL     1      47.952   6.676  19.940  0.00  0.00    +0.000 A 
ATOM     17  N   UNL     1      48.229   5.353  20.102  0.00  0.00    +0.000 NA
ATOM     18  C   UNL     1      48.714   5.010  18.854  0.00  0.00    +0.000 C 
ATOM     19  C   UNL     1      48.688   6.117  17.953  0.00  0.00    +0.000 C 
ATOM     20  C   UNL     1      48.197   7.174  18.727  0.00  0.00    +0.000 A 
ATOM     21  H   UNL     1      47.211   7.660  21.654  0.00  0.00    +0.000 HD
ENDBRANCH   8  19
ENDBRANCH   7  10
ENDBRANCH   1   7
BRANCH   4  22
ATOM     22  N   UNL     1      44.478   4.568  10.623  0.00  0.00    +0.000 N 
BRANCH  22  23
ATOM     23  C   UNL     1      43.107   4.233  11.073  0.00  0.00    +0.000 C 
BRANCH  23  24
ATOM     24  C   UNL     1      42.354   5.390  11.758  0.00  0.00    +0.000 C 
BRANCH  24  25
ATOM     25  O   UNL     1      42.485   5.354  13.176  0.00  0.00    +0.000 OA
ATOM     26  H   UNL     1      41.903   4.628  13.469  0.00  0.00    +0.000 HD
ENDBRANCH  24  25
ENDBRANCH  23  24
ENDBRANCH  22  23
BRANCH  22  27
ATOM     27  C   UNL     1      44.672   4.644   9.156  0.00  0.00    +0.000 C 
BRANCH  27  28
ATOM     28  C   UNL     1      45.513   3.553   8.522  0.00  0.00    +0.000 A 
ATOM     29  C   UNL     1      46.492   3.745   7.545  0.00  0.00    +0.000 A 
ATOM     30  C   UNL     1      47.191   2.647   7.032  0.00  0.00    +0.000 A 
ATOM     31  C   UNL     1      46.896   1.386   7.519  0.00  0.00    +0.000 A 
ATOM     32  N   UNL     1      45.963   1.156   8.465  0.00  0.00    +0.000 NA
ATOM     33  C   UNL     1      45.301   2.237   8.939  0.00  0.00    +0.000 A 
ENDBRANCH  27  28
ENDBRANCH  22  27
ENDBRANCH   4  22
TORSDOF 9
ENDMDL
MODEL 3
REMARK VINA RESULT:    -7.778      0.808      1.199
REMARK INTER + INTRA:         -12.882
REMARK INTER:                 -11.883
REMARK INTRA:                  -0.999
REMARK UNBOUND:                -1.238
REMARK  Name = 
REMARK  10 active torsions:
REMARK  status: ('A' for Active; 'I' for Inactive)
REMARK    1  A    between atoms: C_1  and  C_2
REMARK    2  A    between atoms: C_8  and  C_9
REMARK    3  A    between atoms: N_11  and  C_12
REMARK    4  A    between atoms: C_12  and  C_13
REMARK    5  A    between atoms: C_16  and  N_17
REMARK    6  A    between atoms: N_17  and  C_18
REMARK    7  A    between atoms: N_17  and  C_21
REMARK    8  A    between atoms: C_18  and  C_19
REMARK    9  A    between atoms: C_19  and  O_20
REMARK   10  A    between atoms: C_21  and  C_22
REMARK                            x       y       z     vdW  Elec       q    Type
REMARK                         _______ _______ _______ _____ _____    ______ ____
ROOT
ATOM      1  C   UNL     1      47.512   6.200  13.136  0.00  0.00    +0.000 A 
ATOM      2  C   UNL     1      47.241   6.816  11.914  0.00  0.00    +0.000 A 
ATOM      3  C   UNL     1      46.228   6.323  11.067  0.00  0.00    +0.000 A 
ATOM      4  C   UNL     1      45.478   5.175  11.374  0.00  0.00    +0.000 A 
ATOM      5  C   UNL     1      45.760   4.598  12.625  0.00  0.00    +0.000 A 
ATOM      6  C   UNL     1      46.735   5.103  13.496  0.00  0.00    +0.000 A 
ENDROOT
BRANCH   1   7
ATOM      7  C   UNL     1      48.629   6.661  14.029  0.00  0.00    +0.000 C 
BRANCH   7  10
ATOM      8  C   UNL     1      49.385   6.492  16.327  0.00  0.00    +0.000 C 
ATOM      9  O   UNL     1      50.534   6.413  15.893  0.00  0.00    +0.000 OA
ATOM     10  N   UNL     1      48.323   6.570  15.441  0.00  0.00    +0.000 N 
ATOM     11  H   UNL     1      47.406   6.860  15.749  0.00  0.00    +0.000 HD
BRANCH   8  19
ATOM     12  C   UNL     1      49.368   3.201  17.543  0.00  0.00    +0.000 C 
ATOM     13  C   UNL     1      48.914   4.135  18.597  0.00  0.00    +0.000 A 
ATOM     14  C   UNL     1      48.502   3.827  19.900  0.00  0.00    +0.000 A 
ATOM     15  N   UNL     1      48.153   5.003  20.583  0.00  0.00    +0.000 N 
ATOM     16  C   UNL     1      48.346   6.038  19.731  0.00  0.00    +0.000 A 
ATOM     17  N   UNL     1      48.213   7.393  19.734  0.00  0.00    +0.000 NA
ATOM     18  C   UNL     1      48.591   7.718  18.446  0.00  0.00    +0.000 C 
ATOM     19  C   UNL     1      48.979   6.564  17.699  0.00  0.00    +0.000 C 
ATOM     20  C   UNL     1      48.781   5.503  18.589  0.00  0.00    +0.000 A 
ATOM     21  H   UNL     1      47.816   5.075  21.533  0.00  0.00    +0.000 HD
ENDBRANCH   8  19
ENDBRANCH   7  10
ENDBRANCH   1   7
BRANCH   4  22
ATOM     22  N   UNL     1      44.515   4.639  10.523  0.00  0.00    +0.000 N 
BRANCH  22  23
ATOM     23  C   UNL     1      43.174   4.220  10.992  0.00  0.00    +0.000 C 
BRANCH  23  24
ATOM     24  C   UNL     1      42.404   5.296  11.782  0.00  0.00    +0.000 C 
BRANCH  24  25
ATOM     25  O   UNL     1      42.495   6.580  11.172  0.00  0.00    +0.000 OA
ATOM     26  H   UNL     1      42.661   6.405  10.228  0.00  0.00    +0.000 HD
ENDBRANCH  24  25
ENDBRANCH  23  24
ENDBRANCH  22  23
BRANCH  22  27
ATOM     27  C   UNL     1      44.702   4.664   9.053  0.00  0.00    +0.000 C 
BRANCH  27  28
ATOM     28  C   UNL     1      45.531   3.546   8.451  0.00  0.00    +0.000 A 
ATOM     29  C   UNL     1      46.498   3.695   7.456  0.00  0.00    +0.000 A 
ATOM     30  C   UNL     1      47.185   2.575   6.977  0.00  0.00    +0.000 A 
ATOM     31  C   UNL     1      46.891   1.335   7.515  0.00  0.00    +0.000 A 
ATOM     32  N   UNL     1      45.970   1.146   8.481  0.00  0.00    +0.000 NA
ATOM     33  C   UNL     1      45.318   2.248   8.921  0.00  0.00    +0.000 A 
ENDBRANCH  27  28
ENDBRANCH  22  27
ENDBRANCH   4  22
TORSDOF 9
ENDMDL
MODEL 4
REMARK VINA RESULT:    -7.617      1.581      1.861
REMARK INTER + INTRA:         -12.641
REMARK INTER:                 -11.266
REMARK INTRA:                  -1.374
REMARK UNBOUND:                -1.238
REMARK  Name = 
REMARK  10 active torsions:
REMARK  status: ('A' for Active; 'I' for Inactive)
REMARK    1  A    between atoms: C_1  and  C_2
REMARK    2  A    between atoms: C_8  and  C_9
REMARK    3  A    between atoms: N_11  and  C_12
REMARK    4  A    between atoms: C_12  and  C_13
REMARK    5  A    between atoms: C_16  and  N_17
REMARK    6  A    between atoms: N_17  and  C_18
REMARK    7  A    between atoms: N_17  and  C_21
REMARK    8  A    between atoms: C_18  and  C_19
REMARK    9  A    between atoms: C_19  and  O_20
REMARK   10  A    between atoms: C_21  and  C_22
REMARK                            x       y       z     vdW  Elec       q    Type
REMARK                         _______ _______ _______ _____ _____    ______ ____
ROOT
ATOM      1  C   UNL     1      47.412   7.026  12.950  0.00  0.00    +0.000 A 
ATOM      2  C   UNL     1      46.438   7.649  12.172  0.00  0.00    +0.000 A 
ATOM      3  C   UNL     1      45.402   6.901  11.578  0.00  0.00    +0.000 A 
ATOM      4  C   UNL     1      45.317   5.503  11.692  0.00  0.00    +0.000 A 
ATOM      5  C   UNL     1      46.300   4.913  12.506  0.00  0.00    +0.000 A 
ATOM      6  C   UNL     1      47.311   5.650  13.138  0.00  0.00    +0.000 A 
ENDROOT
BRANCH   1   7
ATOM      7  C   UNL     1      48.567   7.785  13.539  0.00  0.00    +0.000 C 
BRANCH   7  10
ATOM      8  C   UNL     1      49.269   7.071  15.748  0.00  0.00    +0.000 C 
ATOM      9  O   UNL     1      48.473   7.887  16.213  0.00  0.00    +0.000 OA
ATOM     10  N   UNL     1      49.431   6.979  14.376  0.00  0.00    +0.000 N 
ATOM     11  H   UNL     1      49.893   6.184  13.957  0.00  0.00    +0.000 HD
BRANCH   8  19
ATOM     12  C   UNL     1      47.167   4.359  16.481  0.00  0.00    +0.000 C 
ATOM     13  C   UNL     1      48.508   4.135  17.065  0.00  0.00    +0.000 A 
ATOM     14  C   UNL     1      48.944   3.043  17.826  0.00  0.00    +0.000 A 
ATOM     15  N   UNL     1      50.290   3.216  18.186  0.00  0.00    +0.000 N 
ATOM     16  C   UNL     1      50.702   4.393  17.658  0.00  0.00    +0.000 A 
ATOM     17  N   UNL     1      51.836   5.145  17.618  0.00  0.00    +0.000 NA
ATOM     18  C   UNL     1      51.421   6.245  16.890  0.00  0.00    +0.000 C 
ATOM     19  C   UNL     1      50.061   6.123  16.474  0.00  0.00    +0.000 C 
ATOM     20  C   UNL     1      49.647   4.903  17.020  0.00  0.00    +0.000 A 
ATOM     21  H   UNL     1      50.855   2.587  18.739  0.00  0.00    +0.000 HD
ENDBRANCH   8  19
ENDBRANCH   7  10
ENDBRANCH   1   7
BRANCH   4  22
ATOM     22  N   UNL     1      44.335   4.741  11.064  0.00  0.00    +0.000 N 
BRANCH  22  23
ATOM     23  C   UNL     1      43.220   4.104  11.802  0.00  0.00    +0.000 C 
BRANCH  23  24
ATOM     24  C   UNL     1      43.535   2.704  12.361  0.00  0.00    +0.000 C 
BRANCH  24  25
ATOM     25  O   UNL     1      42.834   1.676  11.666  0.00  0.00    +0.000 OA
ATOM     26  H   UNL     1      42.905   1.910  10.722  0.00  0.00    +0.000 HD
ENDBRANCH  24  25
ENDBRANCH  23  24
ENDBRANCH  22  23
BRANCH  22  27
ATOM     27  C   UNL     1      44.228   4.710   9.586  0.00  0.00    +0.000 C 
BRANCH  27  28
ATOM     28  C   UNL     1      45.163   3.769   8.853  0.00  0.00    +0.000 A 
ATOM     29  C   UNL     1      46.098   4.140   7.886  0.00  0.00    +0.000 A 
ATOM     30  C   UNL     1      46.895   3.167   7.275  0.00  0.00    +0.000 A 
ATOM     31  C   UNL     1      46.740   1.846   7.656  0.00  0.00    +0.000 A 
ATOM     32  N   UNL     1      45.855   1.443   8.590  0.00  0.00    +0.000 NA
ATOM     33  C   UNL     1      45.095   2.407   9.160  0.00  0.00    +0.000 A 
ENDBRANCH  27  28
ENDBRANCH  22  27
ENDBRANCH   4  22
TORSDOF 9
ENDMDL
MODEL 5
REMARK VINA RESULT:    -7.034      1.965      2.915
REMARK INTER + INTRA:         -11.768
REMARK INTER:                 -10.869
REMARK INTRA:                  -0.899
REMARK UNBOUND:                -1.238
REMARK  Name = 
REMARK  10 active torsions:
REMARK  status: ('A' for Active; 'I' for Inactive)
REMARK    1  A    between atoms: C_1  and  C_2
REMARK    2  A    between atoms: C_8  and  C_9
REMARK    3  A    between atoms: N_11  and  C_12
REMARK    4  A    between atoms: C_12  and  C_13
REMARK    5  A    between atoms: C_16  and  N_17
REMARK    6  A    between atoms: N_17  and  C_18
REMARK    7  A    between atoms: N_17  and  C_21
REMARK    8  A    between atoms: C_18  and  C_19
REMARK    9  A    between atoms: C_19  and  O_20
REMARK   10  A    between atoms: C_21  and  C_22
REMARK                            x       y       z     vdW  Elec       q    Type
REMARK                         _______ _______ _______ _____ _____    ______ ____
ROOT
ATOM      1  C   UNL     1      46.955   7.046  12.813  0.00  0.00    +0.000 A 
ATOM      2  C   UNL     1      46.053   7.601  11.906  0.00  0.00    +0.000 A 
ATOM      3  C   UNL     1      45.166   6.782  11.179  0.00  0.00    +0.000 A 
ATOM      4  C   UNL     1      45.169   5.381  11.286  0.00  0.00    +0.000 A 
ATOM      5  C   UNL     1      46.073   4.860  12.229  0.00  0.00    +0.000 A 
ATOM      6  C   UNL     1      46.931   5.665  12.990  0.00  0.00    +0.000 A 
ENDROOT
BRANCH   1   7
ATOM      7  C   UNL     1      47.959   7.885  13.552  0.00  0.00    +0.000 C 
BRANCH   7  10
ATOM      8  C   UNL     1      49.053   7.457  15.673  0.00  0.00    +0.000 C 
ATOM      9  O   UNL     1      48.471   8.446  16.119  0.00  0.00    +0.000 OA
ATOM     10  N   UNL     1      48.896   7.114  14.341  0.00  0.00    +0.000 N 
ATOM     11  H   UNL     1      49.168   6.202  14.001  0.00  0.00    +0.000 HD
BRANCH   8  19
ATOM     12  C   UNL     1      52.376   8.264  14.885  0.00  0.00    +0.000 C 
ATOM     13  C   UNL     1      52.338   7.091  15.787  0.00  0.00    +0.000 A 
ATOM     14  C   UNL     1      53.419   6.348  16.278  0.00  0.00    +0.000 A 
ATOM     15  N   UNL     1      52.952   5.314  17.107  0.00  0.00    +0.000 N 
ATOM     16  C   UNL     1      51.602   5.405  17.146  0.00  0.00    +0.000 A 
ATOM     17  N   UNL     1      50.558   4.754  17.728  0.00  0.00    +0.000 NA
ATOM     18  C   UNL     1      49.475   5.458  17.237  0.00  0.00    +0.000 C 
ATOM     19  C   UNL     1      49.882   6.540  16.398  0.00  0.00    +0.000 C 
ATOM     20  C   UNL     1      51.277   6.439  16.368  0.00  0.00    +0.000 A 
ATOM     21  H   UNL     1      53.512   4.624  17.587  0.00  0.00    +0.000 HD
ENDBRANCH   8  19
ENDBRANCH   7  10
ENDBRANCH   1   7
BRANCH   4  22
ATOM     22  N   UNL     1      44.342   4.552  10.532  0.00  0.00    +0.000 N 
BRANCH  22  23
ATOM     23  C   UNL     1      43.192   3.824  11.115  0.00  0.00    +0.000 C 
BRANCH  23  24
ATOM     24  C   UNL     1      43.574   2.646  12.032  0.00  0.00    +0.000 C 
BRANCH  24  25
ATOM     25  O   UNL     1      42.951   1.429  11.634  0.00  0.00    +0.000 OA
ATOM     26  H   UNL     1      43.575   0.724  11.887  0.00  0.00    +0.000 HD
ENDBRANCH  24  25
ENDBRANCH  23  24
ENDBRANCH  22  23
BRANCH  22  27
ATOM     27  C   UNL     1      44.433   4.530   9.054  0.00  0.00    +0.000 C 
BRANCH  27  28
ATOM     28  C   UNL     1      45.421   3.554   8.446  0.00  0.00    +0.000 A 
ATOM     29  C   UNL     1      46.429   3.877   7.535  0.00  0.00    +0.000 A 
ATOM     30  C   UNL     1      47.269   2.875   7.039  0.00  0.00    +0.000 A 
ATOM     31  C   UNL     1      47.083   1.576   7.476  0.00  0.00    +0.000 A 
ATOM     32  N   UNL     1      46.128   1.220   8.359  0.00  0.00    +0.000 NA
ATOM     33  C   UNL     1      45.328   2.211   8.817  0.00  0.00    +0.000 A 
ENDBRANCH  27  28
ENDBRANCH  22  27
ENDBRANCH   4  22
TORSDOF 9
ENDMDL
MODEL 6
REMARK VINA RESULT:    -6.749      2.760      3.657
REMARK INTER + INTRA:         -11.341
REMARK INTER:                 -10.153
REMARK INTRA:                  -1.188
REMARK UNBOUND:                -1.238
REMARK  Name = 
REMARK  10 active torsions:
REMARK  status: ('A' for Active; 'I' for Inactive)
REMARK    1  A    between atoms: C_1  and  C_2
REMARK    2  A    between atoms: C_8  and  C_9
REMARK    3  A    between atoms: N_11  and  C_12
REMARK    4  A    between atoms: C_12  and  C_13
REMARK    5  A    between atoms: C_16  and  N_17
REMARK    6  A    between atoms: N_17  and  C_18
REMARK    7  A    between atoms: N_17  and  C_21
REMARK    8  A    between atoms: C_18  and  C_19
REMARK    9  A    between atoms: C_19  and  O_20
REMARK   10  A    between atoms: C_21  and  C_22
REMARK                            x       y       z     vdW  Elec       q    Type
REMARK                         _______ _______ _______ _____ _____    ______ ____
ROOT
ATOM      1  C   UNL     1      46.287   8.407  12.025  0.00  0.00    +0.000 A 
ATOM      2  C   UNL     1      44.945   8.176  11.726  0.00  0.00    +0.000 A 
ATOM      3  C   UNL     1      44.493   6.883  11.393  0.00  0.00    +0.000 A 
ATOM      4  C   UNL     1      45.358   5.780  11.297  0.00  0.00    +0.000 A 
ATOM      5  C   UNL     1      46.698   6.046  11.632  0.00  0.00    +0.000 A 
ATOM      6  C   UNL     1      47.154   7.318  12.006  0.00  0.00    +0.000 A 
ENDROOT
BRANCH   1   7
ATOM      7  C   UNL     1      46.812   9.785  12.316  0.00  0.00    +0.000 C 
BRANCH   7  10
ATOM      8  C   UNL     1      48.752  10.232  13.701  0.00  0.00    +0.000 C 
ATOM      9  O   UNL     1      49.416  10.298  12.667  0.00  0.00    +0.000 OA
ATOM     10  N   UNL     1      47.405   9.918  13.630  0.00  0.00    +0.000 N 
ATOM     11  H   UNL     1      46.790  10.075  14.416  0.00  0.00    +0.000 HD
BRANCH   8  19
ATOM     12  C   UNL     1      48.970   7.124  15.313  0.00  0.00    +0.000 C 
ATOM     13  C   UNL     1      49.318   8.210  16.256  0.00  0.00    +0.000 A 
ATOM     14  C   UNL     1      49.671   8.098  17.607  0.00  0.00    +0.000 A 
ATOM     15  N   UNL     1      49.928   9.371  18.142  0.00  0.00    +0.000 N 
ATOM     16  C   UNL     1      49.750  10.272  17.147  0.00  0.00    +0.000 A 
ATOM     17  N   UNL     1      49.827  11.620  16.973  0.00  0.00    +0.000 NA
ATOM     18  C   UNL     1      49.459  11.757  15.649  0.00  0.00    +0.000 C 
ATOM     19  C   UNL     1      49.200  10.493  15.037  0.00  0.00    +0.000 C 
ATOM     20  C   UNL     1      49.392   9.570  16.070  0.00  0.00    +0.000 A 
ATOM     21  H   UNL     1      50.196   9.585  19.092  0.00  0.00    +0.000 HD
ENDBRANCH   8  19
ENDBRANCH   7  10
ENDBRANCH   1   7
BRANCH   4  22
ATOM     22  N   UNL     1      44.940   4.509  10.912  0.00  0.00    +0.000 N 
BRANCH  22  23
ATOM     23  C   UNL     1      44.681   3.422  11.885  0.00  0.00    +0.000 C 
BRANCH  23  24
ATOM     24  C   UNL     1      43.214   2.959  11.956  0.00  0.00    +0.000 C 
BRANCH  24  25
ATOM     25  O   UNL     1      43.062   1.590  11.590  0.00  0.00    +0.000 OA
ATOM     26  H   UNL     1      43.844   1.138  11.959  0.00  0.00    +0.000 HD
ENDBRANCH  24  25
ENDBRANCH  23  24
ENDBRANCH  22  23
BRANCH  22  27
ATOM     27  C   UNL     1      44.515   4.239   9.519  0.00  0.00    +0.000 C 
BRANCH  27  28
ATOM     28  C   UNL     1      45.438   3.380   8.678  0.00  0.00    +0.000 A 
ATOM     29  C   UNL     1      46.314   3.847   7.696  0.00  0.00    +0.000 A 
ATOM     30  C   UNL     1      47.106   2.943   6.980  0.00  0.00    +0.000 A 
ATOM     31  C   UNL     1      47.006   1.595   7.274  0.00  0.00    +0.000 A 
ATOM     32  N   UNL     1      46.179   1.101   8.217  0.00  0.00    +0.000 NA
ATOM     33  C   UNL     1      45.422   2.000   8.890  0.00  0.00    +0.000 A 
ENDBRANCH  27  28
ENDBRANCH  22  27
ENDBRANCH   4  22
TORSDOF 9
ENDMDL
MODEL 7
REMARK VINA RESULT:    -6.588      3.379      5.190
REMARK INTER + INTRA:         -11.100
REMARK INTER:                 -10.015
REMARK INTRA:                  -1.085
REMARK UNBOUND:                -1.238
REMARK  Name = 
REMARK  10 active torsions:
REMARK  status: ('A' for Active; 'I' for Inactive)
REMARK    1  A    between atoms: C_1  and  C_2
REMARK    2  A    between atoms: C_8  and  C_9
REMARK    3  A    between atoms: N_11  and  C_12
REMARK    4  A    between atoms: C_12  and  C_13
REMARK    5  A    between atoms: C_16  and  N_17
REMARK    6  A    between atoms: N_17  and  C_18
REMARK    7  A    between atoms: N_17  and  C_21
REMARK    8  A    between atoms: C_18  and  C_19
REMARK    9  A    between atoms: C_19  and  O_20
REMARK   10  A    between atoms: C_21  and  C_22
REMARK                            x       y       z     vdW  Elec       q    Type
REMARK                         _______ _______ _______ _____ _____    ______ ____
ROOT
ATOM      1  C   UNL     1      47.599   6.141  13.057  0.00  0.00    +0.000 A 
ATOM      2  C   UNL     1      47.030   4.967  13.549  0.00  0.00    +0.000 A 
ATOM      3  C   UNL     1      45.990   4.322  12.849  0.00  0.00    +0.000 A 
ATOM      4  C   UNL     1      45.442   4.838  11.663  0.00  0.00    +0.000 A 
ATOM      5  C   UNL     1      46.060   6.008  11.183  0.00  0.00    +0.000 A 
ATOM      6  C   UNL     1      47.122   6.636  11.846  0.00  0.00    +0.000 A 
ENDROOT
BRANCH   1   7
ATOM      7  C   UNL     1      48.661   6.888  13.813  0.00  0.00    +0.000 C 
BRANCH   7  10
ATOM      8  C   UNL     1      50.207   8.385  12.695  0.00  0.00    +0.000 C 
ATOM      9  O   UNL     1      49.421   9.301  12.936  0.00  0.00    +0.000 OA
ATOM     10  N   UNL     1      49.881   7.090  13.061  0.00  0.00    +0.000 N 
ATOM     11  H   UNL     1      50.582   6.362  13.086  0.00  0.00    +0.000 HD
BRANCH   8  19
ATOM     12  C   UNL     1      52.361   9.636  15.166  0.00  0.00    +0.000 C 
ATOM     13  C   UNL     1      53.096   9.461  13.894  0.00  0.00    +0.000 A 
ATOM     14  C   UNL     1      54.441   9.748  13.630  0.00  0.00    +0.000 A 
ATOM     15  N   UNL     1      54.745   9.435  12.295  0.00  0.00    +0.000 N 
ATOM     16  C   UNL     1      53.615   8.952  11.725  0.00  0.00    +0.000 A 
ATOM     17  N   UNL     1      53.212   8.480  10.514  0.00  0.00    +0.000 NA
ATOM     18  C   UNL     1      51.876   8.212  10.744  0.00  0.00    +0.000 C 
ATOM     19  C   UNL     1      51.504   8.491  12.094  0.00  0.00    +0.000 C 
ATOM     20  C   UNL     1      52.678   8.985  12.674  0.00  0.00    +0.000 A 
ATOM     21  H   UNL     1      55.637   9.549  11.835  0.00  0.00    +0.000 HD
ENDBRANCH   8  19
ENDBRANCH   7  10
ENDBRANCH   1   7
BRANCH   4  22
ATOM     22  N   UNL     1      44.376   4.247  10.990  0.00  0.00    +0.000 N 
BRANCH  22  23
ATOM     23  C   UNL     1      43.106   4.960  10.717  0.00  0.00    +0.000 C 
BRANCH  23  24
ATOM     24  C   UNL     1      42.377   5.477  11.972  0.00  0.00    +0.000 C 
BRANCH  24  25
ATOM     25  O   UNL     1      41.669   6.688  11.723  0.00  0.00    +0.000 OA
ATOM     26  H   UNL     1      40.742   6.497  11.958  0.00  0.00    +0.000 HD
ENDBRANCH  24  25
ENDBRANCH  23  24
ENDBRANCH  22  23
BRANCH  22  27
ATOM     27  C   UNL     1      44.537   2.940  10.311  0.00  0.00    +0.000 C 
BRANCH  27  28
ATOM     28  C   UNL     1      45.375   2.927   9.047  0.00  0.00    +0.000 A 
ATOM     29  C   UNL     1      45.699   4.042   8.273  0.00  0.00    +0.000 A 
ATOM     30  C   UNL     1      46.474   3.890   7.119  0.00  0.00    +0.000 A 
ATOM     31  C   UNL     1      46.911   2.623   6.775  0.00  0.00    +0.000 A 
ATOM     32  N   UNL     1      46.627   1.520   7.495  0.00  0.00    +0.000 NA
ATOM     33  C   UNL     1      45.872   1.699   8.605  0.00  0.00    +0.000 A 
ENDBRANCH  27  28
ENDBRANCH  22  27
ENDBRANCH   4  22
TORSDOF 9
ENDMDL
MODEL 8
REMARK VINA RESULT:    -6.219      4.557      6.843
REMARK INTER + INTRA:         -10.547
REMARK INTER:                  -9.372
REMARK INTRA:                  -1.176
REMARK UNBOUND:                -1.238
REMARK  Name = 
REMARK  10 active torsions:
REMARK  status: ('A' for Active; 'I' for Inactive)
REMARK    1  A    between atoms: C_1  and  C_2
REMARK    2  A    between atoms: C_8  and  C_9
REMARK    3  A    between atoms: N_11  and  C_12
REMARK    4  A    between atoms: C_12  and  C_13
REMARK    5  A    between atoms: C_16  and  N_17
REMARK    6  A    between atoms: N_17  and  C_18
REMARK    7  A    between atoms: N_17  and  C_21
REMARK    8  A    between atoms: C_18  and  C_19
REMARK    9  A    between atoms: C_19  and  O_20
REMARK   10  A    between atoms: C_21  and  C_22
REMARK                            x       y       z     vdW  Elec       q    Type
REMARK                         _______ _______ _______ _____ _____    ______ ____
ROOT
ATOM      1  C   UNL     1      47.325   9.112  12.417  0.00  0.00    +0.000 A 
ATOM      2  C   UNL     1      46.019   8.904  12.861  0.00  0.00    +0.000 A 
ATOM      3  C   UNL     1      45.419   7.633  12.762  0.00  0.00    +0.000 A 
ATOM      4  C   UNL     1      46.069   6.532  12.179  0.00  0.00    +0.000 A 
ATOM      5  C   UNL     1      47.392   6.773  11.768  0.00  0.00    +0.000 A 
ATOM      6  C   UNL     1      48.017   8.021  11.899  0.00  0.00    +0.000 A 
ENDROOT
BRANCH   1   7
ATOM      7  C   UNL     1      47.968  10.470  12.445  0.00  0.00    +0.000 C 
BRANCH   7  10
ATOM      8  C   UNL     1      50.127  11.148  11.572  0.00  0.00    +0.000 C 
ATOM      9  O   UNL     1      50.473  11.369  12.732  0.00  0.00    +0.000 OA
ATOM     10  N   UNL     1      48.832  10.731  11.313  0.00  0.00    +0.000 N 
ATOM     11  H   UNL     1      48.581  10.328  10.420  0.00  0.00    +0.000 HD
BRANCH   8  19
ATOM     12  C   UNL     1      51.794   8.074  11.294  0.00  0.00    +0.000 C 
ATOM     13  C   UNL     1      52.216   8.981  10.203  0.00  0.00    +0.000 A 
ATOM     14  C   UNL     1      53.149   8.732   9.189  0.00  0.00    +0.000 A 
ATOM     15  N   UNL     1      53.257   9.854   8.351  0.00  0.00    +0.000 N 
ATOM     16  C   UNL     1      52.404  10.795   8.822  0.00  0.00    +0.000 A 
ATOM     17  N   UNL     1      52.018  12.062   8.509  0.00  0.00    +0.000 NA
ATOM     18  C   UNL     1      51.112  12.339   9.515  0.00  0.00    +0.000 C 
ATOM     19  C   UNL     1      50.939  11.227  10.395  0.00  0.00    +0.000 C 
ATOM     20  C   UNL     1      51.820  10.261   9.897  0.00  0.00    +0.000 A 
ATOM     21  H   UNL     1      53.859   9.953   7.546  0.00  0.00    +0.000 HD
ENDBRANCH   8  19
ENDBRANCH   7  10
ENDBRANCH   1   7
BRANCH   4  22
ATOM     22  N   UNL     1      45.471   5.284  12.019  0.00  0.00    +0.000 N 
BRANCH  22  23
ATOM     23  C   UNL     1      45.528   4.229  13.057  0.00  0.00    +0.000 C 
BRANCH  23  24
ATOM     24  C   UNL     1      46.650   4.410  14.098  0.00  0.00    +0.000 C 
BRANCH  24  25
ATOM     25  O   UNL     1      47.378   3.206  14.320  0.00  0.00    +0.000 OA
ATOM     26  H   UNL     1      46.832   2.685  14.937  0.00  0.00    +0.000 HD
ENDBRANCH  24  25
ENDBRANCH  23  24
ENDBRANCH  22  23
BRANCH  22  27
ATOM     27  C   UNL     1      44.550   5.023  10.888  0.00  0.00    +0.000 C 
BRANCH  27  28
ATOM     28  C   UNL     1      45.096   4.195   9.741  0.00  0.00    +0.000 A 
ATOM     29  C   UNL     1      44.977   2.811   9.607  0.00  0.00    +0.000 A 
ATOM     30  C   UNL     1      45.539   2.165   8.502  0.00  0.00    +0.000 A 
ATOM     31  C   UNL     1      46.200   2.925   7.554  0.00  0.00    +0.000 A 
ATOM     32  N   UNL     1      46.335   4.264   7.640  0.00  0.00    +0.000 NA
ATOM     33  C   UNL     1      45.783   4.860   8.723  0.00  0.00    +0.000 A 
ENDBRANCH  27  28
ENDBRANCH  22  27
ENDBRANCH   4  22
TORSDOF 9
ENDMDL
MODEL 9
REMARK VINA RESULT:    -6.132      3.253      8.046
REMARK INTER + INTRA:         -10.416
REMARK INTER:                  -8.873
REMARK INTRA:                  -1.543
REMARK UNBOUND:                -1.238
REMARK  Name = 
REMARK  10 active torsions:
REMARK  status: ('A' for Active; 'I' for Inactive)
REMARK    1  A    between atoms: C_1  and  C_2
REMARK    2  A    between atoms: C_8  and  C_9
REMARK    3  A    between atoms: N_11  and  C_12
REMARK    4  A    between atoms: C_12  and  C_13
REMARK    5  A    between atoms: C_16  and  N_17
REMARK    6  A    between atoms: N_17  and  C_18
REMARK    7  A    between atoms: N_17  and  C_21
REMARK    8  A    between atoms: C_18  and  C_19
REMARK    9  A    between atoms: C_19  and  O_20
REMARK   10  A    between atoms: C_21  and  C_22
REMARK                            x       y       z     vdW  Elec       q    Type
REMARK                         _______ _______ _______ _____ _____    ______ ____
ROOT
ATOM      1  C   UNL     1      48.624   8.566  15.932  0.00  0.00    +0.000 A 
ATOM      2  C   UNL     1      48.068   8.830  17.184  0.00  0.00    +0.000 A 
ATOM      3  C   UNL     1      48.432   8.066  18.310  0.00  0.00    +0.000 A 
ATOM      4  C   UNL     1      49.323   6.982  18.233  0.00  0.00    +0.000 A 
ATOM      5  C   UNL     1      49.883   6.763  16.962  0.00  0.00    +0.000 A 
ATOM      6  C   UNL     1      49.563   7.542  15.842  0.00  0.00    +0.000 A 
ENDROOT
BRANCH   1   7
ATOM      7  C   UNL     1      48.205   9.317  14.701  0.00  0.00    +0.000 C 
BRANCH   7  10
ATOM      8  C   UNL     1      47.105   8.110  12.908  0.00  0.00    +0.000 C 
ATOM      9  O   UNL     1      48.205   8.010  12.365  0.00  0.00    +0.000 OA
ATOM     10  N   UNL     1      46.990   8.815  14.095  0.00  0.00    +0.000 N 
ATOM     11  H   UNL     1      46.168   8.728  14.676  0.00  0.00    +0.000 HD
BRANCH   8  19
ATOM     12  C   UNL     1      46.975   4.891  14.297  0.00  0.00    +0.000 C 
ATOM     13  C   UNL     1      45.781   5.129  13.455  0.00  0.00    +0.000 A 
ATOM     14  C   UNL     1      44.727   4.247  13.186  0.00  0.00    +0.000 A 
ATOM     15  N   UNL     1      43.790   4.864  12.342  0.00  0.00    +0.000 N 
ATOM     16  C   UNL     1      44.238   6.116  12.085  0.00  0.00    +0.000 A 
ATOM     17  N   UNL     1      43.845   7.208  11.375  0.00  0.00    +0.000 NA
ATOM     18  C   UNL     1      44.886   8.087  11.606  0.00  0.00    +0.000 C 
ATOM     19  C   UNL     1      45.869   7.527  12.477  0.00  0.00    +0.000 C 
ATOM     20  C   UNL     1      45.394   6.237  12.739  0.00  0.00    +0.000 A 
ATOM     21  H   UNL     1      42.937   4.457  11.984  0.00  0.00    +0.000 HD
ENDBRANCH   8  19
ENDBRANCH   7  10
ENDBRANCH   1   7
BRANCH   4  22
ATOM     22  N   UNL     1      49.649   6.179  19.323  0.00  0.00    +0.000 N 
BRANCH  22  23
ATOM     23  C   UNL     1      49.171   6.459  20.697  0.00  0.00    +0.000 C 
BRANCH  23  24
ATOM     24  C   UNL     1      47.785   5.874  21.028  0.00  0.00    +0.000 C 
BRANCH  24  25
ATOM     25  O   UNL     1      47.872   4.568  21.591  0.00  0.00    +0.000 OA
ATOM     26  H   UNL     1      47.886   4.705  22.557  0.00  0.00    +0.000 HD
ENDBRANCH  24  25
ENDBRANCH  23  24
ENDBRANCH  22  23
BRANCH  22  27
ATOM     27  C   UNL     1      50.311   4.867  19.129  0.00  0.00    +0.000 C 
BRANCH  27  28
ATOM     28  C   UNL     1      49.617   3.882  18.208  0.00  0.00    +0.000 A 
ATOM     29  C   UNL     1      48.237   3.713  18.089  0.00  0.00    +0.000 A 
ATOM     30  C   UNL     1      47.724   2.756  17.206  0.00  0.00    +0.000 A 
ATOM     31  C   UNL     1      48.610   2.000  16.460  0.00  0.00    +0.000 A 
ATOM     32  N   UNL     1      49.949   2.133  16.539  0.00  0.00    +0.000 NA
ATOM     33  C   UNL     1      50.415   3.064  17.404  0.00  0.00    +0.000 A 
ENDBRANCH  27  28
ENDBRANCH  22  27
ENDBRANCH   4  22
TORSDOF 9
ENDMDL
