MODEL 1
REMARK VINA RESULT:    -8.725      0.000      0.000
REMARK INTER + INTRA:         -13.476
REMARK INTER:                 -12.295
REMARK INTRA:                  -1.181
REMARK UNBOUND:                -1.181
REMARK  Name = 
REMARK  8 active torsions:
REMARK  status: ('A' for Active; 'I' for Inactive)
REMARK    1  A    between atoms: C_1  and  C_2
REMARK    2  A    between atoms: C_2  and  C_3
REMARK    3  A    between atoms: C_2  and  C_14
REMARK    4  A    between atoms: C_3  and  O_4
REMARK    5  A    between atoms: O_4  and  C_5
REMARK    6  A    between atoms: C_8  and  C_9
REMARK    7  A    between atoms: C_18  and  O_19
REMARK    8  A    between atoms: O_19  and  C_20
REMARK                            x       y       z     vdW  Elec       q    Type
REMARK                         _______ _______ _______ _____ _____    ______ ____
ROOT
ATOM      1  C   UNL     1      42.697   5.376  12.236  0.00  0.00    +0.000 C 
ATOM      2  C   UNL     1      43.708   4.327  12.710  0.00  0.00    +0.000 C 
ENDROOT
BRANCH   2   3
ATOM      3  C   UNL     1      45.110   4.908  12.825  0.00  0.00    +0.000 A 
ATOM      4  C   UNL     1      45.558   5.855  11.897  0.00  0.00    +0.000 A 
ATOM      5  C   UNL     1      46.816   6.447  12.040  0.00  0.00    +0.000 A 
ATOM      6  C   UNL     1      47.647   6.099  13.109  0.00  0.00    +0.000 A 
ATOM      7  C   UNL     1      47.224   5.142  14.026  0.00  0.00    +0.000 A 
ATOM      8  C   UNL     1      45.963   4.557  13.885  0.00  0.00    +0.000 A 
BRANCH   7   9
ATOM      9  O   UNL     1      47.937   4.738  15.126  0.00  0.00    +0.000 OA
BRANCH   9  10
ATOM     10  C   UNL     1      47.244   4.059  16.197  0.00  0.00    +0.000 C 
ATOM     11  C   UNL     1      47.245   4.720  17.590  0.00  0.00    +0.000 C 
ATOM     12  N   UNL     1      47.725   3.470  18.200  0.00  0.00    +0.000 NA
ATOM     13  C   UNL     1      48.045   2.926  16.872  0.00  0.00    +0.000 C 
ATOM     14  H   UNL     1      47.008   2.947  18.701  0.00  0.00    +0.000 HD
ENDBRANCH   9  10
ENDBRANCH   7   9
ENDBRANCH   2   3
BRANCH   2  15
ATOM     15  C   UNL     1      43.730   3.092  11.792  0.00  0.00    +0.000 C 
BRANCH  15  16
ATOM     16  O   UNL     1      43.363   3.447  10.455  0.00  0.00    +0.000 OA
BRANCH  16  17
ATOM     17  C   UNL     1      44.327   3.245   9.502  0.00  0.00    +0.000 A 
ATOM     18  C   UNL     1      44.866   4.230   8.671  0.00  0.00    +0.000 A 
ATOM     19  C   UNL     1      45.851   3.904   7.737  0.00  0.00    +0.000 A 
ATOM     20  C   UNL     1      46.319   2.590   7.626  0.00  0.00    +0.000 A 
ATOM     21  C   UNL     1      45.775   1.597   8.449  0.00  0.00    +0.000 A 
ATOM     22  C   UNL     1      44.784   1.928   9.382  0.00  0.00    +0.000 A 
BRANCH  20  23
ATOM     23  C   UNL     1      47.366   2.310   6.613  0.00  0.00    +0.000 C 
ATOM     24  N   UNL     1      47.408   3.111   5.507  0.00  0.00    +0.000 N 
ATOM     25  O   UNL     1      48.143   1.370   6.733  0.00  0.00    +0.000 OA
ATOM     26  H   UNL     1      46.653   3.732   5.254  0.00  0.00    +0.000 HD
ATOM     27  H   UNL     1      48.050   2.827   4.777  0.00  0.00    +0.000 HD
ENDBRANCH  20  23
ENDBRANCH  16  17
ENDBRANCH  15  16
ENDBRANCH   2  15
TORSDOF 7
ENDMDL
MODEL 2
REMARK VINA RESULT:    -7.510      1.473      1.653
REMARK INTER + INTRA:         -11.764
REMARK INTER:                 -10.735
REMARK INTRA:                  -1.028
REMARK UNBOUND:                -1.181
REMARK  Name = 
REMARK  8 active torsions:
REMARK  status: ('A' for Active; 'I' for Inactive)
REMARK    1  A    between atoms: C_1  and  C_2
REMARK    2  A    between atoms: C_2  and  C_3
REMARK    3  A    between atoms: C_2  and  C_14
REMARK    4  A    between atoms: C_3  and  O_4
REMARK    5  A    between atoms: O_4  and  C_5
REMARK    6  A    between atoms: C_8  and  C_9
REMARK    7  A    between atoms: C_18  and  O_19
REMARK    8  A    between atoms: O_19  and  C_20
REMARK                            x       y       z     vdW  Elec       q    Type
REMARK                         _______ _______ _______ _____ _____    ______ ____
ROOT
ATOM      1  C   UNL     1      43.749   4.053  13.257  0.00  0.00    +0.000 C 
ATOM      2  C   UNL     1      44.674   4.414  12.091  0.00  0.00    +0.000 C 
ENDROOT
BRANCH   2   3
ATOM      3  C   UNL     1      45.895   5.191  12.560  0.00  0.00    +0.000 A 
ATOM      4  C   UNL     1      46.391   6.253  11.796  0.00  0.00    +0.000 A 
ATOM      5  C   UNL     1      47.466   7.019  12.258  0.00  0.00    +0.000 A 
ATOM      6  C   UNL     1      48.064   6.731  13.488  0.00  0.00    +0.000 A 
ATOM      7  C   UNL     1      47.596   5.663  14.248  0.00  0.00    +0.000 A 
ATOM      8  C   UNL     1      46.518   4.905  13.788  0.00  0.00    +0.000 A 
BRANCH   7   9
ATOM      9  O   UNL     1      48.084   5.300  15.478  0.00  0.00    +0.000 OA
BRANCH   9  10
ATOM     10  C   UNL     1      49.007   6.185  16.153  0.00  0.00    +0.000 C 
ATOM     11  C   UNL     1      50.109   5.549  17.024  0.00  0.00    +0.000 C 
ATOM     12  N   UNL     1      49.728   6.405  18.158  0.00  0.00    +0.000 NA
ATOM     13  C   UNL     1      48.483   6.785  17.474  0.00  0.00    +0.000 C 
ATOM     14  H   UNL     1      50.363   7.184  18.326  0.00  0.00    +0.000 HD
ENDBRANCH   9  10
ENDBRANCH   7   9
ENDBRANCH   2   3
BRANCH   2  15
ATOM     15  C   UNL     1      43.938   5.211  10.999  0.00  0.00    +0.000 C 
BRANCH  15  16
ATOM     16  O   UNL     1      43.533   4.352   9.929  0.00  0.00    +0.000 OA
BRANCH  16  17
ATOM     17  C   UNL     1      44.549   3.813   9.182  0.00  0.00    +0.000 A 
ATOM     18  C   UNL     1      45.467   4.537   8.418  0.00  0.00    +0.000 A 
ATOM     19  C   UNL     1      46.466   3.876   7.702  0.00  0.00    +0.000 A 
ATOM     20  C   UNL     1      46.568   2.482   7.745  0.00  0.00    +0.000 A 
ATOM     21  C   UNL     1      45.644   1.750   8.500  0.00  0.00    +0.000 A 
ATOM     22  C   UNL     1      44.640   2.418   9.215  0.00  0.00    +0.000 A 
BRANCH  20  23
ATOM     23  C   UNL     1      47.651   1.840   6.959  0.00  0.00    +0.000 C 
ATOM     24  N   UNL     1      48.442   2.649   6.194  0.00  0.00    +0.000 N 
ATOM     25  O   UNL     1      47.810   0.626   6.957  0.00  0.00    +0.000 OA
ATOM     26  H   UNL     1      48.200   3.605   5.980  0.00  0.00    +0.000 HD
ATOM     27  H   UNL     1      49.093   2.178   5.577  0.00  0.00    +0.000 HD
ENDBRANCH  20  23
ENDBRANCH  16  17
ENDBRANCH  15  16
ENDBRANCH   2  15
TORSDOF 7
ENDMDL
MODEL 3
REMARK VINA RESULT:    -7.406      2.535      3.673
REMARK INTER + INTRA:         -11.617
REMARK INTER:                 -10.545
REMARK INTRA:                  -1.072
REMARK UNBOUND:                -1.181
REMARK  Name = 
REMARK  8 active torsions:
REMARK  status: ('A' for Active; 'I' for Inactive)
REMARK    1  A    between atoms: C_1  and  C_2
REMARK    2  A    between atoms: C_2  and  C_3
REMARK    3  A    between atoms: C_2  and  C_14
REMARK    4  A    between atoms: C_3  and  O_4
REMARK    5  A    between atoms: O_4  and  C_5
REMARK    6  A    between atoms: C_8  and  C_9
REMARK    7  A    between atoms: C_18  and  O_19
REMARK    8  A    between atoms: O_19  and  C_20
REMARK                            x       y       z     vdW  Elec       q    Type
REMARK                         _______ _______ _______ _____ _____    ______ ____
ROOT
ATOM      1  C   UNL     1      43.251   6.679  11.303  0.00  0.00    +0.000 C 
ATOM      2  C   UNL     1      43.708   5.473  12.130  0.00  0.00    +0.000 C 
ENDROOT
BRANCH   2   3
ATOM      3  C   UNL     1      45.157   5.610  12.571  0.00  0.00    +0.000 A 
ATOM      4  C   UNL     1      45.665   4.792  13.587  0.00  0.00    +0.000 A 
ATOM      5  C   UNL     1      47.015   4.860  13.945  0.00  0.00    +0.000 A 
ATOM      6  C   UNL     1      47.875   5.752  13.298  0.00  0.00    +0.000 A 
ATOM      7  C   UNL     1      47.379   6.589  12.304  0.00  0.00    +0.000 A 
ATOM      8  C   UNL     1      46.032   6.513  11.942  0.00  0.00    +0.000 A 
BRANCH   7   9
ATOM      9  O   UNL     1      48.129   7.484  11.583  0.00  0.00    +0.000 OA
BRANCH   9  10
ATOM     10  C   UNL     1      48.659   8.650  12.252  0.00  0.00    +0.000 C 
ATOM     11  C   UNL     1      47.712   9.446  13.173  0.00  0.00    +0.000 C 
ATOM     12  N   UNL     1      48.056  10.694  12.474  0.00  0.00    +0.000 NA
ATOM     13  C   UNL     1      48.696   9.931  11.392  0.00  0.00    +0.000 C 
ATOM     14  H   UNL     1      48.694  11.299  12.989  0.00  0.00    +0.000 HD
ENDBRANCH   9  10
ENDBRANCH   7   9
ENDBRANCH   2   3
BRANCH   2  15
ATOM     15  C   UNL     1      43.518   4.148  11.370  0.00  0.00    +0.000 C 
BRANCH  15  16
ATOM     16  O   UNL     1      43.522   4.369   9.956  0.00  0.00    +0.000 OA
BRANCH  16  17
ATOM     17  C   UNL     1      44.474   3.681   9.250  0.00  0.00    +0.000 A 
ATOM     18  C   UNL     1      44.663   2.298   9.276  0.00  0.00    +0.000 A 
ATOM     19  C   UNL     1      45.667   1.708   8.507  0.00  0.00    +0.000 A 
ATOM     20  C   UNL     1      46.492   2.490   7.693  0.00  0.00    +0.000 A 
ATOM     21  C   UNL     1      46.316   3.878   7.672  0.00  0.00    +0.000 A 
ATOM     22  C   UNL     1      45.308   4.467   8.448  0.00  0.00    +0.000 A 
BRANCH  20  23
ATOM     23  C   UNL     1      47.541   1.801   6.902  0.00  0.00    +0.000 C 
ATOM     24  N   UNL     1      48.594   2.549   6.458  0.00  0.00    +0.000 N 
ATOM     25  O   UNL     1      47.454   0.612   6.617  0.00  0.00    +0.000 OA
ATOM     26  H   UNL     1      48.586   3.558   6.462  0.00  0.00    +0.000 HD
ATOM     27  H   UNL     1      49.232   2.084   5.823  0.00  0.00    +0.000 HD
ENDBRANCH  20  23
ENDBRANCH  16  17
ENDBRANCH  15  16
ENDBRANCH   2  15
TORSDOF 7
ENDMDL
MODEL 4
REMARK VINA RESULT:    -7.247      2.584      3.243
REMARK INTER + INTRA:         -11.393
REMARK INTER:                 -10.655
REMARK INTRA:                  -0.738
REMARK UNBOUND:                -1.181
REMARK  Name = 
REMARK  8 active torsions:
REMARK  status: ('A' for Active; 'I' for Inactive)
REMARK    1  A    between atoms: C_1  and  C_2
REMARK    2  A    between atoms: C_2  and  C_3
REMARK    3  A    between atoms: C_2  and  C_14
REMARK    4  A    between atoms: C_3  and  O_4
REMARK    5  A    between atoms: O_4  and  C_5
REMARK    6  A    between atoms: C_8  and  C_9
REMARK    7  A    between atoms: C_18  and  O_19
REMARK    8  A    between atoms: O_19  and  C_20
REMARK                            x       y       z     vdW  Elec       q    Type
REMARK                         _______ _______ _______ _____ _____    ______ ____
ROOT
ATOM      1  C   UNL     1      44.921   4.043  12.958  0.00  0.00    +0.000 C 
ATOM      2  C   UNL     1      45.123   4.870  11.684  0.00  0.00    +0.000 C 
ENDROOT
BRANCH   2   3
ATOM      3  C   UNL     1      45.611   6.276  11.997  0.00  0.00    +0.000 A 
ATOM      4  C   UNL     1      44.952   7.387  11.456  0.00  0.00    +0.000 A 
ATOM      5  C   UNL     1      45.348   8.683  11.800  0.00  0.00    +0.000 A 
ATOM      6  C   UNL     1      46.410   8.889  12.685  0.00  0.00    +0.000 A 
ATOM      7  C   UNL     1      47.089   7.795  13.211  0.00  0.00    +0.000 A 
ATOM      8  C   UNL     1      46.687   6.501  12.873  0.00  0.00    +0.000 A 
BRANCH   7   9
ATOM      9  O   UNL     1      48.128   7.870  14.105  0.00  0.00    +0.000 OA
BRANCH   9  10
ATOM     10  C   UNL     1      49.420   7.346  13.721  0.00  0.00    +0.000 C 
ATOM     11  C   UNL     1      50.675   8.113  14.186  0.00  0.00    +0.000 C 
ATOM     12  N   UNL     1      51.184   8.145  12.805  0.00  0.00    +0.000 NA
ATOM     13  C   UNL     1      49.873   7.719  12.294  0.00  0.00    +0.000 C 
ATOM     14  H   UNL     1      51.936   7.482  12.622  0.00  0.00    +0.000 HD
ENDBRANCH   9  10
ENDBRANCH   7   9
ENDBRANCH   2   3
BRANCH   2  15
ATOM     15  C   UNL     1      43.842   4.940  10.834  0.00  0.00    +0.000 C 
BRANCH  15  16
ATOM     16  O   UNL     1      43.597   3.691  10.180  0.00  0.00    +0.000 OA
BRANCH  16  17
ATOM     17  C   UNL     1      44.573   3.275   9.311  0.00  0.00    +0.000 A 
ATOM     18  C   UNL     1      45.070   1.973   9.212  0.00  0.00    +0.000 A 
ATOM     19  C   UNL     1      46.065   1.667   8.281  0.00  0.00    +0.000 A 
ATOM     20  C   UNL     1      46.571   2.654   7.431  0.00  0.00    +0.000 A 
ATOM     21  C   UNL     1      46.086   3.963   7.534  0.00  0.00    +0.000 A 
ATOM     22  C   UNL     1      45.089   4.267   8.471  0.00  0.00    +0.000 A 
BRANCH  20  23
ATOM     23  C   UNL     1      47.629   2.263   6.466  0.00  0.00    +0.000 C 
ATOM     24  N   UNL     1      47.673   2.924   5.271  0.00  0.00    +0.000 N 
ATOM     25  O   UNL     1      48.413   1.352   6.706  0.00  0.00    +0.000 OA
ATOM     26  H   UNL     1      46.914   3.502   4.939  0.00  0.00    +0.000 HD
ATOM     27  H   UNL     1      48.323   2.559   4.586  0.00  0.00    +0.000 HD
ENDBRANCH  20  23
ENDBRANCH  16  17
ENDBRANCH  15  16
ENDBRANCH   2  15
TORSDOF 7
ENDMDL
MODEL 5
REMARK VINA RESULT:    -7.145      1.707      7.710
REMARK INTER + INTRA:         -11.250
REMARK INTER:                 -10.325
REMARK INTRA:                  -0.924
REMARK UNBOUND:                -1.181
REMARK  Name = 
REMARK  8 active torsions:
REMARK  status: ('A' for Active; 'I' for Inactive)
REMARK    1  A    between atoms: C_1  and  C_2
REMARK    2  A    between atoms: C_2  and  C_3
REMARK    3  A    between atoms: C_2  and  C_14
REMARK    4  A    between atoms: C_3  and  O_4
REMARK    5  A    between atoms: O_4  and  C_5
REMARK    6  A    between atoms: C_8  and  C_9
REMARK    7  A    between atoms: C_18  and  O_19
REMARK    8  A    between atoms: O_19  and  C_20
REMARK                            x       y       z     vdW  Elec       q    Type
REMARK                         _______ _______ _______ _____ _____    ______ ____
ROOT
ATOM      1  C   UNL     1      44.322   6.836  11.748  0.00  0.00    +0.000 C 
ATOM      2  C   UNL     1      45.432   6.373  10.801  0.00  0.00    +0.000 C 
ENDROOT
BRANCH   2   3
ATOM      3  C   UNL     1      45.143   4.994  10.227  0.00  0.00    +0.000 A 
ATOM      4  C   UNL     1      44.416   4.058  10.972  0.00  0.00    +0.000 A 
ATOM      5  C   UNL     1      44.082   2.818  10.422  0.00  0.00    +0.000 A 
ATOM      6  C   UNL     1      44.475   2.491   9.121  0.00  0.00    +0.000 A 
ATOM      7  C   UNL     1      45.219   3.401   8.377  0.00  0.00    +0.000 A 
ATOM      8  C   UNL     1      45.544   4.643   8.926  0.00  0.00    +0.000 A 
BRANCH   7   9
ATOM      9  O   UNL     1      45.638   3.205   7.085  0.00  0.00    +0.000 OA
BRANCH   9  10
ATOM     10  C   UNL     1      47.056   3.105   6.818  0.00  0.00    +0.000 C 
ATOM     11  C   UNL     1      47.499   2.843   5.365  0.00  0.00    +0.000 C 
ATOM     12  N   UNL     1      48.329   1.710   5.806  0.00  0.00    +0.000 NA
ATOM     13  C   UNL     1      47.679   1.727   7.125  0.00  0.00    +0.000 C 
ATOM     14  H   UNL     1      49.328   1.910   5.834  0.00  0.00    +0.000 HD
ENDBRANCH   9  10
ENDBRANCH   7   9
ENDBRANCH   2   3
BRANCH   2  15
ATOM     15  C   UNL     1      46.810   6.372  11.487  0.00  0.00    +0.000 C 
BRANCH  15  16
ATOM     16  O   UNL     1      46.710   6.856  12.830  0.00  0.00    +0.000 OA
BRANCH  16  17
ATOM     17  C   UNL     1      47.091   5.976  13.809  0.00  0.00    +0.000 A 
ATOM     18  C   UNL     1      47.865   6.292  14.928  0.00  0.00    +0.000 A 
ATOM     19  C   UNL     1      48.187   5.307  15.863  0.00  0.00    +0.000 A 
ATOM     20  C   UNL     1      47.733   3.994  15.699  0.00  0.00    +0.000 A 
ATOM     21  C   UNL     1      46.968   3.669  14.574  0.00  0.00    +0.000 A 
ATOM     22  C   UNL     1      46.649   4.660  13.635  0.00  0.00    +0.000 A 
BRANCH  20  23
ATOM     23  C   UNL     1      48.113   2.995  16.729  0.00  0.00    +0.000 C 
ATOM     24  N   UNL     1      47.294   2.861  17.814  0.00  0.00    +0.000 N 
ATOM     25  O   UNL     1      49.144   2.340  16.639  0.00  0.00    +0.000 OA
ATOM     26  H   UNL     1      46.579   3.535  18.044  0.00  0.00    +0.000 HD
ATOM     27  H   UNL     1      47.635   2.262  18.556  0.00  0.00    +0.000 HD
ENDBRANCH  20  23
ENDBRANCH  16  17
ENDBRANCH  15  16
ENDBRANCH   2  15
TORSDOF 7
ENDMDL
MODEL 6
REMARK VINA RESULT:    -6.997      3.343      4.995
REMARK INTER + INTRA:         -11.041
REMARK INTER:                 -10.148
REMARK INTRA:                  -0.893
REMARK UNBOUND:                -1.181
REMARK  Name = 
REMARK  8 active torsions:
REMARK  status: ('A' for Active; 'I' for Inactive)
REMARK    1  A    between atoms: C_1  and  C_2
REMARK    2  A    between atoms: C_2  and  C_3
REMARK    3  A    between atoms: C_2  and  C_14
REMARK    4  A    between atoms: C_3  and  O_4
REMARK    5  A    between atoms: O_4  and  C_5
REMARK    6  A    between atoms: C_8  and  C_9
REMARK    7  A    between atoms: C_18  and  O_19
REMARK    8  A    between atoms: O_19  and  C_20
REMARK                            x       y       z     vdW  Elec       q    Type
REMARK                         _______ _______ _______ _____ _____    ______ ____
ROOT
ATOM      1  C   UNL     1      45.436   3.928  12.955  0.00  0.00    +0.000 C 
ATOM      2  C   UNL     1      45.302   4.873  11.757  0.00  0.00    +0.000 C 
ENDROOT
BRANCH   2   3
ATOM      3  C   UNL     1      45.709   6.295  12.114  0.00  0.00    +0.000 A 
ATOM      4  C   UNL     1      46.980   6.553  12.641  0.00  0.00    +0.000 A 
ATOM      5  C   UNL     1      47.387   7.865  12.901  0.00  0.00    +0.000 A 
ATOM      6  C   UNL     1      46.529   8.938  12.643  0.00  0.00    +0.000 A 
ATOM      7  C   UNL     1      45.254   8.695  12.143  0.00  0.00    +0.000 A 
ATOM      8  C   UNL     1      44.852   7.384  11.876  0.00  0.00    +0.000 A 
BRANCH   7   9
ATOM      9  O   UNL     1      44.335   9.663  11.828  0.00  0.00    +0.000 OA
BRANCH   9  10
ATOM     10  C   UNL     1      43.576   9.535  10.604  0.00  0.00    +0.000 C 
ATOM     11  C   UNL     1      43.773  10.611   9.517  0.00  0.00    +0.000 C 
ATOM     12  N   UNL     1      42.319  10.823   9.441  0.00  0.00    +0.000 NA
ATOM     13  C   UNL     1      42.126  10.059  10.682  0.00  0.00    +0.000 C 
ATOM     14  H   UNL     1      41.878  10.403   8.623  0.00  0.00    +0.000 HD
ENDBRANCH   9  10
ENDBRANCH   7   9
ENDBRANCH   2   3
BRANCH   2  15
ATOM     15  C   UNL     1      43.876   4.870  11.177  0.00  0.00    +0.000 C 
BRANCH  15  16
ATOM     16  O   UNL     1      43.651   3.697  10.389  0.00  0.00    +0.000 OA
BRANCH  16  17
ATOM     17  C   UNL     1      44.551   3.481   9.377  0.00  0.00    +0.000 A 
ATOM     18  C   UNL     1      45.072   4.462   8.531  0.00  0.00    +0.000 A 
ATOM     19  C   UNL     1      45.989   4.121   7.535  0.00  0.00    +0.000 A 
ATOM     20  C   UNL     1      46.406   2.795   7.377  0.00  0.00    +0.000 A 
ATOM     21  C   UNL     1      45.878   1.806   8.214  0.00  0.00    +0.000 A 
ATOM     22  C   UNL     1      44.955   2.152   9.210  0.00  0.00    +0.000 A 
BRANCH  20  23
ATOM     23  C   UNL     1      47.381   2.499   6.298  0.00  0.00    +0.000 C 
ATOM     24  N   UNL     1      48.572   1.935   6.658  0.00  0.00    +0.000 N 
ATOM     25  O   UNL     1      47.154   2.787   5.129  0.00  0.00    +0.000 OA
ATOM     26  H   UNL     1      48.894   1.904   7.614  0.00  0.00    +0.000 HD
ATOM     27  H   UNL     1      49.264   1.853   5.923  0.00  0.00    +0.000 HD
ENDBRANCH  20  23
ENDBRANCH  16  17
ENDBRANCH  15  16
ENDBRANCH   2  15
TORSDOF 7
ENDMDL
MODEL 7
REMARK VINA RESULT:    -6.813      3.204      7.302
REMARK INTER + INTRA:         -10.782
REMARK INTER:                  -9.898
REMARK INTRA:                  -0.884
REMARK UNBOUND:                -1.181
REMARK  Name = 
REMARK  8 active torsions:
REMARK  status: ('A' for Active; 'I' for Inactive)
REMARK    1  A    between atoms: C_1  and  C_2
REMARK    2  A    between atoms: C_2  and  C_3
REMARK    3  A    between atoms: C_2  and  C_14
REMARK    4  A    between atoms: C_3  and  O_4
REMARK    5  A    between atoms: O_4  and  C_5
REMARK    6  A    between atoms: C_8  and  C_9
REMARK    7  A    between atoms: C_18  and  O_19
REMARK    8  A    between atoms: O_19  and  C_20
REMARK                            x       y       z     vdW  Elec       q    Type
REMARK                         _______ _______ _______ _____ _____    ______ ____
ROOT
ATOM      1  C   UNL     1      42.470   5.817  11.673  0.00  0.00    +0.000 C 
ATOM      2  C   UNL     1      43.941   5.862  11.247  0.00  0.00    +0.000 C 
ENDROOT
BRANCH   2   3
ATOM      3  C   UNL     1      44.338   4.621  10.461  0.00  0.00    +0.000 A 
ATOM      4  C   UNL     1      43.877   3.360  10.856  0.00  0.00    +0.000 A 
ATOM      5  C   UNL     1      44.176   2.225  10.096  0.00  0.00    +0.000 A 
ATOM      6  C   UNL     1      44.944   2.333   8.933  0.00  0.00    +0.000 A 
ATOM      7  C   UNL     1      45.428   3.577   8.541  0.00  0.00    +0.000 A 
ATOM      8  C   UNL     1      45.122   4.710   9.298  0.00  0.00    +0.000 A 
BRANCH   7   9
ATOM      9  O   UNL     1      46.168   3.812   7.410  0.00  0.00    +0.000 OA
BRANCH   9  10
ATOM     10  C   UNL     1      46.616   2.686   6.622  0.00  0.00    +0.000 C 
ATOM     11  C   UNL     1      48.024   2.123   6.903  0.00  0.00    +0.000 C 
ATOM     12  N   UNL     1      48.365   2.219   5.475  0.00  0.00    +0.000 NA
ATOM     13  C   UNL     1      47.177   3.049   5.230  0.00  0.00    +0.000 C 
ATOM     14  H   UNL     1      48.356   1.327   4.982  0.00  0.00    +0.000 HD
ENDBRANCH   9  10
ENDBRANCH   7   9
ENDBRANCH   2   3
BRANCH   2  15
ATOM     15  C   UNL     1      44.883   6.039  12.451  0.00  0.00    +0.000 C 
BRANCH  15  16
ATOM     16  O   UNL     1      45.203   7.420  12.647  0.00  0.00    +0.000 OA
BRANCH  16  17
ATOM     17  C   UNL     1      46.501   7.772  12.377  0.00  0.00    +0.000 A 
ATOM     18  C   UNL     1      46.965   9.076  12.186  0.00  0.00    +0.000 A 
ATOM     19  C   UNL     1      48.315   9.312  11.922  0.00  0.00    +0.000 A 
ATOM     20  C   UNL     1      49.223   8.251  11.854  0.00  0.00    +0.000 A 
ATOM     21  C   UNL     1      48.762   6.942  12.033  0.00  0.00    +0.000 A 
ATOM     22  C   UNL     1      47.405   6.708  12.294  0.00  0.00    +0.000 A 
BRANCH  20  23
ATOM     23  C   UNL     1      50.643   8.570  11.567  0.00  0.00    +0.000 C 
ATOM     24  N   UNL     1      51.471   7.536  11.233  0.00  0.00    +0.000 N 
ATOM     25  O   UNL     1      51.078   9.712  11.665  0.00  0.00    +0.000 OA
ATOM     26  H   UNL     1      51.218   6.569  11.373  0.00  0.00    +0.000 HD
ATOM     27  H   UNL     1      52.455   7.762  11.160  0.00  0.00    +0.000 HD
ENDBRANCH  20  23
ENDBRANCH  16  17
ENDBRANCH  15  16
ENDBRANCH   2  15
TORSDOF 7
ENDMDL
MODEL 8
REMARK VINA RESULT:    -6.180      3.627      5.671
REMARK INTER + INTRA:          -9.889
REMARK INTER:                  -9.272
REMARK INTRA:                  -0.617
REMARK UNBOUND:                -1.181
REMARK  Name = 
REMARK  8 active torsions:
REMARK  status: ('A' for Active; 'I' for Inactive)
REMARK    1  A    between atoms: C_1  and  C_2
REMARK    2  A    between atoms: C_2  and  C_3
REMARK    3  A    between atoms: C_2  and  C_14
REMARK    4  A    between atoms: C_3  and  O_4
REMARK    5  A    between atoms: O_4  and  C_5
REMARK    6  A    between atoms: C_8  and  C_9
REMARK    7  A    between atoms: C_18  and  O_19
REMARK    8  A    between atoms: O_19  and  C_20
REMARK                            x       y       z     vdW  Elec       q    Type
REMARK                         _______ _______ _______ _____ _____    ______ ____
ROOT
ATOM      1  C   UNL     1      48.720   9.189  15.474  0.00  0.00    +0.000 C 
ATOM      2  C   UNL     1      48.578   7.707  15.115  0.00  0.00    +0.000 C 
ENDROOT
BRANCH   2   3
ATOM      3  C   UNL     1      49.558   6.842  15.894  0.00  0.00    +0.000 A 
ATOM      4  C   UNL     1      50.936   7.058  15.778  0.00  0.00    +0.000 A 
ATOM      5  C   UNL     1      51.837   6.317  16.548  0.00  0.00    +0.000 A 
ATOM      6  C   UNL     1      51.376   5.347  17.442  0.00  0.00    +0.000 A 
ATOM      7  C   UNL     1      50.010   5.105  17.551  0.00  0.00    +0.000 A 
ATOM      8  C   UNL     1      49.111   5.852  16.786  0.00  0.00    +0.000 A 
BRANCH   7   9
ATOM      9  O   UNL     1      49.438   4.200  18.408  0.00  0.00    +0.000 OA
BRANCH   9  10
ATOM     10  C   UNL     1      49.160   2.864  17.930  0.00  0.00    +0.000 C 
ATOM     11  C   UNL     1      50.287   2.112  17.193  0.00  0.00    +0.000 C 
ATOM     12  N   UNL     1      49.382   1.826  16.069  0.00  0.00    +0.000 NA
ATOM     13  C   UNL     1      48.407   2.799  16.585  0.00  0.00    +0.000 C 
ATOM     14  H   UNL     1      49.037   0.868  16.043  0.00  0.00    +0.000 HD
ENDBRANCH   9  10
ENDBRANCH   7   9
ENDBRANCH   2   3
BRANCH   2  15
ATOM     15  C   UNL     1      48.755   7.462  13.605  0.00  0.00    +0.000 C 
BRANCH  15  16
ATOM     16  O   UNL     1      48.439   6.107  13.271  0.00  0.00    +0.000 OA
BRANCH  16  17
ATOM     17  C   UNL     1      47.162   5.889  12.819  0.00  0.00    +0.000 A 
ATOM     18  C   UNL     1      46.616   6.414  11.646  0.00  0.00    +0.000 A 
ATOM     19  C   UNL     1      45.301   6.116  11.286  0.00  0.00    +0.000 A 
ATOM     20  C   UNL     1      44.514   5.284  12.088  0.00  0.00    +0.000 A 
ATOM     21  C   UNL     1      45.052   4.765  13.272  0.00  0.00    +0.000 A 
ATOM     22  C   UNL     1      46.373   5.068  13.631  0.00  0.00    +0.000 A 
BRANCH  20  23
ATOM     23  C   UNL     1      43.123   5.009  11.650  0.00  0.00    +0.000 C 
ATOM     24  N   UNL     1      42.210   6.017  11.773  0.00  0.00    +0.000 N 
ATOM     25  O   UNL     1      42.787   3.908  11.231  0.00  0.00    +0.000 OA
ATOM     26  H   UNL     1      42.381   6.844  12.325  0.00  0.00    +0.000 HD
ATOM     27  H   UNL     1      41.247   5.769  11.580  0.00  0.00    +0.000 HD
ENDBRANCH  20  23
ENDBRANCH  16  17
ENDBRANCH  15  16
ENDBRANCH   2  15
TORSDOF 7
ENDMDL
MODEL 9
REMARK VINA RESULT:    -6.170      2.737      4.709
REMARK INTER + INTRA:          -9.876
REMARK INTER:                  -8.863
REMARK INTRA:                  -1.013
REMARK UNBOUND:                -1.181
REMARK  Name = 
REMARK  8 active torsions:
REMARK  status: ('A' for Active; 'I' for Inactive)
REMARK    1  A    between atoms: C_1  and  C_2
REMARK    2  A    between atoms: C_2  and  C_3
REMARK    3  A    between atoms: C_2  and  C_14
REMARK    4  A    between atoms: C_3  and  O_4
REMARK    5  A    between atoms: O_4  and  C_5
REMARK    6  A    between atoms: C_8  and  C_9
REMARK    7  A    between atoms: C_18  and  O_19
REMARK    8  A    between atoms: O_19  and  C_20
REMARK                            x       y       z     vdW  Elec       q    Type
REMARK                         _______ _______ _______ _____ _____    ______ ____
ROOT
ATOM      1  C   UNL     1      49.013   7.516  11.789  0.00  0.00    +0.000 C 
ATOM      2  C   UNL     1      48.327   8.536  12.703  0.00  0.00    +0.000 C 
ENDROOT
BRANCH   2   3
ATOM      3  C   UNL     1      48.521   8.193  14.173  0.00  0.00    +0.000 A 
ATOM      4  C   UNL     1      48.465   9.200  15.144  0.00  0.00    +0.000 A 
ATOM      5  C   UNL     1      48.567   8.882  16.502  0.00  0.00    +0.000 A 
ATOM      6  C   UNL     1      48.731   7.555  16.909  0.00  0.00    +0.000 A 
ATOM      7  C   UNL     1      48.812   6.547  15.954  0.00  0.00    +0.000 A 
ATOM      8  C   UNL     1      48.702   6.866  14.598  0.00  0.00    +0.000 A 
BRANCH   7   9
ATOM      9  O   UNL     1      48.947   5.210  16.231  0.00  0.00    +0.000 OA
BRANCH   9  10
ATOM     10  C   UNL     1      47.762   4.384  16.280  0.00  0.00    +0.000 C 
ATOM     11  C   UNL     1      46.949   4.366  17.590  0.00  0.00    +0.000 C 
ATOM     12  N   UNL     1      46.987   2.895  17.613  0.00  0.00    +0.000 NA
ATOM     13  C   UNL     1      48.023   2.891  16.569  0.00  0.00    +0.000 C 
ATOM     14  H   UNL     1      46.115   2.450  17.332  0.00  0.00    +0.000 HD
ENDBRANCH   9  10
ENDBRANCH   7   9
ENDBRANCH   2   3
BRANCH   2  15
ATOM     15  C   UNL     1      46.825   8.668  12.393  0.00  0.00    +0.000 C 
BRANCH  15  16
ATOM     16  O   UNL     1      46.052   7.837  13.264  0.00  0.00    +0.000 OA
BRANCH  16  17
ATOM     17  C   UNL     1      45.643   6.640  12.734  0.00  0.00    +0.000 A 
ATOM     18  C   UNL     1      45.642   5.414  13.403  0.00  0.00    +0.000 A 
ATOM     19  C   UNL     1      45.195   4.259  12.758  0.00  0.00    +0.000 A 
ATOM     20  C   UNL     1      44.735   4.314  11.438  0.00  0.00    +0.000 A 
ATOM     21  C   UNL     1      44.744   5.538  10.759  0.00  0.00    +0.000 A 
ATOM     22  C   UNL     1      45.197   6.694  11.409  0.00  0.00    +0.000 A 
BRANCH  20  23
ATOM     23  C   UNL     1      44.276   3.050  10.811  0.00  0.00    +0.000 C 
ATOM     24  N   UNL     1      43.469   2.232  11.549  0.00  0.00    +0.000 N 
ATOM     25  O   UNL     1      44.637   2.723   9.686  0.00  0.00    +0.000 OA
ATOM     26  H   UNL     1      43.345   2.342  12.545  0.00  0.00    +0.000 HD
ATOM     27  H   UNL     1      43.269   1.325  11.146  0.00  0.00    +0.000 HD
ENDBRANCH  20  23
ENDBRANCH  16  17
ENDBRANCH  15  16
ENDBRANCH   2  15
TORSDOF 7
ENDMDL
