MODEL 1
REMARK VINA RESULT:    -8.472      0.000      0.000
REMARK INTER + INTRA:         -11.593
REMARK INTER:                 -11.444
REMARK INTRA:                  -0.149
REMARK UNBOUND:                -0.149
REMARK  Name = 
REMARK  7 active torsions:
REMARK  status: ('A' for Active; 'I' for Inactive)
REMARK    1  A    between atoms: C_1  and  C_2
REMARK    2  A    between atoms: C_7  and  C_8
REMARK    3  A    between atoms: N_10  and  C_11
REMARK    4  A    between atoms: C_11  and  C_12
REMARK    5  A    between atoms: C_15  and  C_16
REMARK    6  A    between atoms: C_16  and  N_17
REMARK    7  A    between atoms: C_18  and  C_20
REMARK                            x       y       z     vdW  Elec       q    Type
REMARK                         _______ _______ _______ _____ _____    ______ ____
ROOT
ATOM      1  C   UNL     1      44.519   5.846  11.223  0.00  0.00    +0.000 A 
ATOM      2  C   UNL     1      44.288   7.211  11.443  0.00  0.00    +0.000 A 
ATOM      3  C   UNL     1      45.161   7.968  12.231  0.00  0.00    +0.000 A 
ATOM      4  C   UNL     1      46.288   7.379  12.818  0.00  0.00    +0.000 A 
ATOM      5  C   UNL     1      46.482   6.001  12.661  0.00  0.00    +0.000 A 
ATOM      6  C   UNL     1      45.614   5.244  11.861  0.00  0.00    +0.000 A 
ENDROOT
BRANCH   1   7
ATOM      7  C   UNL     1      43.667   5.084  10.234  0.00  0.00    +0.000 C 
BRANCH   7  10
ATOM      8  C   UNL     1      44.656   2.968   9.369  0.00  0.00    +0.000 C 
ATOM      9  O   UNL     1      44.009   2.262  10.135  0.00  0.00    +0.000 OA
ATOM     10  N   UNL     1      44.516   4.344   9.319  0.00  0.00    +0.000 N 
ATOM     11  H   UNL     1      45.152   4.886   8.753  0.00  0.00    +0.000 HD
BRANCH   8  18
ATOM     12  C   UNL     1      46.510   4.716   7.708  0.00  0.00    +0.000 C 
ATOM     13  C   UNL     1      46.501   3.214   7.620  0.00  0.00    +0.000 A 
ATOM     14  C   UNL     1      47.362   2.602   6.687  0.00  0.00    +0.000 A 
ATOM     15  C   UNL     1      47.450   1.213   6.591  0.00  0.00    +0.000 A 
ATOM     16  C   UNL     1      46.714   0.413   7.456  0.00  0.00    +0.000 A 
ATOM     17  C   UNL     1      45.851   1.001   8.383  0.00  0.00    +0.000 A 
ATOM     18  C   UNL     1      45.699   2.398   8.448  0.00  0.00    +0.000 A 
ENDBRANCH   8  18
ENDBRANCH   7  10
ENDBRANCH   1   7
BRANCH   4  19
ATOM     19  C   UNL     1      47.268   8.219  13.599  0.00  0.00    +0.000 C 
BRANCH  19  20
ATOM     20  N   UNL     1      47.686   7.570  14.814  0.00  0.00    +0.000 N 
ATOM     21  C   UNL     1      48.913   6.960  14.899  0.00  0.00    +0.000 C 
ATOM     22  O   UNL     1      49.715   6.981  13.970  0.00  0.00    +0.000 OA
ATOM     23  H   UNL     1      46.966   7.350  15.494  0.00  0.00    +0.000 HD
BRANCH  21  24
ATOM     24  C   UNL     1      49.252   6.330  16.182  0.00  0.00    +0.000 A 
ATOM     25  C   UNL     1      50.268   6.865  16.961  0.00  0.00    +0.000 A 
ATOM     26  S   UNL     1      50.511   6.042  18.435  0.00  0.00    +0.000 S 
ATOM     27  C   UNL     1      49.298   4.910  18.062  0.00  0.00    +0.000 A 
ATOM     28  N   UNL     1      49.013   3.888  18.914  0.00  0.00    +0.000 NA
ATOM     29  C   UNL     1      48.092   3.086  18.494  0.00  0.00    +0.000 A 
ATOM     30  N   UNL     1      47.425   3.218  17.303  0.00  0.00    +0.000 N 
ATOM     31  C   UNL     1      47.658   4.249  16.424  0.00  0.00    +0.000 A 
ATOM     32  O   UNL     1      47.016   4.364  15.388  0.00  0.00    +0.000 OA
ATOM     33  C   UNL     1      48.699   5.170  16.841  0.00  0.00    +0.000 A 
ATOM     34  H   UNL     1      46.710   2.559  17.038  0.00  0.00    +0.000 HD
ENDBRANCH  21  24
ENDBRANCH  19  20
ENDBRANCH   4  19
TORSDOF 6
ENDMDL
MODEL 2
REMARK VINA RESULT:    -8.374      2.216      3.096
REMARK INTER + INTRA:         -11.459
REMARK INTER:                 -10.547
REMARK INTRA:                  -0.912
REMARK UNBOUND:                -0.149
REMARK  Name = 
REMARK  7 active torsions:
REMARK  status: ('A' for Active; 'I' for Inactive)
REMARK    1  A    between atoms: C_1  and  C_2
REMARK    2  A    between atoms: C_7  and  C_8
REMARK    3  A    between atoms: N_10  and  C_11
REMARK    4  A    between atoms: C_11  and  C_12
REMARK    5  A    between atoms: C_15  and  C_16
REMARK    6  A    between atoms: C_16  and  N_17
REMARK    7  A    between atoms: C_18  and  C_20
REMARK                            x       y       z     vdW  Elec       q    Type
REMARK                         _______ _______ _______ _____ _____    ______ ____
ROOT
ATOM      1  C   UNL     1      45.800   5.854  11.812  0.00  0.00    +0.000 A 
ATOM      2  C   UNL     1      46.910   6.405  12.468  0.00  0.00    +0.000 A 
ATOM      3  C   UNL     1      47.348   5.889  13.692  0.00  0.00    +0.000 A 
ATOM      4  C   UNL     1      46.690   4.807  14.289  0.00  0.00    +0.000 A 
ATOM      5  C   UNL     1      45.537   4.301  13.673  0.00  0.00    +0.000 A 
ATOM      6  C   UNL     1      45.104   4.811  12.441  0.00  0.00    +0.000 A 
ENDROOT
BRANCH   1   7
ATOM      7  C   UNL     1      45.445   6.309  10.415  0.00  0.00    +0.000 C 
BRANCH   7  10
ATOM      8  C   UNL     1      45.176   4.410   8.826  0.00  0.00    +0.000 C 
ATOM      9  O   UNL     1      43.963   4.341   8.992  0.00  0.00    +0.000 OA
ATOM     10  N   UNL     1      45.965   5.366   9.442  0.00  0.00    +0.000 N 
ATOM     11  H   UNL     1      46.969   5.307   9.361  0.00  0.00    +0.000 HD
BRANCH   8  18
ATOM     12  C   UNL     1      44.884   1.400   9.159  0.00  0.00    +0.000 C 
ATOM     13  C   UNL     1      45.843   2.029   8.185  0.00  0.00    +0.000 A 
ATOM     14  C   UNL     1      46.673   1.175   7.430  0.00  0.00    +0.000 A 
ATOM     15  C   UNL     1      47.543   1.683   6.466  0.00  0.00    +0.000 A 
ATOM     16  C   UNL     1      47.567   3.048   6.207  0.00  0.00    +0.000 A 
ATOM     17  C   UNL     1      46.756   3.911   6.948  0.00  0.00    +0.000 A 
ATOM     18  C   UNL     1      45.922   3.422   7.971  0.00  0.00    +0.000 A 
ENDBRANCH   8  18
ENDBRANCH   7  10
ENDBRANCH   1   7
BRANCH   4  19
ATOM     19  C   UNL     1      47.218   4.204  15.567  0.00  0.00    +0.000 C 
BRANCH  19  20
ATOM     20  N   UNL     1      47.828   5.192  16.418  0.00  0.00    +0.000 N 
ATOM     21  C   UNL     1      49.029   4.945  17.035  0.00  0.00    +0.000 C 
ATOM     22  O   UNL     1      49.649   3.900  16.854  0.00  0.00    +0.000 OA
ATOM     23  H   UNL     1      47.237   5.947  16.752  0.00  0.00    +0.000 HD
BRANCH  21  24
ATOM     24  C   UNL     1      49.575   6.017  17.878  0.00  0.00    +0.000 A 
ATOM     25  C   UNL     1      50.867   6.472  17.657  0.00  0.00    +0.000 A 
ATOM     26  S   UNL     1      51.336   7.742  18.693  0.00  0.00    +0.000 S 
ATOM     27  C   UNL     1      49.843   7.697  19.507  0.00  0.00    +0.000 A 
ATOM     28  N   UNL     1      49.595   8.531  20.553  0.00  0.00    +0.000 NA
ATOM     29  C   UNL     1      48.436   8.372  21.098  0.00  0.00    +0.000 A 
ATOM     30  N   UNL     1      47.499   7.458  20.686  0.00  0.00    +0.000 N 
ATOM     31  C   UNL     1      47.693   6.615  19.618  0.00  0.00    +0.000 A 
ATOM     32  O   UNL     1      46.820   5.840  19.247  0.00  0.00    +0.000 OA
ATOM     33  C   UNL     1      48.991   6.743  18.981  0.00  0.00    +0.000 A 
ATOM     34  H   UNL     1      46.607   7.389  21.152  0.00  0.00    +0.000 HD
ENDBRANCH  21  24
ENDBRANCH  19  20
ENDBRANCH   4  19
TORSDOF 6
ENDMDL
MODEL 3
REMARK VINA RESULT:    -8.362      3.156      4.880
REMARK INTER + INTRA:         -11.443
REMARK INTER:                 -10.477
REMARK INTRA:                  -0.966
REMARK UNBOUND:                -0.149
REMARK  Name = 
REMARK  7 active torsions:
REMARK  status: ('A' for Active; 'I' for Inactive)
REMARK    1  A    between atoms: C_1  and  C_2
REMARK    2  A    between atoms: C_7  and  C_8
REMARK    3  A    between atoms: N_10  and  C_11
REMARK    4  A    between atoms: C_11  and  C_12
REMARK    5  A    between atoms: C_15  and  C_16
REMARK    6  A    between atoms: C_16  and  N_17
REMARK    7  A    between atoms: C_18  and  C_20
REMARK                            x       y       z     vdW  Elec       q    Type
REMARK                         _______ _______ _______ _____ _____    ______ ____
ROOT
ATOM      1  C   UNL     1      47.308   5.859  13.983  0.00  0.00    +0.000 A 
ATOM      2  C   UNL     1      46.778   4.572  14.142  0.00  0.00    +0.000 A 
ATOM      3  C   UNL     1      47.029   3.831  15.301  0.00  0.00    +0.000 A 
ATOM      4  C   UNL     1      47.814   4.360  16.333  0.00  0.00    +0.000 A 
ATOM      5  C   UNL     1      48.406   5.616  16.147  0.00  0.00    +0.000 A 
ATOM      6  C   UNL     1      48.145   6.364  14.989  0.00  0.00    +0.000 A 
ENDROOT
BRANCH   1   7
ATOM      7  C   UNL     1      46.889   6.711  12.807  0.00  0.00    +0.000 C 
BRANCH   7  10
ATOM      8  C   UNL     1      45.341   5.775  11.095  0.00  0.00    +0.000 C 
ATOM      9  O   UNL     1      44.396   6.465  11.460  0.00  0.00    +0.000 OA
ATOM     10  N   UNL     1      46.600   5.865  11.663  0.00  0.00    +0.000 N 
ATOM     11  H   UNL     1      47.310   5.197  11.404  0.00  0.00    +0.000 HD
BRANCH   8  18
ATOM     12  C   UNL     1      43.643   3.276  11.454  0.00  0.00    +0.000 C 
ATOM     13  C   UNL     1      44.475   3.534  10.227  0.00  0.00    +0.000 A 
ATOM     14  C   UNL     1      44.497   2.543   9.224  0.00  0.00    +0.000 A 
ATOM     15  C   UNL     1      45.198   2.739   8.034  0.00  0.00    +0.000 A 
ATOM     16  C   UNL     1      45.850   3.944   7.806  0.00  0.00    +0.000 A 
ATOM     17  C   UNL     1      45.843   4.935   8.790  0.00  0.00    +0.000 A 
ATOM     18  C   UNL     1      45.199   4.729  10.024  0.00  0.00    +0.000 A 
ENDBRANCH   8  18
ENDBRANCH   7  10
ENDBRANCH   1   7
BRANCH   4  19
ATOM     19  C   UNL     1      48.012   3.588  17.614  0.00  0.00    +0.000 C 
BRANCH  19  20
ATOM     20  N   UNL     1      49.402   3.315  17.869  0.00  0.00    +0.000 N 
ATOM     21  C   UNL     1      50.073   2.352  17.156  0.00  0.00    +0.000 C 
ATOM     22  O   UNL     1      49.534   1.721  16.249  0.00  0.00    +0.000 OA
ATOM     23  H   UNL     1      49.790   3.653  18.743  0.00  0.00    +0.000 HD
BRANCH  21  24
ATOM     24  C   UNL     1      51.490   2.149  17.484  0.00  0.00    +0.000 A 
ATOM     25  C   UNL     1      51.982   0.860  17.631  0.00  0.00    +0.000 A 
ATOM     26  S   UNL     1      53.651   0.796  17.973  0.00  0.00    +0.000 S 
ATOM     27  C   UNL     1      53.767   2.492  17.984  0.00  0.00    +0.000 A 
ATOM     28  N   UNL     1      54.950   3.108  18.252  0.00  0.00    +0.000 NA
ATOM     29  C   UNL     1      54.890   4.398  18.257  0.00  0.00    +0.000 A 
ATOM     30  N   UNL     1      53.754   5.127  18.011  0.00  0.00    +0.000 N 
ATOM     31  C   UNL     1      52.544   4.551  17.708  0.00  0.00    +0.000 A 
ATOM     32  O   UNL     1      51.558   5.229  17.450  0.00  0.00    +0.000 OA
ATOM     33  C   UNL     1      52.554   3.099  17.707  0.00  0.00    +0.000 A 
ATOM     34  H   UNL     1      53.777   6.135  18.023  0.00  0.00    +0.000 HD
ENDBRANCH  21  24
ENDBRANCH  19  20
ENDBRANCH   4  19
TORSDOF 6
ENDMDL
MODEL 4
REMARK VINA RESULT:    -8.296      1.113      1.858
REMARK INTER + INTRA:         -11.355
REMARK INTER:                 -10.300
REMARK INTRA:                  -1.055
REMARK UNBOUND:                -0.149
REMARK  Name = 
REMARK  7 active torsions:
REMARK  status: ('A' for Active; 'I' for Inactive)
REMARK    1  A    between atoms: C_1  and  C_2
REMARK    2  A    between atoms: C_7  and  C_8
REMARK    3  A    between atoms: N_10  and  C_11
REMARK    4  A    between atoms: C_11  and  C_12
REMARK    5  A    between atoms: C_15  and  C_16
REMARK    6  A    between atoms: C_16  and  N_17
REMARK    7  A    between atoms: C_18  and  C_20
REMARK                            x       y       z     vdW  Elec       q    Type
REMARK                         _______ _______ _______ _____ _____    ______ ____
ROOT
ATOM      1  C   UNL     1      45.521   6.764  11.482  0.00  0.00    +0.000 A 
ATOM      2  C   UNL     1      46.760   6.261  11.905  0.00  0.00    +0.000 A 
ATOM      3  C   UNL     1      47.542   6.963  12.827  0.00  0.00    +0.000 A 
ATOM      4  C   UNL     1      47.104   8.185  13.354  0.00  0.00    +0.000 A 
ATOM      5  C   UNL     1      45.902   8.726  12.879  0.00  0.00    +0.000 A 
ATOM      6  C   UNL     1      45.112   8.017  11.962  0.00  0.00    +0.000 A 
ENDROOT
BRANCH   1   7
ATOM      7  C   UNL     1      44.614   5.916  10.621  0.00  0.00    +0.000 C 
BRANCH   7  10
ATOM      8  C   UNL     1      44.857   4.295   8.747  0.00  0.00    +0.000 C 
ATOM      9  O   UNL     1      43.669   4.342   8.449  0.00  0.00    +0.000 OA
ATOM     10  N   UNL     1      45.408   5.063   9.758  0.00  0.00    +0.000 N 
ATOM     11  H   UNL     1      46.365   4.902  10.037  0.00  0.00    +0.000 HD
BRANCH   8  18
ATOM     12  C   UNL     1      44.715   1.275   9.088  0.00  0.00    +0.000 C 
ATOM     13  C   UNL     1      45.793   1.961   8.292  0.00  0.00    +0.000 A 
ATOM     14  C   UNL     1      46.804   1.162   7.722  0.00  0.00    +0.000 A 
ATOM     15  C   UNL     1      47.801   1.722   6.923  0.00  0.00    +0.000 A 
ATOM     16  C   UNL     1      47.778   3.083   6.643  0.00  0.00    +0.000 A 
ATOM     17  C   UNL     1      46.787   3.892   7.203  0.00  0.00    +0.000 A 
ATOM     18  C   UNL     1      45.814   3.355   8.066  0.00  0.00    +0.000 A 
ENDBRANCH   8  18
ENDBRANCH   7  10
ENDBRANCH   1   7
BRANCH   4  19
ATOM     19  C   UNL     1      47.915   8.895  14.409  0.00  0.00    +0.000 C 
BRANCH  19  20
ATOM     20  N   UNL     1      48.099   8.084  15.584  0.00  0.00    +0.000 N 
ATOM     21  C   UNL     1      49.355   7.711  15.992  0.00  0.00    +0.000 C 
ATOM     22  O   UNL     1      50.367   8.088  15.406  0.00  0.00    +0.000 OA
ATOM     23  H   UNL     1      47.287   7.587  15.937  0.00  0.00    +0.000 HD
BRANCH  21  24
ATOM     24  C   UNL     1      49.441   6.888  17.206  0.00  0.00    +0.000 A 
ATOM     25  C   UNL     1      50.107   7.379  18.321  0.00  0.00    +0.000 A 
ATOM     26  S   UNL     1      50.084   6.319  19.657  0.00  0.00    +0.000 S 
ATOM     27  C   UNL     1      49.224   5.145  18.776  0.00  0.00    +0.000 A 
ATOM     28  N   UNL     1      48.900   3.951  19.341  0.00  0.00    +0.000 NA
ATOM     29  C   UNL     1      48.274   3.142  18.553  0.00  0.00    +0.000 A 
ATOM     30  N   UNL     1      47.936   3.423  17.253  0.00  0.00    +0.000 N 
ATOM     31  C   UNL     1      48.218   4.625  16.649  0.00  0.00    +0.000 A 
ATOM     32  O   UNL     1      47.865   4.863  15.501  0.00  0.00    +0.000 OA
ATOM     33  C   UNL     1      48.938   5.565  17.489  0.00  0.00    +0.000 A 
ATOM     34  H   UNL     1      47.440   2.748  16.692  0.00  0.00    +0.000 HD
ENDBRANCH  21  24
ENDBRANCH  19  20
ENDBRANCH   4  19
TORSDOF 6
ENDMDL
MODEL 5
REMARK VINA RESULT:    -8.083      2.066      2.808
REMARK INTER + INTRA:         -11.067
REMARK INTER:                 -10.157
REMARK INTRA:                  -0.910
REMARK UNBOUND:                -0.149
REMARK  Name = 
REMARK  7 active torsions:
REMARK  status: ('A' for Active; 'I' for Inactive)
REMARK    1  A    between atoms: C_1  and  C_2
REMARK    2  A    between atoms: C_7  and  C_8
REMARK    3  A    between atoms: N_10  and  C_11
REMARK    4  A    between atoms: C_11  and  C_12
REMARK    5  A    between atoms: C_15  and  C_16
REMARK    6  A    between atoms: C_16  and  N_17
REMARK    7  A    between atoms: C_18  and  C_20
REMARK                            x       y       z     vdW  Elec       q    Type
REMARK                         _______ _______ _______ _____ _____    ______ ____
ROOT
ATOM      1  C   UNL     1      46.196   6.609  12.318  0.00  0.00    +0.000 A 
ATOM      2  C   UNL     1      46.887   5.631  13.045  0.00  0.00    +0.000 A 
ATOM      3  C   UNL     1      47.771   5.988  14.069  0.00  0.00    +0.000 A 
ATOM      4  C   UNL     1      47.983   7.334  14.393  0.00  0.00    +0.000 A 
ATOM      5  C   UNL     1      47.351   8.317  13.621  0.00  0.00    +0.000 A 
ATOM      6  C   UNL     1      46.456   7.958  12.601  0.00  0.00    +0.000 A 
ENDROOT
BRANCH   1   7
ATOM      7  C   UNL     1      45.121   6.205  11.336  0.00  0.00    +0.000 C 
BRANCH   7  10
ATOM      8  C   UNL     1      44.904   4.628   9.420  0.00  0.00    +0.000 C 
ATOM      9  O   UNL     1      43.685   4.746   9.360  0.00  0.00    +0.000 OA
ATOM     10  N   UNL     1      45.683   5.336  10.318  0.00  0.00    +0.000 N 
ATOM     11  H   UNL     1      46.665   5.117  10.402  0.00  0.00    +0.000 HD
BRANCH   8  18
ATOM     12  C   UNL     1      44.434   1.624   9.518  0.00  0.00    +0.000 C 
ATOM     13  C   UNL     1      45.490   2.262   8.656  0.00  0.00    +0.000 A 
ATOM     14  C   UNL     1      46.325   1.415   7.899  0.00  0.00    +0.000 A 
ATOM     15  C   UNL     1      47.286   1.938   7.034  0.00  0.00    +0.000 A 
ATOM     16  C   UNL     1      47.398   3.314   6.875  0.00  0.00    +0.000 A 
ATOM     17  C   UNL     1      46.583   4.168   7.620  0.00  0.00    +0.000 A 
ATOM     18  C   UNL     1      45.655   3.660   8.548  0.00  0.00    +0.000 A 
ENDBRANCH   8  18
ENDBRANCH   7  10
ENDBRANCH   1   7
BRANCH   4  19
ATOM     19  C   UNL     1      48.874   7.708  15.552  0.00  0.00    +0.000 C 
BRANCH  19  20
ATOM     20  N   UNL     1      49.766   6.637  15.913  0.00  0.00    +0.000 N 
ATOM     21  C   UNL     1      50.350   6.597  17.154  0.00  0.00    +0.000 C 
ATOM     22  O   UNL     1      50.105   7.437  18.016  0.00  0.00    +0.000 OA
ATOM     23  H   UNL     1      50.149   6.077  15.158  0.00  0.00    +0.000 HD
BRANCH  21  24
ATOM     24  C   UNL     1      51.241   5.462  17.432  0.00  0.00    +0.000 A 
ATOM     25  C   UNL     1      52.552   5.699  17.821  0.00  0.00    +0.000 A 
ATOM     26  S   UNL     1      53.441   4.280  18.142  0.00  0.00    +0.000 S 
ATOM     27  C   UNL     1      52.119   3.295  17.724  0.00  0.00    +0.000 A 
ATOM     28  N   UNL     1      52.223   1.939  17.754  0.00  0.00    +0.000 NA
ATOM     29  C   UNL     1      51.155   1.314  17.386  0.00  0.00    +0.000 A 
ATOM     30  N   UNL     1      49.989   1.924  16.999  0.00  0.00    +0.000 N 
ATOM     31  C   UNL     1      49.826   3.289  16.980  0.00  0.00    +0.000 A 
ATOM     32  O   UNL     1      48.759   3.803  16.671  0.00  0.00    +0.000 OA
ATOM     33  C   UNL     1      51.007   4.039  17.369  0.00  0.00    +0.000 A 
ATOM     34  H   UNL     1      49.186   1.376  16.730  0.00  0.00    +0.000 HD
ENDBRANCH  21  24
ENDBRANCH  19  20
ENDBRANCH   4  19
TORSDOF 6
ENDMDL
MODEL 6
REMARK VINA RESULT:    -8.083      3.294      8.768
REMARK INTER + INTRA:         -11.067
REMARK INTER:                  -9.914
REMARK INTRA:                  -1.153
REMARK UNBOUND:                -0.149
REMARK  Name = 
REMARK  7 active torsions:
REMARK  status: ('A' for Active; 'I' for Inactive)
REMARK    1  A    between atoms: C_1  and  C_2
REMARK    2  A    between atoms: C_7  and  C_8
REMARK    3  A    between atoms: N_10  and  C_11
REMARK    4  A    between atoms: C_11  and  C_12
REMARK    5  A    between atoms: C_15  and  C_16
REMARK    6  A    between atoms: C_16  and  N_17
REMARK    7  A    between atoms: C_18  and  C_20
REMARK                            x       y       z     vdW  Elec       q    Type
REMARK                         _______ _______ _______ _____ _____    ______ ____
ROOT
ATOM      1  C   UNL     1      49.994   7.417  15.690  0.00  0.00    +0.000 A 
ATOM      2  C   UNL     1      48.887   6.579  15.494  0.00  0.00    +0.000 A 
ATOM      3  C   UNL     1      48.078   6.712  14.361  0.00  0.00    +0.000 A 
ATOM      4  C   UNL     1      48.358   7.685  13.392  0.00  0.00    +0.000 A 
ATOM      5  C   UNL     1      49.419   8.571  13.620  0.00  0.00    +0.000 A 
ATOM      6  C   UNL     1      50.237   8.430  14.751  0.00  0.00    +0.000 A 
ENDROOT
BRANCH   1   7
ATOM      7  C   UNL     1      50.953   7.150  16.826  0.00  0.00    +0.000 C 
BRANCH   7  10
ATOM      8  C   UNL     1      51.054   4.901  17.893  0.00  0.00    +0.000 C 
ATOM      9  O   UNL     1      50.392   5.247  18.865  0.00  0.00    +0.000 OA
ATOM     10  N   UNL     1      51.332   5.749  16.835  0.00  0.00    +0.000 N 
ATOM     11  H   UNL     1      51.975   5.451  16.116  0.00  0.00    +0.000 HD
BRANCH   8  18
ATOM     12  C   UNL     1      49.490   2.475  16.933  0.00  0.00    +0.000 C 
ATOM     13  C   UNL     1      50.911   2.395  17.421  0.00  0.00    +0.000 A 
ATOM     14  C   UNL     1      51.520   1.125  17.475  0.00  0.00    +0.000 A 
ATOM     15  C   UNL     1      52.853   0.981  17.860  0.00  0.00    +0.000 A 
ATOM     16  C   UNL     1      53.613   2.107  18.153  0.00  0.00    +0.000 A 
ATOM     17  C   UNL     1      53.026   3.373  18.110  0.00  0.00    +0.000 A 
ATOM     18  C   UNL     1      51.664   3.531  17.789  0.00  0.00    +0.000 A 
ENDBRANCH   8  18
ENDBRANCH   7  10
ENDBRANCH   1   7
BRANCH   4  19
ATOM     19  C   UNL     1      47.531   7.768  12.134  0.00  0.00    +0.000 C 
BRANCH  19  20
ATOM     20  N   UNL     1      46.862   6.526  11.845  0.00  0.00    +0.000 N 
ATOM     21  C   UNL     1      45.499   6.418  11.957  0.00  0.00    +0.000 C 
ATOM     22  O   UNL     1      44.793   7.377  12.261  0.00  0.00    +0.000 OA
ATOM     23  H   UNL     1      47.433   5.686  11.818  0.00  0.00    +0.000 HD
BRANCH  21  24
ATOM     24  C   UNL     1      44.908   5.112  11.636  0.00  0.00    +0.000 A 
ATOM     25  C   UNL     1      44.192   4.425  12.608  0.00  0.00    +0.000 A 
ATOM     26  S   UNL     1      43.540   2.946  12.065  0.00  0.00    +0.000 S 
ATOM     27  C   UNL     1      44.233   3.147  10.524  0.00  0.00    +0.000 A 
ATOM     28  N   UNL     1      44.079   2.197   9.563  0.00  0.00    +0.000 NA
ATOM     29  C   UNL     1      44.680   2.463   8.451  0.00  0.00    +0.000 A 
ATOM     30  N   UNL     1      45.414   3.596   8.212  0.00  0.00    +0.000 N 
ATOM     31  C   UNL     1      45.574   4.596   9.142  0.00  0.00    +0.000 A 
ATOM     32  O   UNL     1      46.199   5.617   8.885  0.00  0.00    +0.000 OA
ATOM     33  C   UNL     1      44.931   4.337  10.418  0.00  0.00    +0.000 A 
ATOM     34  H   UNL     1      45.853   3.746   7.318  0.00  0.00    +0.000 HD
ENDBRANCH  21  24
ENDBRANCH  19  20
ENDBRANCH   4  19
TORSDOF 6
ENDMDL
MODEL 7
REMARK VINA RESULT:    -8.013      2.367      3.102
REMARK INTER + INTRA:         -10.972
REMARK INTER:                 -10.279
REMARK INTRA:                  -0.693
REMARK UNBOUND:                -0.149
REMARK  Name = 
REMARK  7 active torsions:
REMARK  status: ('A' for Active; 'I' for Inactive)
REMARK    1  A    between atoms: C_1  and  C_2
REMARK    2  A    between atoms: C_7  and  C_8
REMARK    3  A    between atoms: N_10  and  C_11
REMARK    4  A    between atoms: C_11  and  C_12
REMARK    5  A    between atoms: C_15  and  C_16
REMARK    6  A    between atoms: C_16  and  N_17
REMARK    7  A    between atoms: C_18  and  C_20
REMARK                            x       y       z     vdW  Elec       q    Type
REMARK                         _______ _______ _______ _____ _____    ______ ____
ROOT
ATOM      1  C   UNL     1      45.974   6.695  12.008  0.00  0.00    +0.000 A 
ATOM      2  C   UNL     1      46.200   7.991  12.490  0.00  0.00    +0.000 A 
ATOM      3  C   UNL     1      47.179   8.235  13.458  0.00  0.00    +0.000 A 
ATOM      4  C   UNL     1      47.960   7.189  13.967  0.00  0.00    +0.000 A 
ATOM      5  C   UNL     1      47.687   5.882  13.541  0.00  0.00    +0.000 A 
ATOM      6  C   UNL     1      46.712   5.639  12.561  0.00  0.00    +0.000 A 
ENDROOT
BRANCH   1   7
ATOM      7  C   UNL     1      45.036   6.474  10.843  0.00  0.00    +0.000 C 
BRANCH   7  10
ATOM      8  C   UNL     1      44.854   4.612   9.199  0.00  0.00    +0.000 C 
ATOM      9  O   UNL     1      43.629   4.603   9.227  0.00  0.00    +0.000 OA
ATOM     10  N   UNL     1      45.615   5.519   9.917  0.00  0.00    +0.000 N 
ATOM     11  H   UNL     1      46.618   5.410   9.948  0.00  0.00    +0.000 HD
BRANCH   8  18
ATOM     12  C   UNL     1      44.414   1.615   9.479  0.00  0.00    +0.000 C 
ATOM     13  C   UNL     1      45.489   2.209   8.609  0.00  0.00    +0.000 A 
ATOM     14  C   UNL     1      46.355   1.326   7.934  0.00  0.00    +0.000 A 
ATOM     15  C   UNL     1      47.336   1.803   7.064  0.00  0.00    +0.000 A 
ATOM     16  C   UNL     1      47.438   3.167   6.819  0.00  0.00    +0.000 A 
ATOM     17  C   UNL     1      46.592   4.057   7.483  0.00  0.00    +0.000 A 
ATOM     18  C   UNL     1      45.642   3.599   8.415  0.00  0.00    +0.000 A 
ENDBRANCH   8  18
ENDBRANCH   7  10
ENDBRANCH   1   7
BRANCH   4  19
ATOM     19  C   UNL     1      49.068   7.472  14.949  0.00  0.00    +0.000 C 
BRANCH  19  20
ATOM     20  N   UNL     1      48.700   7.114  16.295  0.00  0.00    +0.000 N 
ATOM     21  C   UNL     1      49.465   6.238  17.024  0.00  0.00    +0.000 C 
ATOM     22  O   UNL     1      50.508   5.763  16.583  0.00  0.00    +0.000 OA
ATOM     23  H   UNL     1      47.747   7.311  16.584  0.00  0.00    +0.000 HD
BRANCH  21  24
ATOM     24  C   UNL     1      49.012   5.940  18.389  0.00  0.00    +0.000 A 
ATOM     25  C   UNL     1      49.120   4.646  18.880  0.00  0.00    +0.000 A 
ATOM     26  S   UNL     1      48.587   4.474  20.490  0.00  0.00    +0.000 S 
ATOM     27  C   UNL     1      48.146   6.115  20.574  0.00  0.00    +0.000 A 
ATOM     28  N   UNL     1      47.582   6.628  21.700  0.00  0.00    +0.000 NA
ATOM     29  C   UNL     1      47.271   7.878  21.618  0.00  0.00    +0.000 A 
ATOM     30  N   UNL     1      47.479   8.663  20.512  0.00  0.00    +0.000 N 
ATOM     31  C   UNL     1      48.070   8.197  19.362  0.00  0.00    +0.000 A 
ATOM     32  O   UNL     1      48.282   8.933  18.407  0.00  0.00    +0.000 OA
ATOM     33  C   UNL     1      48.424   6.790  19.397  0.00  0.00    +0.000 A 
ATOM     34  H   UNL     1      47.218   9.637  20.515  0.00  0.00    +0.000 HD
ENDBRANCH  21  24
ENDBRANCH  19  20
ENDBRANCH   4  19
TORSDOF 6
ENDMDL
MODEL 8
REMARK VINA RESULT:    -7.949      2.133      2.786
REMARK INTER + INTRA:         -10.887
REMARK INTER:                 -10.051
REMARK INTRA:                  -0.835
REMARK UNBOUND:                -0.149
REMARK  Name = 
REMARK  7 active torsions:
REMARK  status: ('A' for Active; 'I' for Inactive)
REMARK    1  A    between atoms: C_1  and  C_2
REMARK    2  A    between atoms: C_7  and  C_8
REMARK    3  A    between atoms: N_10  and  C_11
REMARK    4  A    between atoms: C_11  and  C_12
REMARK    5  A    between atoms: C_15  and  C_16
REMARK    6  A    between atoms: C_16  and  N_17
REMARK    7  A    between atoms: C_18  and  C_20
REMARK                            x       y       z     vdW  Elec       q    Type
REMARK                         _______ _______ _______ _____ _____    ______ ____
ROOT
ATOM      1  C   UNL     1      46.182   6.400  11.932  0.00  0.00    +0.000 A 
ATOM      2  C   UNL     1      47.098   7.454  11.817  0.00  0.00    +0.000 A 
ATOM      3  C   UNL     1      48.100   7.641  12.774  0.00  0.00    +0.000 A 
ATOM      4  C   UNL     1      48.214   6.775  13.869  0.00  0.00    +0.000 A 
ATOM      5  C   UNL     1      47.256   5.765  14.027  0.00  0.00    +0.000 A 
ATOM      6  C   UNL     1      46.258   5.571  13.061  0.00  0.00    +0.000 A 
ENDROOT
BRANCH   1   7
ATOM      7  C   UNL     1      45.217   6.109  10.805  0.00  0.00    +0.000 C 
BRANCH   7  10
ATOM      8  C   UNL     1      45.079   4.433   8.969  0.00  0.00    +0.000 C 
ATOM      9  O   UNL     1      43.865   4.553   8.845  0.00  0.00    +0.000 OA
ATOM     10  N   UNL     1      45.820   5.185   9.864  0.00  0.00    +0.000 N 
ATOM     11  H   UNL     1      46.795   4.966  10.007  0.00  0.00    +0.000 HD
BRANCH   8  18
ATOM     12  C   UNL     1      44.623   1.438   9.249  0.00  0.00    +0.000 C 
ATOM     13  C   UNL     1      45.703   2.026   8.381  0.00  0.00    +0.000 A 
ATOM     14  C   UNL     1      46.567   1.139   7.709  0.00  0.00    +0.000 A 
ATOM     15  C   UNL     1      47.553   1.611   6.842  0.00  0.00    +0.000 A 
ATOM     16  C   UNL     1      47.662   2.974   6.597  0.00  0.00    +0.000 A 
ATOM     17  C   UNL     1      46.819   3.869   7.258  0.00  0.00    +0.000 A 
ATOM     18  C   UNL     1      45.864   3.415   8.187  0.00  0.00    +0.000 A 
ENDBRANCH   8  18
ENDBRANCH   7  10
ENDBRANCH   1   7
BRANCH   4  19
ATOM     19  C   UNL     1      49.347   6.934  14.853  0.00  0.00    +0.000 C 
BRANCH  19  20
ATOM     20  N   UNL     1      48.898   6.820  16.216  0.00  0.00    +0.000 N 
ATOM     21  C   UNL     1      49.105   7.838  17.113  0.00  0.00    +0.000 C 
ATOM     22  O   UNL     1      49.636   8.896  16.784  0.00  0.00    +0.000 OA
ATOM     23  H   UNL     1      48.671   5.890  16.554  0.00  0.00    +0.000 HD
BRANCH  21  24
ATOM     24  C   UNL     1      48.606   7.630  18.478  0.00  0.00    +0.000 A 
ATOM     25  C   UNL     1      47.939   8.660  19.128  0.00  0.00    +0.000 A 
ATOM     26  S   UNL     1      47.390   8.247  20.689  0.00  0.00    +0.000 S 
ATOM     27  C   UNL     1      48.067   6.690  20.571  0.00  0.00    +0.000 A 
ATOM     28  N   UNL     1      47.979   5.812  21.606  0.00  0.00    +0.000 NA
ATOM     29  C   UNL     1      48.560   4.679  21.394  0.00  0.00    +0.000 A 
ATOM     30  N   UNL     1      49.214   4.342  20.237  0.00  0.00    +0.000 N 
ATOM     31  C   UNL     1      49.305   5.184  19.154  0.00  0.00    +0.000 A 
ATOM     32  O   UNL     1      49.859   4.838  18.118  0.00  0.00    +0.000 OA
ATOM     33  C   UNL     1      48.682   6.481  19.349  0.00  0.00    +0.000 A 
ATOM     34  H   UNL     1      49.642   3.435  20.132  0.00  0.00    +0.000 HD
ENDBRANCH  21  24
ENDBRANCH  19  20
ENDBRANCH   4  19
TORSDOF 6
ENDMDL
MODEL 9
REMARK VINA RESULT:    -7.590      3.778      9.954
REMARK INTER + INTRA:         -10.400
REMARK INTER:                  -9.207
REMARK INTRA:                  -1.193
REMARK UNBOUND:                -0.149
REMARK  Name = 
REMARK  7 active torsions:
REMARK  status: ('A' for Active; 'I' for Inactive)
REMARK    1  A    between atoms: C_1  and  C_2
REMARK    2  A    between atoms: C_7  and  C_8
REMARK    3  A    between atoms: N_10  and  C_11
REMARK    4  A    between atoms: C_11  and  C_12
REMARK    5  A    between atoms: C_15  and  C_16
REMARK    6  A    between atoms: C_16  and  N_17
REMARK    7  A    between atoms: C_18  and  C_20
REMARK                            x       y       z     vdW  Elec       q    Type
REMARK                         _______ _______ _______ _____ _____    ______ ____
ROOT
ATOM      1  C   UNL     1      48.856   5.697  19.422  0.00  0.00    +0.000 A 
ATOM      2  C   UNL     1      49.081   4.834  18.341  0.00  0.00    +0.000 A 
ATOM      3  C   UNL     1      49.082   5.315  17.028  0.00  0.00    +0.000 A 
ATOM      4  C   UNL     1      48.861   6.672  16.763  0.00  0.00    +0.000 A 
ATOM      5  C   UNL     1      48.563   7.524  17.834  0.00  0.00    +0.000 A 
ATOM      6  C   UNL     1      48.574   7.044  19.152  0.00  0.00    +0.000 A 
ENDROOT
BRANCH   1   7
ATOM      7  C   UNL     1      49.029   5.198  20.838  0.00  0.00    +0.000 C 
BRANCH   7  10
ATOM      8  C   UNL     1      51.508   5.170  21.069  0.00  0.00    +0.000 C 
ATOM      9  O   UNL     1      51.593   6.391  21.144  0.00  0.00    +0.000 OA
ATOM     10  N   UNL     1      50.298   4.507  20.967  0.00  0.00    +0.000 N 
ATOM     11  H   UNL     1      50.291   3.512  20.794  0.00  0.00    +0.000 HD
BRANCH   8  18
ATOM     12  C   UNL     1      52.755   4.198  18.470  0.00  0.00    +0.000 C 
ATOM     13  C   UNL     1      53.250   3.774  19.827  0.00  0.00    +0.000 A 
ATOM     14  C   UNL     1      54.310   2.848  19.883  0.00  0.00    +0.000 A 
ATOM     15  C   UNL     1      54.859   2.454  21.104  0.00  0.00    +0.000 A 
ATOM     16  C   UNL     1      54.390   3.015  22.285  0.00  0.00    +0.000 A 
ATOM     17  C   UNL     1      53.336   3.931  22.250  0.00  0.00    +0.000 A 
ATOM     18  C   UNL     1      52.725   4.287  21.033  0.00  0.00    +0.000 A 
ENDBRANCH   8  18
ENDBRANCH   7  10
ENDBRANCH   1   7
BRANCH   4  19
ATOM     19  C   UNL     1      48.944   7.197  15.351  0.00  0.00    +0.000 C 
BRANCH  19  20
ATOM     20  N   UNL     1      47.719   6.985  14.624  0.00  0.00    +0.000 N 
ATOM     21  C   UNL     1      47.723   6.340  13.412  0.00  0.00    +0.000 C 
ATOM     22  O   UNL     1      48.752   5.880  12.923  0.00  0.00    +0.000 OA
ATOM     23  H   UNL     1      46.916   7.544  14.894  0.00  0.00    +0.000 HD
BRANCH  21  24
ATOM     24  C   UNL     1      46.424   6.166  12.750  0.00  0.00    +0.000 A 
ATOM     25  C   UNL     1      45.772   7.271  12.219  0.00  0.00    +0.000 A 
ATOM     26  S   UNL     1      44.296   6.896  11.451  0.00  0.00    +0.000 S 
ATOM     27  C   UNL     1      44.452   5.248  11.843  0.00  0.00    +0.000 A 
ATOM     28  N   UNL     1      43.487   4.355  11.494  0.00  0.00    +0.000 NA
ATOM     29  C   UNL     1      43.717   3.145  11.879  0.00  0.00    +0.000 A 
ATOM     30  N   UNL     1      44.830   2.745  12.574  0.00  0.00    +0.000 N 
ATOM     31  C   UNL     1      45.845   3.605  12.923  0.00  0.00    +0.000 A 
ATOM     32  O   UNL     1      46.847   3.210  13.506  0.00  0.00    +0.000 OA
ATOM     33  C   UNL     1      45.625   4.984  12.529  0.00  0.00    +0.000 A 
ATOM     34  H   UNL     1      44.954   1.780  12.839  0.00  0.00    +0.000 HD
ENDBRANCH  21  24
ENDBRANCH  19  20
ENDBRANCH   4  19
TORSDOF 6
ENDMDL
