MODEL 1
REMARK VINA RESULT:    -9.247      0.000      0.000
REMARK INTER + INTRA:         -13.792
REMARK INTER:                 -13.031
REMARK INTRA:                  -0.761
REMARK UNBOUND:                -0.761
REMARK  Name = 
REMARK  8 active torsions:
REMARK  status: ('A' for Active; 'I' for Inactive)
REMARK    1  A    between atoms: N_1  and  C_2
REMARK    2  A    between atoms: C_2  and  N_3
REMARK    3  A    between atoms: C_2  and  C_16
REMARK    4  A    between atoms: C_4  and  C_6
REMARK    5  A    between atoms: C_19  and  O_20
REMARK    6  A    between atoms: O_20  and  C_21
REMARK    7  A    between atoms: C_21  and  C_22
REMARK    8  A    between atoms: C_25  and  O_26
REMARK                            x       y       z     vdW  Elec       q    Type
REMARK                         _______ _______ _______ _____ _____    ______ ____
ROOT
ATOM      1  C   UNL     1      46.453   7.583  12.860  0.00  0.00    +0.000 C 
ENDROOT
BRANCH   1   2
ATOM      2  C   UNL     1      45.825   6.571  11.922  0.00  0.00    +0.000 A 
ATOM      3  C   UNL     1      44.770   5.778  12.407  0.00  0.00    +0.000 A 
ATOM      4  C   UNL     1      44.136   4.834  11.596  0.00  0.00    +0.000 A 
ATOM      5  C   UNL     1      44.535   4.666  10.271  0.00  0.00    +0.000 A 
ATOM      6  C   UNL     1      45.587   5.437   9.779  0.00  0.00    +0.000 A 
ATOM      7  C   UNL     1      46.222   6.386  10.590  0.00  0.00    +0.000 A 
BRANCH   5   8
ATOM      8  O   UNL     1      43.994   3.767   9.388  0.00  0.00    +0.000 OA
BRANCH   8   9
ATOM      9  C   UNL     1      44.594   2.468   9.399  0.00  0.00    +0.000 C 
BRANCH   9  10
ATOM     10  C   UNL     1      45.665   2.348   8.337  0.00  0.00    +0.000 A 
ATOM     11  C   UNL     1      45.835   3.344   7.375  0.00  0.00    +0.000 A 
ATOM     12  C   UNL     1      46.762   3.147   6.351  0.00  0.00    +0.000 A 
ATOM     13  C   UNL     1      47.490   1.968   6.324  0.00  0.00    +0.000 A 
ATOM     14  C   UNL     1      47.284   1.035   7.325  0.00  0.00    +0.000 A 
ATOM     15  N   UNL     1      46.384   1.194   8.322  0.00  0.00    +0.000 NA
BRANCH  13  16
ATOM     16  O   UNL     1      48.390   1.697   5.338  0.00  0.00    +0.000 OA
ATOM     17  H   UNL     1      48.372   2.424   4.694  0.00  0.00    +0.000 HD
ENDBRANCH  13  16
ENDBRANCH   9  10
ENDBRANCH   8   9
ENDBRANCH   5   8
ENDBRANCH   1   2
BRANCH   1  18
ATOM     18  N   UNL     1      46.977   7.046  14.070  0.00  0.00    +0.000 N 
ATOM     19  C   UNL     1      48.270   6.597  14.159  0.00  0.00    +0.000 C 
ATOM     20  O   UNL     1      49.049   6.643  13.212  0.00  0.00    +0.000 OA
ATOM     21  H   UNL     1      46.305   6.771  14.775  0.00  0.00    +0.000 HD
BRANCH  19  22
ATOM     22  C   UNL     1      48.708   6.128  15.479  0.00  0.00    +0.000 A 
ATOM     23  C   UNL     1      49.732   6.800  16.133  0.00  0.00    +0.000 A 
ATOM     24  S   UNL     1      50.089   6.173  17.676  0.00  0.00    +0.000 S 
ATOM     25  C   UNL     1      48.918   4.950  17.509  0.00  0.00    +0.000 A 
ATOM     26  N   UNL     1      48.716   4.039  18.499  0.00  0.00    +0.000 NA
ATOM     27  C   UNL     1      47.819   3.150  18.228  0.00  0.00    +0.000 A 
ATOM     28  N   UNL     1      47.099   3.098  17.063  0.00  0.00    +0.000 N 
ATOM     29  C   UNL     1      47.238   4.025  16.057  0.00  0.00    +0.000 A 
ATOM     30  O   UNL     1      46.535   3.987  15.052  0.00  0.00    +0.000 OA
ATOM     31  C   UNL     1      48.250   5.033  16.300  0.00  0.00    +0.000 A 
ATOM     32  H   UNL     1      46.401   2.380  16.922  0.00  0.00    +0.000 HD
ENDBRANCH  19  22
ENDBRANCH   1  18
BRANCH   1  33
ATOM     33  N   UNL     1      45.464   8.527  13.339  0.00  0.00    +0.000 NA
ATOM     34  H   UNL     1      45.716   8.772  14.293  0.00  0.00    +0.000 HD
ATOM     35  H   UNL     1      44.566   8.055  13.381  0.00  0.00    +0.000 HD
ENDBRANCH   1  33
TORSDOF 8
ENDMDL
MODEL 2
REMARK VINA RESULT:    -9.146      1.863      2.273
REMARK INTER + INTRA:         -13.650
REMARK INTER:                 -12.660
REMARK INTRA:                  -0.990
REMARK UNBOUND:                -0.761
REMARK  Name = 
REMARK  8 active torsions:
REMARK  status: ('A' for Active; 'I' for Inactive)
REMARK    1  A    between atoms: N_1  and  C_2
REMARK    2  A    between atoms: C_2  and  N_3
REMARK    3  A    between atoms: C_2  and  C_16
REMARK    4  A    between atoms: C_4  and  C_6
REMARK    5  A    between atoms: C_19  and  O_20
REMARK    6  A    between atoms: O_20  and  C_21
REMARK    7  A    between atoms: C_21  and  C_22
REMARK    8  A    between atoms: C_25  and  O_26
REMARK                            x       y       z     vdW  Elec       q    Type
REMARK                         _______ _______ _______ _____ _____    ______ ____
ROOT
ATOM      1  C   UNL     1      47.444   6.532  13.495  0.00  0.00    +0.000 C 
ENDROOT
BRANCH   1   2
ATOM      2  C   UNL     1      46.579   5.823  12.472  0.00  0.00    +0.000 A 
ATOM      3  C   UNL     1      46.030   4.575  12.814  0.00  0.00    +0.000 A 
ATOM      4  C   UNL     1      45.214   3.869  11.926  0.00  0.00    +0.000 A 
ATOM      5  C   UNL     1      44.917   4.402  10.673  0.00  0.00    +0.000 A 
ATOM      6  C   UNL     1      45.464   5.633  10.314  0.00  0.00    +0.000 A 
ATOM      7  C   UNL     1      46.280   6.343  11.205  0.00  0.00    +0.000 A 
BRANCH   5   8
ATOM      8  O   UNL     1      44.139   3.798   9.719  0.00  0.00    +0.000 OA
BRANCH   8   9
ATOM      9  C   UNL     1      44.470   2.434   9.439  0.00  0.00    +0.000 C 
BRANCH   9  10
ATOM     10  C   UNL     1      45.589   2.337   8.426  0.00  0.00    +0.000 A 
ATOM     11  C   UNL     1      45.860   3.393   7.554  0.00  0.00    +0.000 A 
ATOM     12  C   UNL     1      46.830   3.224   6.565  0.00  0.00    +0.000 A 
ATOM     13  C   UNL     1      47.499   2.013   6.482  0.00  0.00    +0.000 A 
ATOM     14  C   UNL     1      47.193   1.020   7.396  0.00  0.00    +0.000 A 
ATOM     15  N   UNL     1      46.249   1.151   8.356  0.00  0.00    +0.000 NA
BRANCH  13  16
ATOM     16  O   UNL     1      48.436   1.769   5.524  0.00  0.00    +0.000 OA
ATOM     17  H   UNL     1      49.224   1.394   5.949  0.00  0.00    +0.000 HD
ENDBRANCH  13  16
ENDBRANCH   9  10
ENDBRANCH   8   9
ENDBRANCH   5   8
ENDBRANCH   1   2
BRANCH   1  18
ATOM     18  N   UNL     1      47.483   5.925  14.783  0.00  0.00    +0.000 N 
ATOM     19  C   UNL     1      48.585   6.024  15.593  0.00  0.00    +0.000 C 
ATOM     20  O   UNL     1      49.589   6.649  15.265  0.00  0.00    +0.000 OA
ATOM     21  H   UNL     1      46.789   5.213  14.972  0.00  0.00    +0.000 HD
BRANCH  19  22
ATOM     22  C   UNL     1      48.475   5.410  16.922  0.00  0.00    +0.000 A 
ATOM     23  C   UNL     1      48.580   4.031  17.043  0.00  0.00    +0.000 A 
ATOM     24  S   UNL     1      48.489   3.473  18.650  0.00  0.00    +0.000 S 
ATOM     25  C   UNL     1      48.261   5.053  19.241  0.00  0.00    +0.000 A 
ATOM     26  N   UNL     1      48.098   5.282  20.572  0.00  0.00    +0.000 NA
ATOM     27  C   UNL     1      47.904   6.522  20.878  0.00  0.00    +0.000 A 
ATOM     28  N   UNL     1      47.870   7.552  19.975  0.00  0.00    +0.000 N 
ATOM     29  C   UNL     1      48.074   7.371  18.627  0.00  0.00    +0.000 A 
ATOM     30  O   UNL     1      48.099   8.322  17.851  0.00  0.00    +0.000 OA
ATOM     31  C   UNL     1      48.274   5.994  18.226  0.00  0.00    +0.000 A 
ATOM     32  H   UNL     1      47.726   8.503  20.286  0.00  0.00    +0.000 HD
ENDBRANCH  19  22
ENDBRANCH   1  18
BRANCH   1  33
ATOM     33  N   UNL     1      46.923   7.852  13.788  0.00  0.00    +0.000 NA
ATOM     34  H   UNL     1      46.017   7.928  13.335  0.00  0.00    +0.000 HD
ATOM     35  H   UNL     1      47.532   8.539  13.352  0.00  0.00    +0.000 HD
ENDBRANCH   1  33
TORSDOF 8
ENDMDL
MODEL 3
REMARK VINA RESULT:    -8.853      1.245      1.682
REMARK INTER + INTRA:         -13.236
REMARK INTER:                 -12.215
REMARK INTRA:                  -1.022
REMARK UNBOUND:                -0.761
REMARK  Name = 
REMARK  8 active torsions:
REMARK  status: ('A' for Active; 'I' for Inactive)
REMARK    1  A    between atoms: N_1  and  C_2
REMARK    2  A    between atoms: C_2  and  N_3
REMARK    3  A    between atoms: C_2  and  C_16
REMARK    4  A    between atoms: C_4  and  C_6
REMARK    5  A    between atoms: C_19  and  O_20
REMARK    6  A    between atoms: O_20  and  C_21
REMARK    7  A    between atoms: C_21  and  C_22
REMARK    8  A    between atoms: C_25  and  O_26
REMARK                            x       y       z     vdW  Elec       q    Type
REMARK                         _______ _______ _______ _____ _____    ______ ____
ROOT
ATOM      1  C   UNL     1      47.196   7.673  13.435  0.00  0.00    +0.000 C 
ENDROOT
BRANCH   1   2
ATOM      2  C   UNL     1      46.533   6.523  12.703  0.00  0.00    +0.000 A 
ATOM      3  C   UNL     1      46.181   6.707  11.354  0.00  0.00    +0.000 A 
ATOM      4  C   UNL     1      45.578   5.688  10.612  0.00  0.00    +0.000 A 
ATOM      5  C   UNL     1      45.320   4.451  11.201  0.00  0.00    +0.000 A 
ATOM      6  C   UNL     1      45.653   4.257  12.541  0.00  0.00    +0.000 A 
ATOM      7  C   UNL     1      46.261   5.277  13.285  0.00  0.00    +0.000 A 
BRANCH   5   8
ATOM      8  O   UNL     1      44.727   3.385  10.577  0.00  0.00    +0.000 OA
BRANCH   8   9
ATOM      9  C   UNL     1      44.378   3.599   9.206  0.00  0.00    +0.000 C 
BRANCH   9  10
ATOM     10  C   UNL     1      45.418   3.012   8.277  0.00  0.00    +0.000 A 
ATOM     11  C   UNL     1      45.845   1.691   8.420  0.00  0.00    +0.000 A 
ATOM     12  C   UNL     1      46.880   1.221   7.612  0.00  0.00    +0.000 A 
ATOM     13  C   UNL     1      47.451   2.080   6.686  0.00  0.00    +0.000 A 
ATOM     14  C   UNL     1      46.960   3.370   6.584  0.00  0.00    +0.000 A 
ATOM     15  N   UNL     1      45.967   3.856   7.362  0.00  0.00    +0.000 NA
BRANCH  13  16
ATOM     16  O   UNL     1      48.484   1.696   5.886  0.00  0.00    +0.000 OA
ATOM     17  H   UNL     1      48.155   1.043   5.246  0.00  0.00    +0.000 HD
ENDBRANCH  13  16
ENDBRANCH   9  10
ENDBRANCH   8   9
ENDBRANCH   5   8
ENDBRANCH   1   2
BRANCH   1  18
ATOM     18  N   UNL     1      47.673   7.368  14.741  0.00  0.00    +0.000 N 
ATOM     19  C   UNL     1      48.977   7.010  14.967  0.00  0.00    +0.000 C 
ATOM     20  O   UNL     1      49.808   6.944  14.065  0.00  0.00    +0.000 OA
ATOM     21  H   UNL     1      46.975   7.174  15.447  0.00  0.00    +0.000 HD
BRANCH  19  22
ATOM     22  C   UNL     1      49.359   6.785  16.367  0.00  0.00    +0.000 A 
ATOM     23  C   UNL     1      50.289   7.628  16.961  0.00  0.00    +0.000 A 
ATOM     24  S   UNL     1      50.586   7.276  18.601  0.00  0.00    +0.000 S 
ATOM     25  C   UNL     1      49.516   5.953  18.565  0.00  0.00    +0.000 A 
ATOM     26  N   UNL     1      49.314   5.191  19.674  0.00  0.00    +0.000 NA
ATOM     27  C   UNL     1      48.500   4.202  19.498  0.00  0.00    +0.000 A 
ATOM     28  N   UNL     1      47.865   3.915  18.318  0.00  0.00    +0.000 N 
ATOM     29  C   UNL     1      48.005   4.686  17.188  0.00  0.00    +0.000 A 
ATOM     30  O   UNL     1      47.374   4.439  16.164  0.00  0.00    +0.000 OA
ATOM     31  C   UNL     1      48.926   5.796  17.324  0.00  0.00    +0.000 A 
ATOM     32  H   UNL     1      47.230   3.131  18.255  0.00  0.00    +0.000 HD
ENDBRANCH  19  22
ENDBRANCH   1  18
BRANCH   1  33
ATOM     33  N   UNL     1      46.249   8.740  13.689  0.00  0.00    +0.000 NA
ATOM     34  H   UNL     1      45.320   8.367  13.518  0.00  0.00    +0.000 HD
ATOM     35  H   UNL     1      46.406   9.474  13.004  0.00  0.00    +0.000 HD
ENDBRANCH   1  33
TORSDOF 8
ENDMDL
MODEL 4
REMARK VINA RESULT:    -8.617      2.129      3.707
REMARK INTER + INTRA:         -12.904
REMARK INTER:                 -11.653
REMARK INTRA:                  -1.250
REMARK UNBOUND:                -0.761
REMARK  Name = 
REMARK  8 active torsions:
REMARK  status: ('A' for Active; 'I' for Inactive)
REMARK    1  A    between atoms: N_1  and  C_2
REMARK    2  A    between atoms: C_2  and  N_3
REMARK    3  A    between atoms: C_2  and  C_16
REMARK    4  A    between atoms: C_4  and  C_6
REMARK    5  A    between atoms: C_19  and  O_20
REMARK    6  A    between atoms: O_20  and  C_21
REMARK    7  A    between atoms: C_21  and  C_22
REMARK    8  A    between atoms: C_25  and  O_26
REMARK                            x       y       z     vdW  Elec       q    Type
REMARK                         _______ _______ _______ _____ _____    ______ ____
ROOT
ATOM      1  C   UNL     1      46.784   4.676  14.714  0.00  0.00    +0.000 C 
ENDROOT
BRANCH   1   2
ATOM      2  C   UNL     1      46.104   4.450  13.378  0.00  0.00    +0.000 A 
ATOM      3  C   UNL     1      45.876   5.564  12.551  0.00  0.00    +0.000 A 
ATOM      4  C   UNL     1      45.265   5.431  11.302  0.00  0.00    +0.000 A 
ATOM      5  C   UNL     1      44.876   4.174  10.841  0.00  0.00    +0.000 A 
ATOM      6  C   UNL     1      45.085   3.061  11.655  0.00  0.00    +0.000 A 
ATOM      7  C   UNL     1      45.700   3.193  12.907  0.00  0.00    +0.000 A 
BRANCH   5   8
ATOM      8  O   UNL     1      44.262   3.924   9.642  0.00  0.00    +0.000 OA
BRANCH   8   9
ATOM      9  C   UNL     1      44.386   2.582   9.163  0.00  0.00    +0.000 C 
BRANCH   9  10
ATOM     10  C   UNL     1      45.572   2.435   8.236  0.00  0.00    +0.000 A 
ATOM     11  C   UNL     1      45.895   3.438   7.321  0.00  0.00    +0.000 A 
ATOM     12  C   UNL     1      46.931   3.220   6.412  0.00  0.00    +0.000 A 
ATOM     13  C   UNL     1      47.614   2.014   6.451  0.00  0.00    +0.000 A 
ATOM     14  C   UNL     1      47.253   1.076   7.402  0.00  0.00    +0.000 A 
ATOM     15  N   UNL     1      46.245   1.255   8.286  0.00  0.00    +0.000 NA
BRANCH  13  16
ATOM     16  O   UNL     1      48.615   1.723   5.575  0.00  0.00    +0.000 OA
ATOM     17  H   UNL     1      48.221   1.503   4.715  0.00  0.00    +0.000 HD
ENDBRANCH  13  16
ENDBRANCH   9  10
ENDBRANCH   8   9
ENDBRANCH   5   8
ENDBRANCH   1   2
BRANCH   1  18
ATOM     18  N   UNL     1      47.726   5.743  14.745  0.00  0.00    +0.000 N 
ATOM     19  C   UNL     1      48.354   6.116  15.905  0.00  0.00    +0.000 C 
ATOM     20  O   UNL     1      48.154   5.549  16.974  0.00  0.00    +0.000 OA
ATOM     21  H   UNL     1      47.723   6.375  13.954  0.00  0.00    +0.000 HD
BRANCH  19  22
ATOM     22  C   UNL     1      49.352   7.188  15.791  0.00  0.00    +0.000 A 
ATOM     23  C   UNL     1      50.607   7.010  16.356  0.00  0.00    +0.000 A 
ATOM     24  S   UNL     1      51.671   8.314  16.092  0.00  0.00    +0.000 S 
ATOM     25  C   UNL     1      50.476   9.186  15.250  0.00  0.00    +0.000 A 
ATOM     26  N   UNL     1      50.739  10.425  14.752  0.00  0.00    +0.000 NA
ATOM     27  C   UNL     1      49.735  10.984  14.162  0.00  0.00    +0.000 A 
ATOM     28  N   UNL     1      48.498  10.413  14.017  0.00  0.00    +0.000 N 
ATOM     29  C   UNL     1      48.203   9.146  14.464  0.00  0.00    +0.000 A 
ATOM     30  O   UNL     1      47.104   8.638  14.264  0.00  0.00    +0.000 OA
ATOM     31  C   UNL     1      49.289   8.482  15.155  0.00  0.00    +0.000 A 
ATOM     32  H   UNL     1      47.759  10.904  13.531  0.00  0.00    +0.000 HD
ENDBRANCH  19  22
ENDBRANCH   1  18
BRANCH   1  33
ATOM     33  N   UNL     1      47.595   3.533  15.082  0.00  0.00    +0.000 NA
ATOM     34  H   UNL     1      46.980   2.855  15.524  0.00  0.00    +0.000 HD
ATOM     35  H   UNL     1      48.264   3.830  15.786  0.00  0.00    +0.000 HD
ENDBRANCH   1  33
TORSDOF 8
ENDMDL
MODEL 5
REMARK VINA RESULT:    -8.571      2.733      4.247
REMARK INTER + INTRA:         -12.839
REMARK INTER:                 -11.484
REMARK INTRA:                  -1.356
REMARK UNBOUND:                -0.761
REMARK  Name = 
REMARK  8 active torsions:
REMARK  status: ('A' for Active; 'I' for Inactive)
REMARK    1  A    between atoms: N_1  and  C_2
REMARK    2  A    between atoms: C_2  and  N_3
REMARK    3  A    between atoms: C_2  and  C_16
REMARK    4  A    between atoms: C_4  and  C_6
REMARK    5  A    between atoms: C_19  and  O_20
REMARK    6  A    between atoms: O_20  and  C_21
REMARK    7  A    between atoms: C_21  and  C_22
REMARK    8  A    between atoms: C_25  and  O_26
REMARK                            x       y       z     vdW  Elec       q    Type
REMARK                         _______ _______ _______ _____ _____    ______ ____
ROOT
ATOM      1  C   UNL     1      47.246   5.875  14.141  0.00  0.00    +0.000 C 
ENDROOT
BRANCH   1   2
ATOM      2  C   UNL     1      46.456   5.393  12.940  0.00  0.00    +0.000 A 
ATOM      3  C   UNL     1      45.846   4.128  13.009  0.00  0.00    +0.000 A 
ATOM      4  C   UNL     1      45.092   3.623  11.947  0.00  0.00    +0.000 A 
ATOM      5  C   UNL     1      44.919   4.379  10.789  0.00  0.00    +0.000 A 
ATOM      6  C   UNL     1      45.527   5.631  10.701  0.00  0.00    +0.000 A 
ATOM      7  C   UNL     1      46.281   6.140  11.767  0.00  0.00    +0.000 A 
BRANCH   5   8
ATOM      8  O   UNL     1      44.212   3.985   9.683  0.00  0.00    +0.000 OA
BRANCH   8   9
ATOM      9  C   UNL     1      44.381   2.615   9.309  0.00  0.00    +0.000 C 
BRANCH   9  10
ATOM     10  C   UNL     1      45.542   2.445   8.355  0.00  0.00    +0.000 A 
ATOM     11  C   UNL     1      45.902   3.466   7.474  0.00  0.00    +0.000 A 
ATOM     12  C   UNL     1      46.909   3.231   6.538  0.00  0.00    +0.000 A 
ATOM     13  C   UNL     1      47.528   1.991   6.516  0.00  0.00    +0.000 A 
ATOM     14  C   UNL     1      47.135   1.035   7.435  0.00  0.00    +0.000 A 
ATOM     15  N   UNL     1      46.153   1.230   8.345  0.00  0.00    +0.000 NA
BRANCH  13  16
ATOM     16  O   UNL     1      48.499   1.684   5.610  0.00  0.00    +0.000 OA
ATOM     17  H   UNL     1      48.823   2.509   5.213  0.00  0.00    +0.000 HD
ENDBRANCH  13  16
ENDBRANCH   9  10
ENDBRANCH   8   9
ENDBRANCH   5   8
ENDBRANCH   1   2
BRANCH   1  18
ATOM     18  N   UNL     1      48.482   6.515  13.838  0.00  0.00    +0.000 N 
ATOM     19  C   UNL     1      49.143   7.278  14.766  0.00  0.00    +0.000 C 
ATOM     20  O   UNL     1      48.721   7.442  15.906  0.00  0.00    +0.000 OA
ATOM     21  H   UNL     1      48.721   6.603  12.859  0.00  0.00    +0.000 HD
BRANCH  19  22
ATOM     22  C   UNL     1      50.440   7.830  14.351  0.00  0.00    +0.000 A 
ATOM     23  C   UNL     1      51.537   7.691  15.190  0.00  0.00    +0.000 A 
ATOM     24  S   UNL     1      52.979   8.331  14.547  0.00  0.00    +0.000 S 
ATOM     25  C   UNL     1      52.179   8.860  13.141  0.00  0.00    +0.000 A 
ATOM     26  N   UNL     1      52.856   9.515  12.159  0.00  0.00    +0.000 NA
ATOM     27  C   UNL     1      52.121   9.886  11.163  0.00  0.00    +0.000 A 
ATOM     28  N   UNL     1      50.775   9.651  11.057  0.00  0.00    +0.000 N 
ATOM     29  C   UNL     1      50.062   8.954  12.004  0.00  0.00    +0.000 A 
ATOM     30  O   UNL     1      48.869   8.705  11.849  0.00  0.00    +0.000 OA
ATOM     31  C   UNL     1      50.834   8.534  13.155  0.00  0.00    +0.000 A 
ATOM     32  H   UNL     1      50.263   9.959  10.241  0.00  0.00    +0.000 HD
ENDBRANCH  19  22
ENDBRANCH   1  18
BRANCH   1  33
ATOM     33  N   UNL     1      47.666   4.760  14.966  0.00  0.00    +0.000 NA
ATOM     34  H   UNL     1      47.063   4.745  15.783  0.00  0.00    +0.000 HD
ATOM     35  H   UNL     1      48.609   4.945  15.296  0.00  0.00    +0.000 HD
ENDBRANCH   1  33
TORSDOF 8
ENDMDL
MODEL 6
REMARK VINA RESULT:    -8.536      2.339      3.360
REMARK INTER + INTRA:         -12.790
REMARK INTER:                 -11.708
REMARK INTRA:                  -1.082
REMARK UNBOUND:                -0.761
REMARK  Name = 
REMARK  8 active torsions:
REMARK  status: ('A' for Active; 'I' for Inactive)
REMARK    1  A    between atoms: N_1  and  C_2
REMARK    2  A    between atoms: C_2  and  N_3
REMARK    3  A    between atoms: C_2  and  C_16
REMARK    4  A    between atoms: C_4  and  C_6
REMARK    5  A    between atoms: C_19  and  O_20
REMARK    6  A    between atoms: O_20  and  C_21
REMARK    7  A    between atoms: C_21  and  C_22
REMARK    8  A    between atoms: C_25  and  O_26
REMARK                            x       y       z     vdW  Elec       q    Type
REMARK                         _______ _______ _______ _____ _____    ______ ____
ROOT
ATOM      1  C   UNL     1      46.840   4.439  14.848  0.00  0.00    +0.000 C 
ENDROOT
BRANCH   1   2
ATOM      2  C   UNL     1      46.301   4.567  13.437  0.00  0.00    +0.000 A 
ATOM      3  C   UNL     1      46.585   5.743  12.720  0.00  0.00    +0.000 A 
ATOM      4  C   UNL     1      46.131   5.926  11.411  0.00  0.00    +0.000 A 
ATOM      5  C   UNL     1      45.388   4.929  10.781  0.00  0.00    +0.000 A 
ATOM      6  C   UNL     1      45.088   3.762  11.483  0.00  0.00    +0.000 A 
ATOM      7  C   UNL     1      45.546   3.576  12.794  0.00  0.00    +0.000 A 
BRANCH   5   8
ATOM      8  O   UNL     1      44.884   5.001   9.508  0.00  0.00    +0.000 OA
BRANCH   8   9
ATOM      9  C   UNL     1      44.424   3.760   8.965  0.00  0.00    +0.000 C 
BRANCH   9  10
ATOM     10  C   UNL     1      45.471   3.129   8.074  0.00  0.00    +0.000 A 
ATOM     11  C   UNL     1      45.910   1.823   8.298  0.00  0.00    +0.000 A 
ATOM     12  C   UNL     1      46.952   1.314   7.522  0.00  0.00    +0.000 A 
ATOM     13  C   UNL     1      47.516   2.121   6.546  0.00  0.00    +0.000 A 
ATOM     14  C   UNL     1      47.014   3.398   6.366  0.00  0.00    +0.000 A 
ATOM     15  N   UNL     1      46.014   3.921   7.112  0.00  0.00    +0.000 NA
BRANCH  13  16
ATOM     16  O   UNL     1      48.555   1.699   5.773  0.00  0.00    +0.000 OA
ATOM     17  H   UNL     1      49.223   1.291   6.347  0.00  0.00    +0.000 HD
ENDBRANCH  13  16
ENDBRANCH   9  10
ENDBRANCH   8   9
ENDBRANCH   5   8
ENDBRANCH   1   2
BRANCH   1  18
ATOM     18  N   UNL     1      47.822   5.404  15.213  0.00  0.00    +0.000 N 
ATOM     19  C   UNL     1      48.251   5.539  16.508  0.00  0.00    +0.000 C 
ATOM     20  O   UNL     1      47.829   4.834  17.420  0.00  0.00    +0.000 OA
ATOM     21  H   UNL     1      47.999   6.147  14.549  0.00  0.00    +0.000 HD
BRANCH  19  22
ATOM     22  C   UNL     1      49.314   6.525  16.743  0.00  0.00    +0.000 A 
ATOM     23  C   UNL     1      49.015   7.879  16.659  0.00  0.00    +0.000 A 
ATOM     24  S   UNL     1      50.334   8.897  17.012  0.00  0.00    +0.000 S 
ATOM     25  C   UNL     1      51.367   7.564  17.246  0.00  0.00    +0.000 A 
ATOM     26  N   UNL     1      52.677   7.747  17.568  0.00  0.00    +0.000 NA
ATOM     27  C   UNL     1      53.352   6.652  17.687  0.00  0.00    +0.000 A 
ATOM     28  N   UNL     1      52.833   5.394  17.524  0.00  0.00    +0.000 N 
ATOM     29  C   UNL     1      51.507   5.163  17.243  0.00  0.00    +0.000 A 
ATOM     30  O   UNL     1      51.059   4.023  17.165  0.00  0.00    +0.000 OA
ATOM     31  C   UNL     1      50.708   6.360  17.077  0.00  0.00    +0.000 A 
ATOM     32  H   UNL     1      53.418   4.578  17.644  0.00  0.00    +0.000 HD
ENDBRANCH  19  22
ENDBRANCH   1  18
BRANCH   1  33
ATOM     33  N   UNL     1      47.552   3.189  15.019  0.00  0.00    +0.000 NA
ATOM     34  H   UNL     1      47.623   2.753  14.104  0.00  0.00    +0.000 HD
ATOM     35  H   UNL     1      46.984   2.575  15.596  0.00  0.00    +0.000 HD
ENDBRANCH   1  33
TORSDOF 8
ENDMDL
MODEL 7
REMARK VINA RESULT:    -8.448      1.743      2.391
REMARK INTER + INTRA:         -12.667
REMARK INTER:                 -11.869
REMARK INTRA:                  -0.798
REMARK UNBOUND:                -0.761
REMARK  Name = 
REMARK  8 active torsions:
REMARK  status: ('A' for Active; 'I' for Inactive)
REMARK    1  A    between atoms: N_1  and  C_2
REMARK    2  A    between atoms: C_2  and  N_3
REMARK    3  A    between atoms: C_2  and  C_16
REMARK    4  A    between atoms: C_4  and  C_6
REMARK    5  A    between atoms: C_19  and  O_20
REMARK    6  A    between atoms: O_20  and  C_21
REMARK    7  A    between atoms: C_21  and  C_22
REMARK    8  A    between atoms: C_25  and  O_26
REMARK                            x       y       z     vdW  Elec       q    Type
REMARK                         _______ _______ _______ _____ _____    ______ ____
ROOT
ATOM      1  C   UNL     1      47.493   6.843  13.386  0.00  0.00    +0.000 C 
ENDROOT
BRANCH   1   2
ATOM      2  C   UNL     1      46.625   6.076  12.409  0.00  0.00    +0.000 A 
ATOM      3  C   UNL     1      46.094   4.839  12.819  0.00  0.00    +0.000 A 
ATOM      4  C   UNL     1      45.276   4.082  11.977  0.00  0.00    +0.000 A 
ATOM      5  C   UNL     1      44.957   4.550  10.703  0.00  0.00    +0.000 A 
ATOM      6  C   UNL     1      45.485   5.768  10.278  0.00  0.00    +0.000 A 
ATOM      7  C   UNL     1      46.303   6.530  11.122  0.00  0.00    +0.000 A 
BRANCH   5   8
ATOM      8  O   UNL     1      44.175   3.892   9.790  0.00  0.00    +0.000 OA
BRANCH   8   9
ATOM      9  C   UNL     1      44.518   2.520   9.571  0.00  0.00    +0.000 C 
BRANCH   9  10
ATOM     10  C   UNL     1      45.609   2.387   8.532  0.00  0.00    +0.000 A 
ATOM     11  C   UNL     1      45.930   3.450   7.687  0.00  0.00    +0.000 A 
ATOM     12  C   UNL     1      46.867   3.254   6.673  0.00  0.00    +0.000 A 
ATOM     13  C   UNL     1      47.458   2.007   6.539  0.00  0.00    +0.000 A 
ATOM     14  C   UNL     1      47.108   1.006   7.428  0.00  0.00    +0.000 A 
ATOM     15  N   UNL     1      46.193   1.165   8.412  0.00  0.00    +0.000 NA
BRANCH  13  16
ATOM     16  O   UNL     1      48.358   1.737   5.553  0.00  0.00    +0.000 OA
ATOM     17  H   UNL     1      47.876   1.602   4.721  0.00  0.00    +0.000 HD
ENDBRANCH  13  16
ENDBRANCH   9  10
ENDBRANCH   8   9
ENDBRANCH   5   8
ENDBRANCH   1   2
BRANCH   1  18
ATOM     18  N   UNL     1      47.910   6.111  14.534  0.00  0.00    +0.000 N 
ATOM     19  C   UNL     1      48.752   6.656  15.469  0.00  0.00    +0.000 C 
ATOM     20  O   UNL     1      49.182   7.802  15.380  0.00  0.00    +0.000 OA
ATOM     21  H   UNL     1      47.778   5.108  14.507  0.00  0.00    +0.000 HD
BRANCH  19  22
ATOM     22  C   UNL     1      49.053   5.822  16.640  0.00  0.00    +0.000 A 
ATOM     23  C   UNL     1      48.011   5.210  17.324  0.00  0.00    +0.000 A 
ATOM     24  S   UNL     1      48.522   4.232  18.622  0.00  0.00    +0.000 S 
ATOM     25  C   UNL     1      50.155   4.627  18.345  0.00  0.00    +0.000 A 
ATOM     26  N   UNL     1      51.138   4.118  19.136  0.00  0.00    +0.000 NA
ATOM     27  C   UNL     1      52.327   4.523  18.833  0.00  0.00    +0.000 A 
ATOM     28  N   UNL     1      52.620   5.381  17.805  0.00  0.00    +0.000 N 
ATOM     29  C   UNL     1      51.663   5.883  16.955  0.00  0.00    +0.000 A 
ATOM     30  O   UNL     1      51.965   6.600  16.005  0.00  0.00    +0.000 OA
ATOM     31  C   UNL     1      50.307   5.477  17.264  0.00  0.00    +0.000 A 
ATOM     32  H   UNL     1      53.577   5.648  17.616  0.00  0.00    +0.000 HD
ENDBRANCH  19  22
ENDBRANCH   1  18
BRANCH   1  33
ATOM     33  N   UNL     1      46.763   7.951  13.969  0.00  0.00    +0.000 NA
ATOM     34  H   UNL     1      45.952   8.121  13.382  0.00  0.00    +0.000 HD
ATOM     35  H   UNL     1      47.347   8.780  13.916  0.00  0.00    +0.000 HD
ENDBRANCH   1  33
TORSDOF 8
ENDMDL
MODEL 8
REMARK VINA RESULT:    -7.765      2.530      3.286
REMARK INTER + INTRA:         -11.704
REMARK INTER:                 -10.546
REMARK INTRA:                  -1.157
REMARK UNBOUND:                -0.761
REMARK  Name = 
REMARK  8 active torsions:
REMARK  status: ('A' for Active; 'I' for Inactive)
REMARK    1  A    between atoms: N_1  and  C_2
REMARK    2  A    between atoms: C_2  and  N_3
REMARK    3  A    between atoms: C_2  and  C_16
REMARK    4  A    between atoms: C_4  and  C_6
REMARK    5  A    between atoms: C_19  and  O_20
REMARK    6  A    between atoms: O_20  and  C_21
REMARK    7  A    between atoms: C_21  and  C_22
REMARK    8  A    between atoms: C_25  and  O_26
REMARK                            x       y       z     vdW  Elec       q    Type
REMARK                         _______ _______ _______ _____ _____    ______ ____
ROOT
ATOM      1  C   UNL     1      47.175   4.889  15.548  0.00  0.00    +0.000 C 
ENDROOT
BRANCH   1   2
ATOM      2  C   UNL     1      46.769   5.083  14.101  0.00  0.00    +0.000 A 
ATOM      3  C   UNL     1      45.847   4.179  13.542  0.00  0.00    +0.000 A 
ATOM      4  C   UNL     1      45.418   4.303  12.218  0.00  0.00    +0.000 A 
ATOM      5  C   UNL     1      45.892   5.344  11.421  0.00  0.00    +0.000 A 
ATOM      6  C   UNL     1      46.815   6.241  11.958  0.00  0.00    +0.000 A 
ATOM      7  C   UNL     1      47.244   6.120  13.286  0.00  0.00    +0.000 A 
BRANCH   5   8
ATOM      8  O   UNL     1      45.550   5.558  10.111  0.00  0.00    +0.000 OA
BRANCH   8   9
ATOM      9  C   UNL     1      44.715   4.553   9.528  0.00  0.00    +0.000 C 
BRANCH   9  10
ATOM     10  C   UNL     1      45.511   3.631   8.630  0.00  0.00    +0.000 A 
ATOM     11  C   UNL     1      45.517   2.252   8.844  0.00  0.00    +0.000 A 
ATOM     12  C   UNL     1      46.345   1.448   8.062  0.00  0.00    +0.000 A 
ATOM     13  C   UNL     1      47.134   2.043   7.090  0.00  0.00    +0.000 A 
ATOM     14  C   UNL     1      47.059   3.414   6.920  0.00  0.00    +0.000 A 
ATOM     15  N   UNL     1      46.275   4.220   7.672  0.00  0.00    +0.000 NA
BRANCH  13  16
ATOM     16  O   UNL     1      47.988   1.322   6.311  0.00  0.00    +0.000 OA
ATOM     17  H   UNL     1      47.500   0.576   5.925  0.00  0.00    +0.000 HD
ENDBRANCH  13  16
ENDBRANCH   9  10
ENDBRANCH   8   9
ENDBRANCH   5   8
ENDBRANCH   1   2
BRANCH   1  18
ATOM     18  N   UNL     1      48.574   4.964  15.803  0.00  0.00    +0.000 N 
ATOM     19  C   UNL     1      49.091   5.823  16.737  0.00  0.00    +0.000 C 
ATOM     20  O   UNL     1      48.384   6.564  17.414  0.00  0.00    +0.000 OA
ATOM     21  H   UNL     1      49.186   4.560  15.105  0.00  0.00    +0.000 HD
BRANCH  19  22
ATOM     22  C   UNL     1      50.543   5.758  16.951  0.00  0.00    +0.000 A 
ATOM     23  C   UNL     1      51.318   6.881  16.693  0.00  0.00    +0.000 A 
ATOM     24  S   UNL     1      52.972   6.668  17.042  0.00  0.00    +0.000 S 
ATOM     25  C   UNL     1      52.719   5.050  17.508  0.00  0.00    +0.000 A 
ATOM     26  N   UNL     1      53.759   4.273  17.918  0.00  0.00    +0.000 NA
ATOM     27  C   UNL     1      53.430   3.059  18.213  0.00  0.00    +0.000 A 
ATOM     28  N   UNL     1      52.157   2.557  18.146  0.00  0.00    +0.000 N 
ATOM     29  C   UNL     1      51.072   3.320  17.782  0.00  0.00    +0.000 A 
ATOM     30  O   UNL     1      49.934   2.858  17.792  0.00  0.00    +0.000 OA
ATOM     31  C   UNL     1      51.388   4.686  17.418  0.00  0.00    +0.000 A 
ATOM     32  H   UNL     1      51.969   1.598  18.405  0.00  0.00    +0.000 HD
ENDBRANCH  19  22
ENDBRANCH   1  18
BRANCH   1  33
ATOM     33  N   UNL     1      46.846   3.553  16.004  0.00  0.00    +0.000 NA
ATOM     34  H   UNL     1      47.717   3.092  16.247  0.00  0.00    +0.000 HD
ATOM     35  H   UNL     1      46.445   3.040  15.224  0.00  0.00    +0.000 HD
ENDBRANCH   1  33
TORSDOF 8
ENDMDL
MODEL 9
REMARK VINA RESULT:    -7.449      2.531      3.515
REMARK INTER + INTRA:         -11.259
REMARK INTER:                 -10.272
REMARK INTRA:                  -0.987
REMARK UNBOUND:                -0.761
REMARK  Name = 
REMARK  8 active torsions:
REMARK  status: ('A' for Active; 'I' for Inactive)
REMARK    1  A    between atoms: N_1  and  C_2
REMARK    2  A    between atoms: C_2  and  N_3
REMARK    3  A    between atoms: C_2  and  C_16
REMARK    4  A    between atoms: C_4  and  C_6
REMARK    5  A    between atoms: C_19  and  O_20
REMARK    6  A    between atoms: O_20  and  C_21
REMARK    7  A    between atoms: C_21  and  C_22
REMARK    8  A    between atoms: C_25  and  O_26
REMARK                            x       y       z     vdW  Elec       q    Type
REMARK                         _______ _______ _______ _____ _____    ______ ____
ROOT
ATOM      1  C   UNL     1      47.936   7.546  13.713  0.00  0.00    +0.000 C 
ENDROOT
BRANCH   1   2
ATOM      2  C   UNL     1      46.965   6.655  12.963  0.00  0.00    +0.000 A 
ATOM      3  C   UNL     1      46.164   7.237  11.964  0.00  0.00    +0.000 A 
ATOM      4  C   UNL     1      45.255   6.476  11.225  0.00  0.00    +0.000 A 
ATOM      5  C   UNL     1      45.132   5.108  11.458  0.00  0.00    +0.000 A 
ATOM      6  C   UNL     1      45.912   4.519  12.454  0.00  0.00    +0.000 A 
ATOM      7  C   UNL     1      46.826   5.280  13.194  0.00  0.00    +0.000 A 
BRANCH   5   8
ATOM      8  O   UNL     1      44.271   4.266  10.804  0.00  0.00    +0.000 OA
BRANCH   8   9
ATOM      9  C   UNL     1      44.163   4.482   9.394  0.00  0.00    +0.000 C 
BRANCH   9  10
ATOM     10  C   UNL     1      45.127   3.602   8.628  0.00  0.00    +0.000 A 
ATOM     11  C   UNL     1      45.206   2.233   8.883  0.00  0.00    +0.000 A 
ATOM     12  C   UNL     1      46.179   1.476   8.232  0.00  0.00    +0.000 A 
ATOM     13  C   UNL     1      47.037   2.108   7.344  0.00  0.00    +0.000 A 
ATOM     14  C   UNL     1      46.885   3.465   7.124  0.00  0.00    +0.000 A 
ATOM     15  N   UNL     1      45.958   4.225   7.751  0.00  0.00    +0.000 NA
BRANCH  13  16
ATOM     16  O   UNL     1      48.029   1.435   6.697  0.00  0.00    +0.000 OA
ATOM     17  H   UNL     1      47.673   1.081   5.866  0.00  0.00    +0.000 HD
ENDBRANCH  13  16
ENDBRANCH   9  10
ENDBRANCH   8   9
ENDBRANCH   5   8
ENDBRANCH   1   2
BRANCH   1  18
ATOM     18  N   UNL     1      48.765   6.880  14.661  0.00  0.00    +0.000 N 
ATOM     19  C   UNL     1      49.846   7.499  15.232  0.00  0.00    +0.000 C 
ATOM     20  O   UNL     1      50.155   8.659  14.973  0.00  0.00    +0.000 OA
ATOM     21  H   UNL     1      48.687   5.872  14.704  0.00  0.00    +0.000 HD
BRANCH  19  22
ATOM     22  C   UNL     1      50.580   6.728  16.244  0.00  0.00    +0.000 A 
ATOM     23  C   UNL     1      49.872   6.054  17.229  0.00  0.00    +0.000 A 
ATOM     24  S   UNL     1      50.857   5.159  18.293  0.00  0.00    +0.000 S 
ATOM     25  C   UNL     1      52.272   5.677  17.502  0.00  0.00    +0.000 A 
ATOM     26  N   UNL     1      53.498   5.273  17.932  0.00  0.00    +0.000 NA
ATOM     27  C   UNL     1      54.486   5.765  17.260  0.00  0.00    +0.000 A 
ATOM     28  N   UNL     1      54.357   6.614  16.192  0.00  0.00    +0.000 N 
ATOM     29  C   UNL     1      53.136   7.010  15.696  0.00  0.00    +0.000 A 
ATOM     30  O   UNL     1      53.053   7.721  14.699  0.00  0.00    +0.000 OA
ATOM     31  C   UNL     1      51.994   6.505  16.429  0.00  0.00    +0.000 A 
ATOM     32  H   UNL     1      55.174   6.951  15.703  0.00  0.00    +0.000 HD
ENDBRANCH  19  22
ENDBRANCH   1  18
BRANCH   1  33
ATOM     33  N   UNL     1      47.229   8.507  14.535  0.00  0.00    +0.000 NA
ATOM     34  H   UNL     1      47.727   9.389  14.466  0.00  0.00    +0.000 HD
ATOM     35  H   UNL     1      47.292   8.205  15.503  0.00  0.00    +0.000 HD
ENDBRANCH   1  33
TORSDOF 8
ENDMDL
