MODEL 1
REMARK VINA RESULT:    -7.530      0.000      0.000
REMARK INTER + INTRA:         -12.013
REMARK INTER:                 -10.391
REMARK INTRA:                  -1.622
REMARK UNBOUND:                -1.622
REMARK  Name = 
REMARK  8 active torsions:
REMARK  status: ('A' for Active; 'I' for Inactive)
REMARK    1  A    between atoms: C_1  and  C_2
REMARK    2  A    between atoms: C_2  and  N_3
REMARK    3  A    between atoms: C_2  and  C_16
REMARK    4  A    between atoms: C_4  and  C_6
REMARK    5  A    between atoms: C_19  and  O_20
REMARK    6  A    between atoms: O_20  and  C_21
REMARK    7  A    between atoms: C_26  and  C_27
REMARK    8  A    between atoms: C_27  and  O_28
REMARK                            x       y       z     vdW  Elec       q    Type
REMARK                         _______ _______ _______ _____ _____    ______ ____
ROOT
ATOM      1  C   UNL     1      48.630   9.351  13.208  0.00  0.00    +0.000 C 
ATOM      2  C   UNL     1      47.795   8.369  14.036  0.00  0.00    +0.000 C 
ENDROOT
BRANCH   2   3
ATOM      3  C   UNL     1      46.828   7.562  13.184  0.00  0.00    +0.000 A 
ATOM      4  C   UNL     1      47.009   6.176  13.067  0.00  0.00    +0.000 A 
ATOM      5  C   UNL     1      46.167   5.414  12.255  0.00  0.00    +0.000 A 
ATOM      6  C   UNL     1      45.096   6.018  11.594  0.00  0.00    +0.000 A 
ATOM      7  C   UNL     1      44.933   7.400  11.663  0.00  0.00    +0.000 A 
ATOM      8  C   UNL     1      45.801   8.168  12.441  0.00  0.00    +0.000 A 
BRANCH   6   9
ATOM      9  O   UNL     1      44.188   5.346  10.806  0.00  0.00    +0.000 OA
BRANCH   9  10
ATOM     10  C   UNL     1      44.618   4.371   9.932  0.00  0.00    +0.000 A 
ATOM     11  C   UNL     1      45.451   4.644   8.836  0.00  0.00    +0.000 A 
ATOM     12  C   UNL     1      45.813   3.633   7.947  0.00  0.00    +0.000 A 
ATOM     13  C   UNL     1      45.410   2.327   8.187  0.00  0.00    +0.000 A 
ATOM     14  C   UNL     1      44.650   2.030   9.320  0.00  0.00    +0.000 A 
ATOM     15  C   UNL     1      44.242   3.044  10.202  0.00  0.00    +0.000 A 
BRANCH  15  16
ATOM     16  C   UNL     1      43.446   2.658  11.426  0.00  0.00    +0.000 C 
BRANCH  16  17
ATOM     17  O   UNL     1      44.263   2.680  12.593  0.00  0.00    +0.000 OA
ATOM     18  H   UNL     1      44.085   3.520  13.051  0.00  0.00    +0.000 HD
ENDBRANCH  16  17
ENDBRANCH  15  16
ENDBRANCH   9  10
ENDBRANCH   6   9
ENDBRANCH   2   3
BRANCH   2  19
ATOM     19  N   UNL     1      48.634   7.446  14.776  0.00  0.00    +0.000 N 
ATOM     20  C   UNL     1      48.914   7.571  16.110  0.00  0.00    +0.000 C 
ATOM     21  O   UNL     1      48.473   8.507  16.774  0.00  0.00    +0.000 OA
ATOM     22  H   UNL     1      48.981   6.644  14.256  0.00  0.00    +0.000 HD
BRANCH  20  23
ATOM     23  C   UNL     1      49.768   6.534  16.719  0.00  0.00    +0.000 A 
ATOM     24  C   UNL     1      51.039   6.874  17.163  0.00  0.00    +0.000 A 
ATOM     25  S   UNL     1      51.932   5.562  17.784  0.00  0.00    +0.000 S 
ATOM     26  C   UNL     1      50.654   4.481  17.483  0.00  0.00    +0.000 A 
ATOM     27  N   UNL     1      50.789   3.155  17.752  0.00  0.00    +0.000 NA
ATOM     28  C   UNL     1      49.747   2.443  17.473  0.00  0.00    +0.000 A 
ATOM     29  N   UNL     1      48.577   2.944  16.969  0.00  0.00    +0.000 N 
ATOM     30  C   UNL     1      48.386   4.277  16.712  0.00  0.00    +0.000 A 
ATOM     31  O   UNL     1      47.304   4.693  16.312  0.00  0.00    +0.000 OA
ATOM     32  C   UNL     1      49.544   5.121  16.957  0.00  0.00    +0.000 A 
ATOM     33  H   UNL     1      47.785   2.339  16.801  0.00  0.00    +0.000 HD
ENDBRANCH  20  23
ENDBRANCH   2  19
TORSDOF 7
ENDMDL
MODEL 2
REMARK VINA RESULT:    -7.262      1.791      2.170
REMARK INTER + INTRA:         -11.643
REMARK INTER:                 -10.160
REMARK INTRA:                  -1.484
REMARK UNBOUND:                -1.622
REMARK  Name = 
REMARK  8 active torsions:
REMARK  status: ('A' for Active; 'I' for Inactive)
REMARK    1  A    between atoms: C_1  and  C_2
REMARK    2  A    between atoms: C_2  and  N_3
REMARK    3  A    between atoms: C_2  and  C_16
REMARK    4  A    between atoms: C_4  and  C_6
REMARK    5  A    between atoms: C_19  and  O_20
REMARK    6  A    between atoms: O_20  and  C_21
REMARK    7  A    between atoms: C_26  and  C_27
REMARK    8  A    between atoms: C_27  and  O_28
REMARK                            x       y       z     vdW  Elec       q    Type
REMARK                         _______ _______ _______ _____ _____    ______ ____
ROOT
ATOM      1  C   UNL     1      49.496   8.316  13.196  0.00  0.00    +0.000 C 
ATOM      2  C   UNL     1      48.086   8.419  13.787  0.00  0.00    +0.000 C 
ENDROOT
BRANCH   2   3
ATOM      3  C   UNL     1      47.067   7.596  13.014  0.00  0.00    +0.000 A 
ATOM      4  C   UNL     1      46.116   8.254  12.220  0.00  0.00    +0.000 A 
ATOM      5  C   UNL     1      45.138   7.530  11.536  0.00  0.00    +0.000 A 
ATOM      6  C   UNL     1      45.133   6.135  11.587  0.00  0.00    +0.000 A 
ATOM      7  C   UNL     1      46.042   5.472  12.410  0.00  0.00    +0.000 A 
ATOM      8  C   UNL     1      46.993   6.198  13.129  0.00  0.00    +0.000 A 
BRANCH   6   9
ATOM      9  O   UNL     1      44.237   5.333  10.915  0.00  0.00    +0.000 OA
BRANCH   9  10
ATOM     10  C   UNL     1      44.688   4.422   9.984  0.00  0.00    +0.000 A 
ATOM     11  C   UNL     1      45.550   4.770   8.933  0.00  0.00    +0.000 A 
ATOM     12  C   UNL     1      45.932   3.825   7.982  0.00  0.00    +0.000 A 
ATOM     13  C   UNL     1      45.519   2.507   8.116  0.00  0.00    +0.000 A 
ATOM     14  C   UNL     1      44.728   2.132   9.203  0.00  0.00    +0.000 A 
ATOM     15  C   UNL     1      44.300   3.080  10.147  0.00  0.00    +0.000 A 
BRANCH  15  16
ATOM     16  C   UNL     1      43.472   2.610  11.318  0.00  0.00    +0.000 C 
BRANCH  16  17
ATOM     17  O   UNL     1      44.243   2.596  12.516  0.00  0.00    +0.000 OA
ATOM     18  H   UNL     1      43.947   3.349  13.055  0.00  0.00    +0.000 HD
ENDBRANCH  16  17
ENDBRANCH  15  16
ENDBRANCH   9  10
ENDBRANCH   6   9
ENDBRANCH   2   3
BRANCH   2  19
ATOM     19  N   UNL     1      48.056   7.999  15.175  0.00  0.00    +0.000 N 
ATOM     20  C   UNL     1      48.418   8.803  16.222  0.00  0.00    +0.000 C 
ATOM     21  O   UNL     1      48.817   9.951  16.043  0.00  0.00    +0.000 OA
ATOM     22  H   UNL     1      47.697   7.065  15.351  0.00  0.00    +0.000 HD
BRANCH  20  23
ATOM     23  C   UNL     1      48.310   8.231  17.578  0.00  0.00    +0.000 A 
ATOM     24  C   UNL     1      47.893   9.040  18.627  0.00  0.00    +0.000 A 
ATOM     25  S   UNL     1      47.876   8.260  20.142  0.00  0.00    +0.000 S 
ATOM     26  C   UNL     1      48.431   6.804  19.458  0.00  0.00    +0.000 A 
ATOM     27  N   UNL     1      48.676   5.719  20.240  0.00  0.00    +0.000 NA
ATOM     28  C   UNL     1      49.097   4.680  19.598  0.00  0.00    +0.000 A 
ATOM     29  N   UNL     1      49.273   4.626  18.242  0.00  0.00    +0.000 N 
ATOM     30  C   UNL     1      49.010   5.683  17.411  0.00  0.00    +0.000 A 
ATOM     31  O   UNL     1      49.129   5.576  16.196  0.00  0.00    +0.000 OA
ATOM     32  C   UNL     1      48.582   6.899  18.085  0.00  0.00    +0.000 A 
ATOM     33  H   UNL     1      49.576   3.771  17.794  0.00  0.00    +0.000 HD
ENDBRANCH  20  23
ENDBRANCH   2  19
TORSDOF 7
ENDMDL
MODEL 3
REMARK VINA RESULT:    -6.802      1.963      2.328
REMARK INTER + INTRA:         -11.009
REMARK INTER:                  -9.839
REMARK INTRA:                  -1.170
REMARK UNBOUND:                -1.622
REMARK  Name = 
REMARK  8 active torsions:
REMARK  status: ('A' for Active; 'I' for Inactive)
REMARK    1  A    between atoms: C_1  and  C_2
REMARK    2  A    between atoms: C_2  and  N_3
REMARK    3  A    between atoms: C_2  and  C_16
REMARK    4  A    between atoms: C_4  and  C_6
REMARK    5  A    between atoms: C_19  and  O_20
REMARK    6  A    between atoms: O_20  and  C_21
REMARK    7  A    between atoms: C_26  and  C_27
REMARK    8  A    between atoms: C_27  and  O_28
REMARK                            x       y       z     vdW  Elec       q    Type
REMARK                         _______ _______ _______ _____ _____    ______ ____
ROOT
ATOM      1  C   UNL     1      49.814   8.129  13.299  0.00  0.00    +0.000 C 
ATOM      2  C   UNL     1      48.572   7.837  14.148  0.00  0.00    +0.000 C 
ENDROOT
BRANCH   2   3
ATOM      3  C   UNL     1      47.460   7.177  13.348  0.00  0.00    +0.000 A 
ATOM      4  C   UNL     1      46.615   7.975  12.563  0.00  0.00    +0.000 A 
ATOM      5  C   UNL     1      45.555   7.406  11.854  0.00  0.00    +0.000 A 
ATOM      6  C   UNL     1      45.361   6.024  11.873  0.00  0.00    +0.000 A 
ATOM      7  C   UNL     1      46.162   5.226  12.688  0.00  0.00    +0.000 A 
ATOM      8  C   UNL     1      47.195   5.800  13.430  0.00  0.00    +0.000 A 
BRANCH   6   9
ATOM      9  O   UNL     1      44.372   5.366  11.176  0.00  0.00    +0.000 OA
BRANCH   9  10
ATOM     10  C   UNL     1      44.702   4.524  10.135  0.00  0.00    +0.000 A 
ATOM     11  C   UNL     1      45.497   4.927   9.052  0.00  0.00    +0.000 A 
ATOM     12  C   UNL     1      45.756   4.056   7.994  0.00  0.00    +0.000 A 
ATOM     13  C   UNL     1      45.288   2.751   8.047  0.00  0.00    +0.000 A 
ATOM     14  C   UNL     1      44.565   2.314   9.159  0.00  0.00    +0.000 A 
ATOM     15  C   UNL     1      44.260   3.191  10.213  0.00  0.00    +0.000 A 
BRANCH  15  16
ATOM     16  C   UNL     1      43.502   2.654  11.402  0.00  0.00    +0.000 C 
BRANCH  16  17
ATOM     17  O   UNL     1      44.368   2.466  12.517  0.00  0.00    +0.000 OA
ATOM     18  H   UNL     1      45.259   2.303  12.163  0.00  0.00    +0.000 HD
ENDBRANCH  16  17
ENDBRANCH  15  16
ENDBRANCH   9  10
ENDBRANCH   6   9
ENDBRANCH   2   3
BRANCH   2  19
ATOM     19  N   UNL     1      48.887   6.989  15.281  0.00  0.00    +0.000 N 
ATOM     20  C   UNL     1      48.993   7.443  16.568  0.00  0.00    +0.000 C 
ATOM     21  O   UNL     1      48.841   8.631  16.845  0.00  0.00    +0.000 OA
ATOM     22  H   UNL     1      48.982   5.996  15.083  0.00  0.00    +0.000 HD
BRANCH  20  23
ATOM     23  C   UNL     1      49.299   6.446  17.611  0.00  0.00    +0.000 A 
ATOM     24  C   UNL     1      50.207   5.431  17.338  0.00  0.00    +0.000 A 
ATOM     25  S   UNL     1      50.412   4.319  18.612  0.00  0.00    +0.000 S 
ATOM     26  C   UNL     1      49.290   5.148  19.586  0.00  0.00    +0.000 A 
ATOM     27  N   UNL     1      48.964   4.681  20.821  0.00  0.00    +0.000 NA
ATOM     28  C   UNL     1      48.096   5.399  21.454  0.00  0.00    +0.000 A 
ATOM     29  N   UNL     1      47.545   6.555  20.970  0.00  0.00    +0.000 N 
ATOM     30  C   UNL     1      47.867   7.080  19.745  0.00  0.00    +0.000 A 
ATOM     31  O   UNL     1      47.391   8.146  19.372  0.00  0.00    +0.000 OA
ATOM     32  C   UNL     1      48.800   6.284  18.964  0.00  0.00    +0.000 A 
ATOM     33  H   UNL     1      46.895   7.091  21.528  0.00  0.00    +0.000 HD
ENDBRANCH  20  23
ENDBRANCH   2  19
TORSDOF 7
ENDMDL
MODEL 4
REMARK VINA RESULT:    -6.478      3.335      7.848
REMARK INTER + INTRA:         -10.562
REMARK INTER:                  -9.220
REMARK INTRA:                  -1.341
REMARK UNBOUND:                -1.622
REMARK  Name = 
REMARK  8 active torsions:
REMARK  status: ('A' for Active; 'I' for Inactive)
REMARK    1  A    between atoms: C_1  and  C_2
REMARK    2  A    between atoms: C_2  and  N_3
REMARK    3  A    between atoms: C_2  and  C_16
REMARK    4  A    between atoms: C_4  and  C_6
REMARK    5  A    between atoms: C_19  and  O_20
REMARK    6  A    between atoms: O_20  and  C_21
REMARK    7  A    between atoms: C_26  and  C_27
REMARK    8  A    between atoms: C_27  and  O_28
REMARK                            x       y       z     vdW  Elec       q    Type
REMARK                         _______ _______ _______ _____ _____    ______ ____
ROOT
ATOM      1  C   UNL     1      48.409   9.391  15.341  0.00  0.00    +0.000 C 
ATOM      2  C   UNL     1      48.669   8.021  14.707  0.00  0.00    +0.000 C 
ENDROOT
BRANCH   2   3
ATOM      3  C   UNL     1      49.183   7.002  15.712  0.00  0.00    +0.000 A 
ATOM      4  C   UNL     1      50.560   6.930  15.972  0.00  0.00    +0.000 A 
ATOM      5  C   UNL     1      51.069   5.974  16.853  0.00  0.00    +0.000 A 
ATOM      6  C   UNL     1      50.203   5.114  17.531  0.00  0.00    +0.000 A 
ATOM      7  C   UNL     1      48.839   5.142  17.245  0.00  0.00    +0.000 A 
ATOM      8  C   UNL     1      48.335   6.069  16.332  0.00  0.00    +0.000 A 
BRANCH   6   9
ATOM      9  O   UNL     1      50.604   4.168  18.448  0.00  0.00    +0.000 OA
BRANCH   9  10
ATOM     10  C   UNL     1      51.697   3.370  18.186  0.00  0.00    +0.000 A 
ATOM     11  C   UNL     1      53.005   3.727  18.548  0.00  0.00    +0.000 A 
ATOM     12  C   UNL     1      54.086   2.913  18.210  0.00  0.00    +0.000 A 
ATOM     13  C   UNL     1      53.861   1.699  17.577  0.00  0.00    +0.000 A 
ATOM     14  C   UNL     1      52.557   1.295  17.285  0.00  0.00    +0.000 A 
ATOM     15  C   UNL     1      51.461   2.123  17.581  0.00  0.00    +0.000 A 
BRANCH  15  16
ATOM     16  C   UNL     1      50.072   1.620  17.270  0.00  0.00    +0.000 C 
BRANCH  16  17
ATOM     17  O   UNL     1      49.769   1.782  15.887  0.00  0.00    +0.000 OA
ATOM     18  H   UNL     1      50.236   2.579  15.584  0.00  0.00    +0.000 HD
ENDBRANCH  16  17
ENDBRANCH  15  16
ENDBRANCH   9  10
ENDBRANCH   6   9
ENDBRANCH   2   3
BRANCH   2  19
ATOM     19  N   UNL     1      47.475   7.486  14.082  0.00  0.00    +0.000 N 
ATOM     20  C   UNL     1      47.451   6.940  12.827  0.00  0.00    +0.000 C 
ATOM     21  O   UNL     1      48.462   6.884  12.131  0.00  0.00    +0.000 OA
ATOM     22  H   UNL     1      46.634   7.489  14.652  0.00  0.00    +0.000 HD
BRANCH  20  23
ATOM     23  C   UNL     1      46.158   6.420  12.344  0.00  0.00    +0.000 A 
ATOM     24  C   UNL     1      45.254   7.290  11.748  0.00  0.00    +0.000 A 
ATOM     25  S   UNL     1      43.781   6.562  11.298  0.00  0.00    +0.000 S 
ATOM     26  C   UNL     1      44.289   5.048  11.885  0.00  0.00    +0.000 A 
ATOM     27  N   UNL     1      43.457   3.973  11.844  0.00  0.00    +0.000 NA
ATOM     28  C   UNL     1      43.963   2.886  12.326  0.00  0.00    +0.000 A 
ATOM     29  N   UNL     1      45.233   2.776  12.824  0.00  0.00    +0.000 N 
ATOM     30  C   UNL     1      46.115   3.824  12.858  0.00  0.00    +0.000 A 
ATOM     31  O   UNL     1      47.262   3.669  13.263  0.00  0.00    +0.000 OA
ATOM     32  C   UNL     1      45.583   5.088  12.376  0.00  0.00    +0.000 A 
ATOM     33  H   UNL     1      45.582   1.888  13.158  0.00  0.00    +0.000 HD
ENDBRANCH  20  23
ENDBRANCH   2  19
TORSDOF 7
ENDMDL
MODEL 5
REMARK VINA RESULT:    -6.435      4.359      5.196
REMARK INTER + INTRA:         -10.501
REMARK INTER:                  -9.062
REMARK INTRA:                  -1.439
REMARK UNBOUND:                -1.622
REMARK  Name = 
REMARK  8 active torsions:
REMARK  status: ('A' for Active; 'I' for Inactive)
REMARK    1  A    between atoms: C_1  and  C_2
REMARK    2  A    between atoms: C_2  and  N_3
REMARK    3  A    between atoms: C_2  and  C_16
REMARK    4  A    between atoms: C_4  and  C_6
REMARK    5  A    between atoms: C_19  and  O_20
REMARK    6  A    between atoms: O_20  and  C_21
REMARK    7  A    between atoms: C_26  and  C_27
REMARK    8  A    between atoms: C_27  and  O_28
REMARK                            x       y       z     vdW  Elec       q    Type
REMARK                         _______ _______ _______ _____ _____    ______ ____
ROOT
ATOM      1  C   UNL     1      46.398  11.404  11.775  0.00  0.00    +0.000 C 
ATOM      2  C   UNL     1      47.172  10.172  12.257  0.00  0.00    +0.000 C 
ENDROOT
BRANCH   2   3
ATOM      3  C   UNL     1      46.416   8.876  12.015  0.00  0.00    +0.000 A 
ATOM      4  C   UNL     1      45.087   8.930  11.569  0.00  0.00    +0.000 A 
ATOM      5  C   UNL     1      44.350   7.759  11.383  0.00  0.00    +0.000 A 
ATOM      6  C   UNL     1      44.950   6.514  11.583  0.00  0.00    +0.000 A 
ATOM      7  C   UNL     1      46.253   6.447  12.072  0.00  0.00    +0.000 A 
ATOM      8  C   UNL     1      46.976   7.619  12.299  0.00  0.00    +0.000 A 
BRANCH   6   9
ATOM      9  O   UNL     1      44.320   5.305  11.386  0.00  0.00    +0.000 OA
BRANCH   9  10
ATOM     10  C   UNL     1      44.684   4.500  10.328  0.00  0.00    +0.000 A 
ATOM     11  C   UNL     1      45.504   4.944   9.279  0.00  0.00    +0.000 A 
ATOM     12  C   UNL     1      45.798   4.109   8.202  0.00  0.00    +0.000 A 
ATOM     13  C   UNL     1      45.339   2.799   8.200  0.00  0.00    +0.000 A 
ATOM     14  C   UNL     1      44.591   2.322   9.277  0.00  0.00    +0.000 A 
ATOM     15  C   UNL     1      44.251   3.163  10.350  0.00  0.00    +0.000 A 
BRANCH  15  16
ATOM     16  C   UNL     1      43.465   2.582  11.502  0.00  0.00    +0.000 C 
BRANCH  16  17
ATOM     17  O   UNL     1      44.196   2.685  12.721  0.00  0.00    +0.000 OA
ATOM     18  H   UNL     1      43.653   3.208  13.336  0.00  0.00    +0.000 HD
ENDBRANCH  16  17
ENDBRANCH  15  16
ENDBRANCH   9  10
ENDBRANCH   6   9
ENDBRANCH   2   3
BRANCH   2  19
ATOM     19  N   UNL     1      48.470  10.073  11.616  0.00  0.00    +0.000 N 
ATOM     20  C   UNL     1      49.621  10.597  12.140  0.00  0.00    +0.000 C 
ATOM     21  O   UNL     1      49.621  11.215  13.203  0.00  0.00    +0.000 OA
ATOM     22  H   UNL     1      48.502   9.536  10.754  0.00  0.00    +0.000 HD
BRANCH  20  23
ATOM     23  C   UNL     1      50.864  10.390  11.373  0.00  0.00    +0.000 A 
ATOM     24  C   UNL     1      51.614  11.492  10.982  0.00  0.00    +0.000 A 
ATOM     25  S   UNL     1      52.987  11.103  10.052  0.00  0.00    +0.000 S 
ATOM     26  C   UNL     1      52.635   9.441  10.130  0.00  0.00    +0.000 A 
ATOM     27  N   UNL     1      53.417   8.534   9.484  0.00  0.00    +0.000 NA
ATOM     28  C   UNL     1      53.038   7.307   9.619  0.00  0.00    +0.000 A 
ATOM     29  N   UNL     1      51.959   6.906  10.361  0.00  0.00    +0.000 N 
ATOM     30  C   UNL     1      51.162   7.780  11.053  0.00  0.00    +0.000 A 
ATOM     31  O   UNL     1      50.238   7.374  11.749  0.00  0.00    +0.000 OA
ATOM     32  C   UNL     1      51.510   9.183  10.895  0.00  0.00    +0.000 A 
ATOM     33  H   UNL     1      51.732   5.925  10.455  0.00  0.00    +0.000 HD
ENDBRANCH  20  23
ENDBRANCH   2  19
TORSDOF 7
ENDMDL
MODEL 6
REMARK VINA RESULT:    -6.367      1.414      2.119
REMARK INTER + INTRA:         -10.407
REMARK INTER:                  -8.619
REMARK INTRA:                  -1.789
REMARK UNBOUND:                -1.622
REMARK  Name = 
REMARK  8 active torsions:
REMARK  status: ('A' for Active; 'I' for Inactive)
REMARK    1  A    between atoms: C_1  and  C_2
REMARK    2  A    between atoms: C_2  and  N_3
REMARK    3  A    between atoms: C_2  and  C_16
REMARK    4  A    between atoms: C_4  and  C_6
REMARK    5  A    between atoms: C_19  and  O_20
REMARK    6  A    between atoms: O_20  and  C_21
REMARK    7  A    between atoms: C_26  and  C_27
REMARK    8  A    between atoms: C_27  and  O_28
REMARK                            x       y       z     vdW  Elec       q    Type
REMARK                         _______ _______ _______ _____ _____    ______ ____
ROOT
ATOM      1  C   UNL     1      49.292   9.947  13.593  0.00  0.00    +0.000 C 
ATOM      2  C   UNL     1      48.179   9.185  14.321  0.00  0.00    +0.000 C 
ENDROOT
BRANCH   2   3
ATOM      3  C   UNL     1      47.307   8.378  13.372  0.00  0.00    +0.000 A 
ATOM      4  C   UNL     1      47.839   7.238  12.753  0.00  0.00    +0.000 A 
ATOM      5  C   UNL     1      47.080   6.503  11.841  0.00  0.00    +0.000 A 
ATOM      6  C   UNL     1      45.757   6.863  11.579  0.00  0.00    +0.000 A 
ATOM      7  C   UNL     1      45.232   8.021  12.150  0.00  0.00    +0.000 A 
ATOM      8  C   UNL     1      46.005   8.780  13.029  0.00  0.00    +0.000 A 
BRANCH   6   9
ATOM      9  O   UNL     1      44.917   6.178  10.730  0.00  0.00    +0.000 OA
BRANCH   9  10
ATOM     10  C   UNL     1      44.449   4.929  11.077  0.00  0.00    +0.000 A 
ATOM     11  C   UNL     1      43.981   4.621  12.364  0.00  0.00    +0.000 A 
ATOM     12  C   UNL     1      43.570   3.327  12.682  0.00  0.00    +0.000 A 
ATOM     13  C   UNL     1      43.552   2.349  11.699  0.00  0.00    +0.000 A 
ATOM     14  C   UNL     1      43.938   2.664  10.395  0.00  0.00    +0.000 A 
ATOM     15  C   UNL     1      44.393   3.952  10.067  0.00  0.00    +0.000 A 
BRANCH  15  16
ATOM     16  C   UNL     1      44.769   4.242   8.634  0.00  0.00    +0.000 C 
BRANCH  16  17
ATOM     17  O   UNL     1      45.995   4.964   8.564  0.00  0.00    +0.000 OA
ATOM     18  H   UNL     1      46.447   4.843   9.417  0.00  0.00    +0.000 HD
ENDBRANCH  16  17
ENDBRANCH  15  16
ENDBRANCH   9  10
ENDBRANCH   6   9
ENDBRANCH   2   3
BRANCH   2  19
ATOM     19  N   UNL     1      48.716   8.288  15.326  0.00  0.00    +0.000 N 
ATOM     20  C   UNL     1      48.491   8.425  16.669  0.00  0.00    +0.000 C 
ATOM     21  O   UNL     1      47.818   9.351  17.117  0.00  0.00    +0.000 OA
ATOM     22  H   UNL     1      49.246   7.494  14.977  0.00  0.00    +0.000 HD
BRANCH  20  23
ATOM     23  C   UNL     1      49.092   7.413  17.559  0.00  0.00    +0.000 A 
ATOM     24  C   UNL     1      49.860   7.827  18.640  0.00  0.00    +0.000 A 
ATOM     25  S   UNL     1      50.539   6.550  19.540  0.00  0.00    +0.000 S 
ATOM     26  C   UNL     1      49.836   5.386  18.518  0.00  0.00    +0.000 A 
ATOM     27  N   UNL     1      50.067   4.060  18.714  0.00  0.00    +0.000 NA
ATOM     28  C   UNL     1      49.479   3.282  17.866  0.00  0.00    +0.000 A 
ATOM     29  N   UNL     1      48.664   3.714  16.855  0.00  0.00    +0.000 N 
ATOM     30  C   UNL     1      48.378   5.037  16.638  0.00  0.00    +0.000 A 
ATOM     31  O   UNL     1      47.600   5.377  15.754  0.00  0.00    +0.000 OA
ATOM     32  C   UNL     1      49.056   5.963  17.531  0.00  0.00    +0.000 A 
ATOM     33  H   UNL     1      48.205   3.053  16.242  0.00  0.00    +0.000 HD
ENDBRANCH  20  23
ENDBRANCH   2  19
TORSDOF 7
ENDMDL
MODEL 7
REMARK VINA RESULT:    -6.353      3.224      5.630
REMARK INTER + INTRA:         -10.389
REMARK INTER:                  -9.011
REMARK INTRA:                  -1.377
REMARK UNBOUND:                -1.622
REMARK  Name = 
REMARK  8 active torsions:
REMARK  status: ('A' for Active; 'I' for Inactive)
REMARK    1  A    between atoms: C_1  and  C_2
REMARK    2  A    between atoms: C_2  and  N_3
REMARK    3  A    between atoms: C_2  and  C_16
REMARK    4  A    between atoms: C_4  and  C_6
REMARK    5  A    between atoms: C_19  and  O_20
REMARK    6  A    between atoms: O_20  and  C_21
REMARK    7  A    between atoms: C_26  and  C_27
REMARK    8  A    between atoms: C_27  and  O_28
REMARK                            x       y       z     vdW  Elec       q    Type
REMARK                         _______ _______ _______ _____ _____    ______ ____
ROOT
ATOM      1  C   UNL     1      44.559   4.574  12.935  0.00  0.00    +0.000 C 
ATOM      2  C   UNL     1      45.876   5.355  12.999  0.00  0.00    +0.000 C 
ENDROOT
BRANCH   2   3
ATOM      3  C   UNL     1      45.700   6.825  12.651  0.00  0.00    +0.000 A 
ATOM      4  C   UNL     1      46.494   7.782  13.299  0.00  0.00    +0.000 A 
ATOM      5  C   UNL     1      46.325   9.143  13.036  0.00  0.00    +0.000 A 
ATOM      6  C   UNL     1      45.400   9.562  12.079  0.00  0.00    +0.000 A 
ATOM      7  C   UNL     1      44.571   8.625  11.464  0.00  0.00    +0.000 A 
ATOM      8  C   UNL     1      44.711   7.268  11.757  0.00  0.00    +0.000 A 
BRANCH   6   9
ATOM      9  O   UNL     1      45.189  10.875  11.720  0.00  0.00    +0.000 OA
BRANCH   9  10
ATOM     10  C   UNL     1      45.886  11.425  10.665  0.00  0.00    +0.000 A 
ATOM     11  C   UNL     1      47.283  11.557  10.661  0.00  0.00    +0.000 A 
ATOM     12  C   UNL     1      47.937  12.171   9.594  0.00  0.00    +0.000 A 
ATOM     13  C   UNL     1      47.210  12.590   8.489  0.00  0.00    +0.000 A 
ATOM     14  C   UNL     1      45.829  12.390   8.447  0.00  0.00    +0.000 A 
ATOM     15  C   UNL     1      45.150  11.810   9.531  0.00  0.00    +0.000 A 
BRANCH  15  16
ATOM     16  C   UNL     1      43.660  11.592   9.416  0.00  0.00    +0.000 C 
BRANCH  16  17
ATOM     17  O   UNL     1      43.375  10.398   8.692  0.00  0.00    +0.000 OA
ATOM     18  H   UNL     1      42.937  10.663   7.865  0.00  0.00    +0.000 HD
ENDBRANCH  16  17
ENDBRANCH  15  16
ENDBRANCH   9  10
ENDBRANCH   6   9
ENDBRANCH   2   3
BRANCH   2  19
ATOM     19  N   UNL     1      46.487   5.264  14.311  0.00  0.00    +0.000 N 
ATOM     20  C   UNL     1      47.172   4.167  14.759  0.00  0.00    +0.000 C 
ATOM     21  O   UNL     1      47.298   3.160  14.065  0.00  0.00    +0.000 OA
ATOM     22  H   UNL     1      46.427   6.098  14.890  0.00  0.00    +0.000 HD
BRANCH  20  23
ATOM     23  C   UNL     1      47.754   4.243  16.113  0.00  0.00    +0.000 A 
ATOM     24  C   UNL     1      47.417   3.278  17.053  0.00  0.00    +0.000 A 
ATOM     25  S   UNL     1      48.114   3.530  18.587  0.00  0.00    +0.000 S 
ATOM     26  C   UNL     1      48.896   4.945  18.058  0.00  0.00    +0.000 A 
ATOM     27  N   UNL     1      49.641   5.690  18.919  0.00  0.00    +0.000 NA
ATOM     28  C   UNL     1      50.176   6.741  18.392  0.00  0.00    +0.000 A 
ATOM     29  N   UNL     1      50.049   7.100  17.078  0.00  0.00    +0.000 N 
ATOM     30  C   UNL     1      49.335   6.365  16.168  0.00  0.00    +0.000 A 
ATOM     31  O   UNL     1      49.290   6.693  14.987  0.00  0.00    +0.000 OA
ATOM     32  C   UNL     1      48.665   5.197  16.717  0.00  0.00    +0.000 A 
ATOM     33  H   UNL     1      50.520   7.920  16.717  0.00  0.00    +0.000 HD
ENDBRANCH  20  23
ENDBRANCH   2  19
TORSDOF 7
ENDMDL
MODEL 8
REMARK VINA RESULT:    -6.335      3.446      8.522
REMARK INTER + INTRA:         -10.364
REMARK INTER:                  -8.778
REMARK INTRA:                  -1.587
REMARK UNBOUND:                -1.622
REMARK  Name = 
REMARK  8 active torsions:
REMARK  status: ('A' for Active; 'I' for Inactive)
REMARK    1  A    between atoms: C_1  and  C_2
REMARK    2  A    between atoms: C_2  and  N_3
REMARK    3  A    between atoms: C_2  and  C_16
REMARK    4  A    between atoms: C_4  and  C_6
REMARK    5  A    between atoms: C_19  and  O_20
REMARK    6  A    between atoms: O_20  and  C_21
REMARK    7  A    between atoms: C_26  and  C_27
REMARK    8  A    between atoms: C_27  and  O_28
REMARK                            x       y       z     vdW  Elec       q    Type
REMARK                         _______ _______ _______ _____ _____    ______ ____
ROOT
ATOM      1  C   UNL     1      48.137   9.256  15.575  0.00  0.00    +0.000 C 
ATOM      2  C   UNL     1      48.658   7.955  14.955  0.00  0.00    +0.000 C 
ENDROOT
BRANCH   2   3
ATOM      3  C   UNL     1      49.437   7.106  15.947  0.00  0.00    +0.000 A 
ATOM      4  C   UNL     1      50.825   6.974  15.794  0.00  0.00    +0.000 A 
ATOM      5  C   UNL     1      51.562   6.164  16.660  0.00  0.00    +0.000 A 
ATOM      6  C   UNL     1      50.931   5.521  17.726  0.00  0.00    +0.000 A 
ATOM      7  C   UNL     1      49.546   5.604  17.859  0.00  0.00    +0.000 A 
ATOM      8  C   UNL     1      48.803   6.380  16.969  0.00  0.00    +0.000 A 
BRANCH   6   9
ATOM      9  O   UNL     1      51.577   4.736  18.655  0.00  0.00    +0.000 OA
BRANCH   9  10
ATOM     10  C   UNL     1      51.970   3.456  18.327  0.00  0.00    +0.000 A 
ATOM     11  C   UNL     1      51.151   2.566  17.616  0.00  0.00    +0.000 A 
ATOM     12  C   UNL     1      51.572   1.262  17.357  0.00  0.00    +0.000 A 
ATOM     13  C   UNL     1      52.845   0.861  17.738  0.00  0.00    +0.000 A 
ATOM     14  C   UNL     1      53.699   1.763  18.373  0.00  0.00    +0.000 A 
ATOM     15  C   UNL     1      53.275   3.068  18.678  0.00  0.00    +0.000 A 
BRANCH  15  16
ATOM     16  C   UNL     1      54.254   4.009  19.339  0.00  0.00    +0.000 C 
BRANCH  16  17
ATOM     17  O   UNL     1      54.529   5.128  18.501  0.00  0.00    +0.000 OA
ATOM     18  H   UNL     1      54.958   5.802  19.056  0.00  0.00    +0.000 HD
ENDBRANCH  16  17
ENDBRANCH  15  16
ENDBRANCH   9  10
ENDBRANCH   6   9
ENDBRANCH   2   3
BRANCH   2  19
ATOM     19  N   UNL     1      47.579   7.153  14.412  0.00  0.00    +0.000 N 
ATOM     20  C   UNL     1      47.741   6.231  13.413  0.00  0.00    +0.000 C 
ATOM     21  O   UNL     1      48.836   6.037  12.890  0.00  0.00    +0.000 OA
ATOM     22  H   UNL     1      46.670   7.271  14.852  0.00  0.00    +0.000 HD
BRANCH  20  23
ATOM     23  C   UNL     1      46.544   5.481  12.988  0.00  0.00    +0.000 A 
ATOM     24  C   UNL     1      46.519   4.100  13.136  0.00  0.00    +0.000 A 
ATOM     25  S   UNL     1      45.100   3.364  12.546  0.00  0.00    +0.000 S 
ATOM     26  C   UNL     1      44.459   4.864  12.064  0.00  0.00    +0.000 A 
ATOM     27  N   UNL     1      43.256   4.935  11.432  0.00  0.00    +0.000 NA
ATOM     28  C   UNL     1      42.887   6.132  11.115  0.00  0.00    +0.000 A 
ATOM     29  N   UNL     1      43.603   7.264  11.394  0.00  0.00    +0.000 N 
ATOM     30  C   UNL     1      44.804   7.244  12.055  0.00  0.00    +0.000 A 
ATOM     31  O   UNL     1      45.388   8.285  12.334  0.00  0.00    +0.000 OA
ATOM     32  C   UNL     1      45.296   5.917  12.391  0.00  0.00    +0.000 A 
ATOM     33  H   UNL     1      43.245   8.177  11.149  0.00  0.00    +0.000 HD
ENDBRANCH  20  23
ENDBRANCH   2  19
TORSDOF 7
ENDMDL
MODEL 9
REMARK VINA RESULT:    -6.026      3.775      8.498
REMARK INTER + INTRA:          -9.938
REMARK INTER:                  -9.485
REMARK INTRA:                  -0.453
REMARK UNBOUND:                -1.622
REMARK  Name = 
REMARK  8 active torsions:
REMARK  status: ('A' for Active; 'I' for Inactive)
REMARK    1  A    between atoms: C_1  and  C_2
REMARK    2  A    between atoms: C_2  and  N_3
REMARK    3  A    between atoms: C_2  and  C_16
REMARK    4  A    between atoms: C_4  and  C_6
REMARK    5  A    between atoms: C_19  and  O_20
REMARK    6  A    between atoms: O_20  and  C_21
REMARK    7  A    between atoms: C_26  and  C_27
REMARK    8  A    between atoms: C_27  and  O_28
REMARK                            x       y       z     vdW  Elec       q    Type
REMARK                         _______ _______ _______ _____ _____    ______ ____
ROOT
ATOM      1  C   UNL     1      47.148   8.711  12.382  0.00  0.00    +0.000 C 
ATOM      2  C   UNL     1      47.893   7.380  12.533  0.00  0.00    +0.000 C 
ENDROOT
BRANCH   2   3
ATOM      3  C   UNL     1      48.374   7.140  13.955  0.00  0.00    +0.000 A 
ATOM      4  C   UNL     1      49.270   8.047  14.539  0.00  0.00    +0.000 A 
ATOM      5  C   UNL     1      49.767   7.829  15.825  0.00  0.00    +0.000 A 
ATOM      6  C   UNL     1      49.329   6.732  16.569  0.00  0.00    +0.000 A 
ATOM      7  C   UNL     1      48.478   5.797  15.984  0.00  0.00    +0.000 A 
ATOM      8  C   UNL     1      48.014   5.992  14.682  0.00  0.00    +0.000 A 
BRANCH   6   9
ATOM      9  O   UNL     1      49.728   6.455  17.858  0.00  0.00    +0.000 OA
BRANCH   9  10
ATOM     10  C   UNL     1      48.932   6.820  18.923  0.00  0.00    +0.000 A 
ATOM     11  C   UNL     1      48.607   8.155  19.208  0.00  0.00    +0.000 A 
ATOM     12  C   UNL     1      47.845   8.479  20.330  0.00  0.00    +0.000 A 
ATOM     13  C   UNL     1      47.337   7.467  21.133  0.00  0.00    +0.000 A 
ATOM     14  C   UNL     1      47.585   6.131  20.812  0.00  0.00    +0.000 A 
ATOM     15  C   UNL     1      48.386   5.791  19.709  0.00  0.00    +0.000 A 
BRANCH  15  16
ATOM     16  C   UNL     1      48.595   4.329  19.393  0.00  0.00    +0.000 C 
BRANCH  16  17
ATOM     17  O   UNL     1      48.453   3.529  20.564  0.00  0.00    +0.000 OA
ATOM     18  H   UNL     1      49.350   3.307  20.869  0.00  0.00    +0.000 HD
ENDBRANCH  16  17
ENDBRANCH  15  16
ENDBRANCH   9  10
ENDBRANCH   6   9
ENDBRANCH   2   3
BRANCH   2  19
ATOM     19  N   UNL     1      47.068   6.258  12.131  0.00  0.00    +0.000 N 
ATOM     20  C   UNL     1      45.711   6.206  12.308  0.00  0.00    +0.000 C 
ATOM     21  O   UNL     1      45.098   7.125  12.848  0.00  0.00    +0.000 OA
ATOM     22  H   UNL     1      47.547   5.501  11.651  0.00  0.00    +0.000 HD
BRANCH  20  23
ATOM     23  C   UNL     1      45.014   5.000  11.823  0.00  0.00    +0.000 A 
ATOM     24  C   UNL     1      44.232   4.265  12.704  0.00  0.00    +0.000 A 
ATOM     25  S   UNL     1      43.541   2.866  12.020  0.00  0.00    +0.000 S 
ATOM     26  C   UNL     1      44.263   3.183  10.512  0.00  0.00    +0.000 A 
ATOM     27  N   UNL     1      44.105   2.321   9.472  0.00  0.00    +0.000 NA
ATOM     28  C   UNL     1      44.709   2.675   8.386  0.00  0.00    +0.000 A 
ATOM     29  N   UNL     1      45.438   3.825   8.244  0.00  0.00    +0.000 N 
ATOM     30  C   UNL     1      45.599   4.737   9.255  0.00  0.00    +0.000 A 
ATOM     31  O   UNL     1      46.215   5.781   9.070  0.00  0.00    +0.000 OA
ATOM     32  C   UNL     1      44.984   4.364  10.519  0.00  0.00    +0.000 A 
ATOM     33  H   UNL     1      45.861   4.063   7.357  0.00  0.00    +0.000 HD
ENDBRANCH  20  23
ENDBRANCH   2  19
TORSDOF 7
ENDMDL
