MODEL 1
REMARK VINA RESULT:    -8.102      0.000      0.000
REMARK INTER + INTRA:         -11.873
REMARK INTER:                 -10.944
REMARK INTRA:                  -0.929
REMARK UNBOUND:                -0.929
REMARK  Name = 
REMARK  6 active torsions:
REMARK  status: ('A' for Active; 'I' for Inactive)
REMARK    1  A    between atoms: C_2  and  C_4
REMARK    2  A    between atoms: C_7  and  O_8
REMARK    3  A    between atoms: O_8  and  C_9
REMARK    4  A    between atoms: C_9  and  C_10
REMARK    5  A    between atoms: C_10  and  C_11
REMARK    6  A    between atoms: C_15  and  N_16
REMARK                            x       y       z     vdW  Elec       q    Type
REMARK                         _______ _______ _______ _____ _____    ______ ____
ROOT
ATOM      1  C   UNL     1      43.485   4.665  10.762  0.00  0.00    +0.000 C 
ENDROOT
BRANCH   1   2
ATOM      2  O   UNL     1      43.593   3.272  10.423  0.00  0.00    +0.000 OA
BRANCH   2   6
ATOM      3  C   UNL     1      46.443   2.688   7.493  0.00  0.00    +0.000 A 
ATOM      4  C   UNL     1      45.873   3.954   7.655  0.00  0.00    +0.000 A 
ATOM      5  C   UNL     1      44.900   4.143   8.643  0.00  0.00    +0.000 A 
ATOM      6  C   UNL     1      44.540   3.060   9.433  0.00  0.00    +0.000 A 
ATOM      7  N   UNL     1      45.069   1.828   9.285  0.00  0.00    +0.000 NA
ATOM      8  C   UNL     1      45.996   1.664   8.313  0.00  0.00    +0.000 A 
BRANCH   3  10
ATOM      9  N   UNL     1      47.524   3.140   5.365  0.00  0.00    +0.000 N 
ATOM     10  C   UNL     1      47.489   2.377   6.496  0.00  0.00    +0.000 C 
ATOM     11  O   UNL     1      48.323   1.503   6.697  0.00  0.00    +0.000 OA
ATOM     12  H   UNL     1      48.328   3.001   4.765  0.00  0.00    +0.000 HD
ATOM     13  H   UNL     1      47.038   4.023   5.293  0.00  0.00    +0.000 HD
ENDBRANCH   3  10
ENDBRANCH   2   6
ENDBRANCH   1   2
BRANCH   1  14
ATOM     14  C   UNL     1      43.762   4.873  12.254  0.00  0.00    +0.000 C 
BRANCH  14  15
ATOM     15  C   UNL     1      45.190   5.315  12.493  0.00  0.00    +0.000 A 
ATOM     16  C   UNL     1      45.822   6.164  11.578  0.00  0.00    +0.000 A 
ATOM     17  C   UNL     1      47.107   6.629  11.830  0.00  0.00    +0.000 A 
ATOM     18  C   UNL     1      47.756   6.275  13.015  0.00  0.00    +0.000 A 
ATOM     19  C   UNL     1      47.152   5.447  13.973  0.00  0.00    +0.000 A 
ATOM     20  C   UNL     1      45.873   4.951  13.671  0.00  0.00    +0.000 A 
BRANCH  19  21
ATOM     21  N   UNL     1      47.791   5.158  15.159  0.00  0.00    +0.000 N 
ATOM     22  C   UNL     1      47.510   3.934  15.924  0.00  0.00    +0.000 C 
ATOM     23  C   UNL     1      47.164   4.306  17.371  0.00  0.00    +0.000 C 
ATOM     24  O   UNL     1      48.211   5.089  17.974  0.00  0.00    +0.000 OA
ATOM     25  C   UNL     1      48.423   6.302  17.226  0.00  0.00    +0.000 C 
ATOM     26  C   UNL     1      48.813   6.020  15.761  0.00  0.00    +0.000 C 
ENDBRANCH  19  21
ENDBRANCH  14  15
ENDBRANCH   1  14
TORSDOF 6
ENDMDL
MODEL 2
REMARK VINA RESULT:    -7.912      2.338      3.168
REMARK INTER + INTRA:         -11.617
REMARK INTER:                 -10.607
REMARK INTRA:                  -1.009
REMARK UNBOUND:                -0.929
REMARK  Name = 
REMARK  6 active torsions:
REMARK  status: ('A' for Active; 'I' for Inactive)
REMARK    1  A    between atoms: C_2  and  C_4
REMARK    2  A    between atoms: C_7  and  O_8
REMARK    3  A    between atoms: O_8  and  C_9
REMARK    4  A    between atoms: C_9  and  C_10
REMARK    5  A    between atoms: C_10  and  C_11
REMARK    6  A    between atoms: C_15  and  N_16
REMARK                            x       y       z     vdW  Elec       q    Type
REMARK                         _______ _______ _______ _____ _____    ______ ____
ROOT
ATOM      1  C   UNL     1      43.216   3.992  10.970  0.00  0.00    +0.000 C 
ENDROOT
BRANCH   1   2
ATOM      2  O   UNL     1      43.754   4.748   9.871  0.00  0.00    +0.000 OA
BRANCH   2   6
ATOM      3  C   UNL     1      46.455   2.505   7.698  0.00  0.00    +0.000 A 
ATOM      4  C   UNL     1      45.651   1.877   8.653  0.00  0.00    +0.000 A 
ATOM      5  C   UNL     1      44.744   2.645   9.394  0.00  0.00    +0.000 A 
ATOM      6  C   UNL     1      44.675   4.008   9.146  0.00  0.00    +0.000 A 
ATOM      7  N   UNL     1      45.451   4.636   8.238  0.00  0.00    +0.000 NA
ATOM      8  C   UNL     1      46.331   3.877   7.544  0.00  0.00    +0.000 A 
BRANCH   3  10
ATOM      9  N   UNL     1      48.503   2.507   6.392  0.00  0.00    +0.000 N 
ATOM     10  C   UNL     1      47.433   1.794   6.847  0.00  0.00    +0.000 C 
ATOM     11  O   UNL     1      47.317   0.600   6.602  0.00  0.00    +0.000 OA
ATOM     12  H   UNL     1      49.227   1.970   5.930  0.00  0.00    +0.000 HD
ATOM     13  H   UNL     1      48.768   3.398   6.790  0.00  0.00    +0.000 HD
ENDBRANCH   3  10
ENDBRANCH   2   6
ENDBRANCH   1   2
BRANCH   1  14
ATOM     14  C   UNL     1      43.244   4.826  12.255  0.00  0.00    +0.000 C 
BRANCH  14  15
ATOM     15  C   UNL     1      44.654   4.980  12.780  0.00  0.00    +0.000 A 
ATOM     16  C   UNL     1      45.442   3.848  13.015  0.00  0.00    +0.000 A 
ATOM     17  C   UNL     1      46.761   3.989  13.428  0.00  0.00    +0.000 A 
ATOM     18  C   UNL     1      47.312   5.264  13.578  0.00  0.00    +0.000 A 
ATOM     19  C   UNL     1      46.569   6.427  13.329  0.00  0.00    +0.000 A 
ATOM     20  C   UNL     1      45.224   6.257  12.961  0.00  0.00    +0.000 A 
BRANCH  19  21
ATOM     21  N   UNL     1      47.152   7.671  13.430  0.00  0.00    +0.000 N 
ATOM     22  C   UNL     1      46.470   8.896  12.985  0.00  0.00    +0.000 C 
ATOM     23  C   UNL     1      47.380   9.663  12.017  0.00  0.00    +0.000 C 
ATOM     24  O   UNL     1      48.658   9.946  12.616  0.00  0.00    +0.000 OA
ATOM     25  C   UNL     1      49.317   8.721  12.993  0.00  0.00    +0.000 C 
ATOM     26  C   UNL     1      48.484   7.900  13.998  0.00  0.00    +0.000 C 
ENDBRANCH  19  21
ENDBRANCH  14  15
ENDBRANCH   1  14
TORSDOF 6
ENDMDL
MODEL 3
REMARK VINA RESULT:    -7.531      1.645      2.207
REMARK INTER + INTRA:         -11.102
REMARK INTER:                 -10.277
REMARK INTRA:                  -0.825
REMARK UNBOUND:                -0.929
REMARK  Name = 
REMARK  6 active torsions:
REMARK  status: ('A' for Active; 'I' for Inactive)
REMARK    1  A    between atoms: C_2  and  C_4
REMARK    2  A    between atoms: C_7  and  O_8
REMARK    3  A    between atoms: O_8  and  C_9
REMARK    4  A    between atoms: C_9  and  C_10
REMARK    5  A    between atoms: C_10  and  C_11
REMARK    6  A    between atoms: C_15  and  N_16
REMARK                            x       y       z     vdW  Elec       q    Type
REMARK                         _______ _______ _______ _____ _____    ______ ____
ROOT
ATOM      1  C   UNL     1      43.787   3.203  11.723  0.00  0.00    +0.000 C 
ENDROOT
BRANCH   1   2
ATOM      2  O   UNL     1      43.385   3.503  10.376  0.00  0.00    +0.000 OA
BRANCH   2   6
ATOM      3  C   UNL     1      46.359   2.626   7.649  0.00  0.00    +0.000 A 
ATOM      4  C   UNL     1      45.768   1.591   8.378  0.00  0.00    +0.000 A 
ATOM      5  C   UNL     1      44.768   1.896   9.308  0.00  0.00    +0.000 A 
ATOM      6  C   UNL     1      44.395   3.223   9.468  0.00  0.00    +0.000 A 
ATOM      7  N   UNL     1      44.962   4.238   8.784  0.00  0.00    +0.000 NA
ATOM      8  C   UNL     1      45.937   3.922   7.901  0.00  0.00    +0.000 A 
BRANCH   3  10
ATOM      9  N   UNL     1      47.375   3.218   5.523  0.00  0.00    +0.000 N 
ATOM     10  C   UNL     1      47.411   2.422   6.631  0.00  0.00    +0.000 C 
ATOM     11  O   UNL     1      48.309   1.606   6.795  0.00  0.00    +0.000 OA
ATOM     12  H   UNL     1      48.179   3.156   4.909  0.00  0.00    +0.000 HD
ATOM     13  H   UNL     1      46.825   4.065   5.484  0.00  0.00    +0.000 HD
ENDBRANCH   3  10
ENDBRANCH   2   6
ENDBRANCH   1   2
BRANCH   1  14
ATOM     14  C   UNL     1      43.499   4.394  12.642  0.00  0.00    +0.000 C 
BRANCH  14  15
ATOM     15  C   UNL     1      44.478   5.523  12.402  0.00  0.00    +0.000 A 
ATOM     16  C   UNL     1      44.067   6.670  11.714  0.00  0.00    +0.000 A 
ATOM     17  C   UNL     1      44.941   7.739  11.556  0.00  0.00    +0.000 A 
ATOM     18  C   UNL     1      46.221   7.681  12.112  0.00  0.00    +0.000 A 
ATOM     19  C   UNL     1      46.668   6.563  12.831  0.00  0.00    +0.000 A 
ATOM     20  C   UNL     1      45.782   5.477  12.935  0.00  0.00    +0.000 A 
BRANCH  19  21
ATOM     21  N   UNL     1      47.914   6.553  13.418  0.00  0.00    +0.000 N 
ATOM     22  C   UNL     1      48.136   6.047  14.781  0.00  0.00    +0.000 C 
ATOM     23  C   UNL     1      48.870   7.112  15.606  0.00  0.00    +0.000 C 
ATOM     24  O   UNL     1      50.100   7.508  14.972  0.00  0.00    +0.000 OA
ATOM     25  C   UNL     1      49.837   8.044  13.660  0.00  0.00    +0.000 C 
ATOM     26  C   UNL     1      49.131   7.022  12.747  0.00  0.00    +0.000 C 
ENDBRANCH  19  21
ENDBRANCH  14  15
ENDBRANCH   1  14
TORSDOF 6
ENDMDL
MODEL 4
REMARK VINA RESULT:    -6.997      3.055      3.828
REMARK INTER + INTRA:         -10.381
REMARK INTER:                  -9.799
REMARK INTRA:                  -0.582
REMARK UNBOUND:                -0.929
REMARK  Name = 
REMARK  6 active torsions:
REMARK  status: ('A' for Active; 'I' for Inactive)
REMARK    1  A    between atoms: C_2  and  C_4
REMARK    2  A    between atoms: C_7  and  O_8
REMARK    3  A    between atoms: O_8  and  C_9
REMARK    4  A    between atoms: C_9  and  C_10
REMARK    5  A    between atoms: C_10  and  C_11
REMARK    6  A    between atoms: C_15  and  N_16
REMARK                            x       y       z     vdW  Elec       q    Type
REMARK                         _______ _______ _______ _____ _____    ______ ____
ROOT
ATOM      1  C   UNL     1      44.083   4.572  11.459  0.00  0.00    +0.000 C 
ENDROOT
BRANCH   1   2
ATOM      2  O   UNL     1      43.784   4.664  10.056  0.00  0.00    +0.000 OA
BRANCH   2   6
ATOM      3  C   UNL     1      46.368   2.349   7.818  0.00  0.00    +0.000 A 
ATOM      4  C   UNL     1      46.358   3.735   7.641  0.00  0.00    +0.000 A 
ATOM      5  C   UNL     1      45.472   4.514   8.395  0.00  0.00    +0.000 A 
ATOM      6  C   UNL     1      44.636   3.874   9.300  0.00  0.00    +0.000 A 
ATOM      7  N   UNL     1      44.621   2.537   9.476  0.00  0.00    +0.000 NA
ATOM      8  C   UNL     1      45.475   1.803   8.725  0.00  0.00    +0.000 A 
BRANCH   3  10
ATOM      9  N   UNL     1      48.408   1.963   6.557  0.00  0.00    +0.000 N 
ATOM     10  C   UNL     1      47.270   1.432   7.089  0.00  0.00    +0.000 C 
ATOM     11  O   UNL     1      47.033   0.233   7.010  0.00  0.00    +0.000 OA
ATOM     12  H   UNL     1      49.074   1.297   6.185  0.00  0.00    +0.000 HD
ATOM     13  H   UNL     1      48.763   2.869   6.832  0.00  0.00    +0.000 HD
ENDBRANCH   3  10
ENDBRANCH   2   6
ENDBRANCH   1   2
BRANCH   1  14
ATOM     14  C   UNL     1      45.574   4.821  11.705  0.00  0.00    +0.000 C 
BRANCH  14  15
ATOM     15  C   UNL     1      45.874   6.300  11.815  0.00  0.00    +0.000 A 
ATOM     16  C   UNL     1      44.828   7.217  11.966  0.00  0.00    +0.000 A 
ATOM     17  C   UNL     1      45.104   8.568  12.140  0.00  0.00    +0.000 A 
ATOM     18  C   UNL     1      46.429   9.007  12.198  0.00  0.00    +0.000 A 
ATOM     19  C   UNL     1      47.510   8.121  12.077  0.00  0.00    +0.000 A 
ATOM     20  C   UNL     1      47.203   6.769  11.852  0.00  0.00    +0.000 A 
BRANCH  19  21
ATOM     21  N   UNL     1      48.806   8.571  12.193  0.00  0.00    +0.000 N 
ATOM     22  C   UNL     1      49.143  10.002  12.200  0.00  0.00    +0.000 C 
ATOM     23  C   UNL     1      50.213  10.279  11.136  0.00  0.00    +0.000 C 
ATOM     24  O   UNL     1      51.374   9.452  11.335  0.00  0.00    +0.000 OA
ATOM     25  C   UNL     1      51.013   8.058  11.271  0.00  0.00    +0.000 C 
ATOM     26  C   UNL     1      49.964   7.682  12.336  0.00  0.00    +0.000 C 
ENDBRANCH  19  21
ENDBRANCH  14  15
ENDBRANCH   1  14
TORSDOF 6
ENDMDL
MODEL 5
REMARK VINA RESULT:    -6.693      2.631      7.685
REMARK INTER + INTRA:          -9.969
REMARK INTER:                  -9.062
REMARK INTRA:                  -0.907
REMARK UNBOUND:                -0.929
REMARK  Name = 
REMARK  6 active torsions:
REMARK  status: ('A' for Active; 'I' for Inactive)
REMARK    1  A    between atoms: C_2  and  C_4
REMARK    2  A    between atoms: C_7  and  O_8
REMARK    3  A    between atoms: O_8  and  C_9
REMARK    4  A    between atoms: C_9  and  C_10
REMARK    5  A    between atoms: C_10  and  C_11
REMARK    6  A    between atoms: C_15  and  N_16
REMARK                            x       y       z     vdW  Elec       q    Type
REMARK                         _______ _______ _______ _____ _____    ______ ____
ROOT
ATOM      1  C   UNL     1      49.340   6.894  12.791  0.00  0.00    +0.000 C 
ENDROOT
BRANCH   1   2
ATOM      2  O   UNL     1      49.036   7.461  14.076  0.00  0.00    +0.000 OA
BRANCH   2   6
ATOM      3  C   UNL     1      47.952   4.597  16.846  0.00  0.00    +0.000 A 
ATOM      4  C   UNL     1      48.881   5.580  17.200  0.00  0.00    +0.000 A 
ATOM      5  C   UNL     1      49.252   6.542  16.254  0.00  0.00    +0.000 A 
ATOM      6  C   UNL     1      48.675   6.485  14.993  0.00  0.00    +0.000 A 
ATOM      7  N   UNL     1      47.788   5.538  14.627  0.00  0.00    +0.000 NA
ATOM      8  C   UNL     1      47.455   4.609  15.553  0.00  0.00    +0.000 A 
BRANCH   3  10
ATOM      9  N   UNL     1      48.103   3.434  18.973  0.00  0.00    +0.000 N 
ATOM     10  C   UNL     1      47.476   3.544  17.767  0.00  0.00    +0.000 C 
ATOM     11  O   UNL     1      46.522   2.830  17.482  0.00  0.00    +0.000 OA
ATOM     12  H   UNL     1      47.673   2.803  19.639  0.00  0.00    +0.000 HD
ATOM     13  H   UNL     1      48.696   4.165  19.343  0.00  0.00    +0.000 HD
ENDBRANCH   3  10
ENDBRANCH   2   6
ENDBRANCH   1   2
BRANCH   1  14
ATOM     14  C   UNL     1      48.700   7.726  11.676  0.00  0.00    +0.000 C 
BRANCH  14  15
ATOM     15  C   UNL     1      47.190   7.636  11.720  0.00  0.00    +0.000 A 
ATOM     16  C   UNL     1      46.434   8.747  12.109  0.00  0.00    +0.000 A 
ATOM     17  C   UNL     1      45.046   8.690  12.080  0.00  0.00    +0.000 A 
ATOM     18  C   UNL     1      44.404   7.534  11.632  0.00  0.00    +0.000 A 
ATOM     19  C   UNL     1      45.120   6.404  11.209  0.00  0.00    +0.000 A 
ATOM     20  C   UNL     1      46.521   6.470  11.294  0.00  0.00    +0.000 A 
BRANCH  19  21
ATOM     21  N   UNL     1      44.465   5.296  10.718  0.00  0.00    +0.000 N 
ATOM     22  C   UNL     1      43.161   4.861  11.239  0.00  0.00    +0.000 C 
ATOM     23  C   UNL     1      43.240   3.383  11.641  0.00  0.00    +0.000 C 
ATOM     24  O   UNL     1      43.681   2.565  10.542  0.00  0.00    +0.000 OA
ATOM     25  C   UNL     1      44.983   2.989  10.093  0.00  0.00    +0.000 C 
ATOM     26  C   UNL     1      44.986   4.461   9.632  0.00  0.00    +0.000 C 
ENDBRANCH  19  21
ENDBRANCH  14  15
ENDBRANCH   1  14
TORSDOF 6
ENDMDL
MODEL 6
REMARK VINA RESULT:    -6.561      1.745      8.220
REMARK INTER + INTRA:          -9.792
REMARK INTER:                  -9.017
REMARK INTRA:                  -0.774
REMARK UNBOUND:                -0.929
REMARK  Name = 
REMARK  6 active torsions:
REMARK  status: ('A' for Active; 'I' for Inactive)
REMARK    1  A    between atoms: C_2  and  C_4
REMARK    2  A    between atoms: C_7  and  O_8
REMARK    3  A    between atoms: O_8  and  C_9
REMARK    4  A    between atoms: C_9  and  C_10
REMARK    5  A    between atoms: C_10  and  C_11
REMARK    6  A    between atoms: C_15  and  N_16
REMARK                            x       y       z     vdW  Elec       q    Type
REMARK                         _______ _______ _______ _____ _____    ______ ____
ROOT
ATOM      1  C   UNL     1      46.738   7.066  13.277  0.00  0.00    +0.000 C 
ENDROOT
BRANCH   1   2
ATOM      2  O   UNL     1      47.416   5.800  13.340  0.00  0.00    +0.000 OA
BRANCH   2   6
ATOM      3  C   UNL     1      48.288   4.671  17.214  0.00  0.00    +0.000 A 
ATOM      4  C   UNL     1      47.339   3.950  16.485  0.00  0.00    +0.000 A 
ATOM      5  C   UNL     1      47.040   4.344  15.175  0.00  0.00    +0.000 A 
ATOM      6  C   UNL     1      47.707   5.440  14.646  0.00  0.00    +0.000 A 
ATOM      7  N   UNL     1      48.616   6.157  15.337  0.00  0.00    +0.000 NA
ATOM      8  C   UNL     1      48.878   5.767  16.607  0.00  0.00    +0.000 A 
BRANCH   3  10
ATOM      9  N   UNL     1      48.324   3.116  19.080  0.00  0.00    +0.000 N 
ATOM     10  C   UNL     1      48.694   4.336  18.595  0.00  0.00    +0.000 C 
ATOM     11  O   UNL     1      49.379   5.102  19.262  0.00  0.00    +0.000 OA
ATOM     12  H   UNL     1      48.728   2.854  19.971  0.00  0.00    +0.000 HD
ATOM     13  H   UNL     1      48.004   2.370  18.478  0.00  0.00    +0.000 HD
ENDBRANCH   3  10
ENDBRANCH   2   6
ENDBRANCH   1   2
BRANCH   1  14
ATOM     14  C   UNL     1      45.979   7.200  11.954  0.00  0.00    +0.000 C 
BRANCH  14  15
ATOM     15  C   UNL     1      45.201   5.942  11.636  0.00  0.00    +0.000 A 
ATOM     16  C   UNL     1      44.106   5.578  12.426  0.00  0.00    +0.000 A 
ATOM     17  C   UNL     1      43.345   4.464  12.094  0.00  0.00    +0.000 A 
ATOM     18  C   UNL     1      43.654   3.725  10.950  0.00  0.00    +0.000 A 
ATOM     19  C   UNL     1      44.727   4.066  10.113  0.00  0.00    +0.000 A 
ATOM     20  C   UNL     1      45.509   5.168  10.499  0.00  0.00    +0.000 A 
BRANCH  19  21
ATOM     21  N   UNL     1      44.977   3.355   8.960  0.00  0.00    +0.000 N 
ATOM     22  C   UNL     1      44.818   1.895   8.889  0.00  0.00    +0.000 C 
ATOM     23  C   UNL     1      46.112   1.268   8.353  0.00  0.00    +0.000 C 
ATOM     24  O   UNL     1      46.478   1.832   7.080  0.00  0.00    +0.000 OA
ATOM     25  C   UNL     1      46.673   3.254   7.201  0.00  0.00    +0.000 C 
ATOM     26  C   UNL     1      45.405   3.974   7.702  0.00  0.00    +0.000 C 
ENDBRANCH  19  21
ENDBRANCH  14  15
ENDBRANCH   1  14
TORSDOF 6
ENDMDL
MODEL 7
REMARK VINA RESULT:    -6.118      3.263      8.261
REMARK INTER + INTRA:          -9.194
REMARK INTER:                  -8.583
REMARK INTRA:                  -0.611
REMARK UNBOUND:                -0.929
REMARK  Name = 
REMARK  6 active torsions:
REMARK  status: ('A' for Active; 'I' for Inactive)
REMARK    1  A    between atoms: C_2  and  C_4
REMARK    2  A    between atoms: C_7  and  O_8
REMARK    3  A    between atoms: O_8  and  C_9
REMARK    4  A    between atoms: C_9  and  C_10
REMARK    5  A    between atoms: C_10  and  C_11
REMARK    6  A    between atoms: C_15  and  N_16
REMARK                            x       y       z     vdW  Elec       q    Type
REMARK                         _______ _______ _______ _____ _____    ______ ____
ROOT
ATOM      1  C   UNL     1      48.490   5.849  16.130  0.00  0.00    +0.000 C 
ENDROOT
BRANCH   1   2
ATOM      2  O   UNL     1      49.443   5.916  17.204  0.00  0.00    +0.000 OA
BRANCH   2   6
ATOM      3  C   UNL     1      51.487   2.348  17.575  0.00  0.00    +0.000 A 
ATOM      4  C   UNL     1      50.106   2.331  17.364  0.00  0.00    +0.000 A 
ATOM      5  C   UNL     1      49.417   3.543  17.249  0.00  0.00    +0.000 A 
ATOM      6  C   UNL     1      50.138   4.725  17.345  0.00  0.00    +0.000 A 
ATOM      7  N   UNL     1      51.469   4.764  17.562  0.00  0.00    +0.000 NA
ATOM      8  C   UNL     1      52.112   3.580  17.685  0.00  0.00    +0.000 A 
BRANCH   3  10
ATOM      9  N   UNL     1      51.723   0.013  18.200  0.00  0.00    +0.000 N 
ATOM     10  C   UNL     1      52.318   1.132  17.695  0.00  0.00    +0.000 C 
ATOM     11  O   UNL     1      53.481   1.112  17.309  0.00  0.00    +0.000 OA
ATOM     12  H   UNL     1      52.267  -0.840  18.144  0.00  0.00    +0.000 HD
ATOM     13  H   UNL     1      50.719  -0.081  18.269  0.00  0.00    +0.000 HD
ENDBRANCH   3  10
ENDBRANCH   2   6
ENDBRANCH   1   2
BRANCH   1  14
ATOM     14  C   UNL     1      48.965   6.690  14.942  0.00  0.00    +0.000 C 
BRANCH  14  15
ATOM     15  C   UNL     1      47.876   6.838  13.902  0.00  0.00    +0.000 A 
ATOM     16  C   UNL     1      47.928   7.887  12.977  0.00  0.00    +0.000 A 
ATOM     17  C   UNL     1      46.970   7.984  11.976  0.00  0.00    +0.000 A 
ATOM     18  C   UNL     1      45.971   7.014  11.872  0.00  0.00    +0.000 A 
ATOM     19  C   UNL     1      45.892   5.930  12.760  0.00  0.00    +0.000 A 
ATOM     20  C   UNL     1      46.844   5.884  13.792  0.00  0.00    +0.000 A 
BRANCH  19  21
ATOM     21  N   UNL     1      44.931   4.957  12.602  0.00  0.00    +0.000 N 
ATOM     22  C   UNL     1      45.269   3.570  12.250  0.00  0.00    +0.000 C 
ATOM     23  C   UNL     1      44.458   3.144  11.019  0.00  0.00    +0.000 C 
ATOM     24  O   UNL     1      43.046   3.315  11.240  0.00  0.00    +0.000 OA
ATOM     25  C   UNL     1      42.748   4.694  11.532  0.00  0.00    +0.000 C 
ATOM     26  C   UNL     1      43.496   5.196  12.783  0.00  0.00    +0.000 C 
ENDBRANCH  19  21
ENDBRANCH  14  15
ENDBRANCH   1  14
TORSDOF 6
ENDMDL
MODEL 8
REMARK VINA RESULT:    -6.002      3.561      5.885
REMARK INTER + INTRA:          -9.037
REMARK INTER:                  -8.457
REMARK INTRA:                  -0.579
REMARK UNBOUND:                -0.929
REMARK  Name = 
REMARK  6 active torsions:
REMARK  status: ('A' for Active; 'I' for Inactive)
REMARK    1  A    between atoms: C_2  and  C_4
REMARK    2  A    between atoms: C_7  and  O_8
REMARK    3  A    between atoms: O_8  and  C_9
REMARK    4  A    between atoms: C_9  and  C_10
REMARK    5  A    between atoms: C_10  and  C_11
REMARK    6  A    between atoms: C_15  and  N_16
REMARK                            x       y       z     vdW  Elec       q    Type
REMARK                         _______ _______ _______ _____ _____    ______ ____
ROOT
ATOM      1  C   UNL     1      47.397   3.507  15.822  0.00  0.00    +0.000 C 
ENDROOT
BRANCH   1   2
ATOM      2  O   UNL     1      47.659   3.306  14.423  0.00  0.00    +0.000 OA
BRANCH   2   6
ATOM      3  C   UNL     1      44.760   5.034  12.044  0.00  0.00    +0.000 A 
ATOM      4  C   UNL     1      45.595   5.849  12.813  0.00  0.00    +0.000 A 
ATOM      5  C   UNL     1      46.569   5.257  13.625  0.00  0.00    +0.000 A 
ATOM      6  C   UNL     1      46.672   3.873  13.632  0.00  0.00    +0.000 A 
ATOM      7  N   UNL     1      45.868   3.068  12.908  0.00  0.00    +0.000 NA
ATOM      8  C   UNL     1      44.924   3.661  12.142  0.00  0.00    +0.000 A 
BRANCH   3  10
ATOM      9  N   UNL     1      43.315   6.843  11.311  0.00  0.00    +0.000 N 
ATOM     10  C   UNL     1      43.710   5.548  11.140  0.00  0.00    +0.000 C 
ATOM     11  O   UNL     1      43.249   4.858  10.239  0.00  0.00    +0.000 OA
ATOM     12  H   UNL     1      42.699   7.214  10.597  0.00  0.00    +0.000 HD
ATOM     13  H   UNL     1      43.854   7.506  11.849  0.00  0.00    +0.000 HD
ENDBRANCH   3  10
ENDBRANCH   2   6
ENDBRANCH   1   2
BRANCH   1  14
ATOM     14  C   UNL     1      48.341   2.650  16.671  0.00  0.00    +0.000 C 
BRANCH  14  15
ATOM     15  C   UNL     1      49.288   3.510  17.479  0.00  0.00    +0.000 A 
ATOM     16  C   UNL     1      50.654   3.211  17.507  0.00  0.00    +0.000 A 
ATOM     17  C   UNL     1      51.536   4.041  18.189  0.00  0.00    +0.000 A 
ATOM     18  C   UNL     1      51.063   5.193  18.820  0.00  0.00    +0.000 A 
ATOM     19  C   UNL     1      49.706   5.546  18.799  0.00  0.00    +0.000 A 
ATOM     20  C   UNL     1      48.829   4.665  18.145  0.00  0.00    +0.000 A 
BRANCH  19  21
ATOM     21  N   UNL     1      49.272   6.716  19.382  0.00  0.00    +0.000 N 
ATOM     22  C   UNL     1      48.994   6.820  20.822  0.00  0.00    +0.000 C 
ATOM     23  C   UNL     1      47.581   7.379  21.029  0.00  0.00    +0.000 C 
ATOM     24  O   UNL     1      47.414   8.641  20.357  0.00  0.00    +0.000 OA
ATOM     25  C   UNL     1      47.645   8.489  18.943  0.00  0.00    +0.000 C 
ATOM     26  C   UNL     1      49.063   7.964  18.640  0.00  0.00    +0.000 C 
ENDBRANCH  19  21
ENDBRANCH  14  15
ENDBRANCH   1  14
TORSDOF 6
ENDMDL
MODEL 9
REMARK VINA RESULT:    -5.968      2.858      4.507
REMARK INTER + INTRA:          -8.991
REMARK INTER:                  -8.178
REMARK INTRA:                  -0.812
REMARK UNBOUND:                -0.929
REMARK  Name = 
REMARK  6 active torsions:
REMARK  status: ('A' for Active; 'I' for Inactive)
REMARK    1  A    between atoms: C_2  and  C_4
REMARK    2  A    between atoms: C_7  and  O_8
REMARK    3  A    between atoms: O_8  and  C_9
REMARK    4  A    between atoms: C_9  and  C_10
REMARK    5  A    between atoms: C_10  and  C_11
REMARK    6  A    between atoms: C_15  and  N_16
REMARK                            x       y       z     vdW  Elec       q    Type
REMARK                         _______ _______ _______ _____ _____    ______ ____
ROOT
ATOM      1  C   UNL     1      47.107   8.163  12.160  0.00  0.00    +0.000 C 
ENDROOT
BRANCH   1   2
ATOM      2  O   UNL     1      46.015   7.685  12.964  0.00  0.00    +0.000 OA
BRANCH   2   6
ATOM      3  C   UNL     1      44.458   4.197  11.396  0.00  0.00    +0.000 A 
ATOM      4  C   UNL     1      44.970   5.170  10.534  0.00  0.00    +0.000 A 
ATOM      5  C   UNL     1      45.487   6.355  11.070  0.00  0.00    +0.000 A 
ATOM      6  C   UNL     1      45.476   6.516  12.449  0.00  0.00    +0.000 A 
ATOM      7  N   UNL     1      44.975   5.595  13.298  0.00  0.00    +0.000 NA
ATOM      8  C   UNL     1      44.466   4.465  12.756  0.00  0.00    +0.000 A 
BRANCH   3  10
ATOM      9  N   UNL     1      44.570   2.249   9.950  0.00  0.00    +0.000 N 
ATOM     10  C   UNL     1      43.903   2.904  10.944  0.00  0.00    +0.000 C 
ATOM     11  O   UNL     1      42.914   2.413  11.473  0.00  0.00    +0.000 OA
ATOM     12  H   UNL     1      44.254   1.307   9.753  0.00  0.00    +0.000 HD
ATOM     13  H   UNL     1      45.517   2.485   9.687  0.00  0.00    +0.000 HD
ENDBRANCH   3  10
ENDBRANCH   2   6
ENDBRANCH   1   2
BRANCH   1  14
ATOM     14  C   UNL     1      48.419   7.504  12.596  0.00  0.00    +0.000 C 
BRANCH  14  15
ATOM     15  C   UNL     1      48.623   7.621  14.091  0.00  0.00    +0.000 A 
ATOM     16  C   UNL     1      48.707   8.882  14.690  0.00  0.00    +0.000 A 
ATOM     17  C   UNL     1      48.821   8.994  16.070  0.00  0.00    +0.000 A 
ATOM     18  C   UNL     1      48.819   7.845  16.864  0.00  0.00    +0.000 A 
ATOM     19  C   UNL     1      48.712   6.560  16.311  0.00  0.00    +0.000 A 
ATOM     20  C   UNL     1      48.648   6.474  14.910  0.00  0.00    +0.000 A 
BRANCH  19  21
ATOM     21  N   UNL     1      48.657   5.446  17.119  0.00  0.00    +0.000 N 
ATOM     22  C   UNL     1      49.780   5.043  17.979  0.00  0.00    +0.000 C 
ATOM     23  C   UNL     1      50.134   3.577  17.699  0.00  0.00    +0.000 C 
ATOM     24  O   UNL     1      48.990   2.721  17.872  0.00  0.00    +0.000 OA
ATOM     25  C   UNL     1      47.931   3.115  16.979  0.00  0.00    +0.000 C 
ATOM     26  C   UNL     1      47.484   4.572  17.216  0.00  0.00    +0.000 C 
ENDBRANCH  19  21
ENDBRANCH  14  15
ENDBRANCH   1  14
TORSDOF 6
ENDMDL
