MODEL 1
REMARK VINA RESULT:    -8.679      0.000      0.000
REMARK INTER + INTRA:         -12.941
REMARK INTER:                 -11.723
REMARK INTRA:                  -1.218
REMARK UNBOUND:                -1.218
REMARK  Name = 
REMARK  7 active torsions:
REMARK  status: ('A' for Active; 'I' for Inactive)
REMARK    1  A    between atoms: C_1  and  C_2
REMARK    2  A    between atoms: C_2  and  C_3
REMARK    3  A    between atoms: C_2  and  C_13
REMARK    4  A    between atoms: C_3  and  C_4
REMARK    5  A    between atoms: C_7  and  C_8
REMARK    6  A    between atoms: C_17  and  O_18
REMARK    7  A    between atoms: O_18  and  C_19
REMARK                            x       y       z     vdW  Elec       q    Type
REMARK                         _______ _______ _______ _____ _____    ______ ____
ROOT
ATOM      1  C   UNL     1      42.601   5.297  12.371  0.00  0.00    +0.000 C 
ATOM      2  C   UNL     1      43.704   4.516  11.647  0.00  0.00    +0.000 C 
ENDROOT
BRANCH   2   3
ATOM      3  C   UNL     1      45.067   4.819  12.255  0.00  0.00    +0.000 A 
ATOM      4  C   UNL     1      45.698   6.047  12.017  0.00  0.00    +0.000 A 
ATOM      5  C   UNL     1      46.922   6.341  12.626  0.00  0.00    +0.000 A 
ATOM      6  C   UNL     1      47.529   5.420  13.481  0.00  0.00    +0.000 A 
ATOM      7  C   UNL     1      46.918   4.193  13.713  0.00  0.00    +0.000 A 
ATOM      8  C   UNL     1      45.700   3.897  13.102  0.00  0.00    +0.000 A 
BRANCH   7   9
ATOM      9  O   UNL     1      47.385   3.224  14.563  0.00  0.00    +0.000 OA
BRANCH   9  10
ATOM     10  C   UNL     1      47.957   3.617  15.829  0.00  0.00    +0.000 C 
ATOM     11  C   UNL     1      48.442   2.504  16.778  0.00  0.00    +0.000 C 
ATOM     12  N   UNL     1      47.639   3.069  17.874  0.00  0.00    +0.000 NA
ATOM     13  C   UNL     1      46.923   3.936  16.927  0.00  0.00    +0.000 C 
ATOM     14  H   UNL     1      48.182   3.577  18.571  0.00  0.00    +0.000 HD
ENDBRANCH   9  10
ENDBRANCH   7   9
ENDBRANCH   2   3
BRANCH   2  15
ATOM     15  C   UNL     1      43.738   4.798  10.125  0.00  0.00    +0.000 C 
BRANCH  15  16
ATOM     16  C   UNL     1      44.659   3.905   9.328  0.00  0.00    +0.000 A 
ATOM     17  C   UNL     1      45.574   4.470   8.428  0.00  0.00    +0.000 A 
ATOM     18  C   UNL     1      46.433   3.657   7.688  0.00  0.00    +0.000 A 
ATOM     19  C   UNL     1      46.395   2.268   7.843  0.00  0.00    +0.000 A 
ATOM     20  C   UNL     1      45.483   1.696   8.738  0.00  0.00    +0.000 A 
ATOM     21  C   UNL     1      44.625   2.512   9.481  0.00  0.00    +0.000 A 
BRANCH  19  22
ATOM     22  C   UNL     1      47.321   1.444   7.023  0.00  0.00    +0.000 C 
ATOM     23  N   UNL     1      48.459   2.044   6.559  0.00  0.00    +0.000 N 
ATOM     24  O   UNL     1      47.067   0.280   6.739  0.00  0.00    +0.000 OA
ATOM     25  H   UNL     1      48.581   3.046   6.555  0.00  0.00    +0.000 HD
ATOM     26  H   UNL     1      49.016   1.500   5.914  0.00  0.00    +0.000 HD
ENDBRANCH  19  22
ENDBRANCH  15  16
ENDBRANCH   2  15
TORSDOF 6
ENDMDL
MODEL 2
REMARK VINA RESULT:    -7.569      2.450      2.935
REMARK INTER + INTRA:         -11.442
REMARK INTER:                 -10.374
REMARK INTRA:                  -1.068
REMARK UNBOUND:                -1.218
REMARK  Name = 
REMARK  7 active torsions:
REMARK  status: ('A' for Active; 'I' for Inactive)
REMARK    1  A    between atoms: C_1  and  C_2
REMARK    2  A    between atoms: C_2  and  C_3
REMARK    3  A    between atoms: C_2  and  C_13
REMARK    4  A    between atoms: C_3  and  C_4
REMARK    5  A    between atoms: C_7  and  C_8
REMARK    6  A    between atoms: C_17  and  O_18
REMARK    7  A    between atoms: O_18  and  C_19
REMARK                            x       y       z     vdW  Elec       q    Type
REMARK                         _______ _______ _______ _____ _____    ______ ____
ROOT
ATOM      1  C   UNL     1      43.536   3.129  12.823  0.00  0.00    +0.000 C 
ATOM      2  C   UNL     1      44.563   3.543  11.761  0.00  0.00    +0.000 C 
ENDROOT
BRANCH   2   3
ATOM      3  C   UNL     1      45.159   4.905  12.090  0.00  0.00    +0.000 A 
ATOM      4  C   UNL     1      44.544   6.081  11.640  0.00  0.00    +0.000 A 
ATOM      5  C   UNL     1      45.064   7.330  11.995  0.00  0.00    +0.000 A 
ATOM      6  C   UNL     1      46.198   7.423  12.803  0.00  0.00    +0.000 A 
ATOM      7  C   UNL     1      46.823   6.262  13.243  0.00  0.00    +0.000 A 
ATOM      8  C   UNL     1      46.309   5.017  12.886  0.00  0.00    +0.000 A 
BRANCH   7   9
ATOM      9  O   UNL     1      47.912   6.216  14.076  0.00  0.00    +0.000 OA
BRANCH   9  10
ATOM     10  C   UNL     1      48.786   7.363  14.152  0.00  0.00    +0.000 C 
ATOM     11  C   UNL     1      49.890   7.500  13.085  0.00  0.00    +0.000 C 
ATOM     12  N   UNL     1      50.907   7.659  14.136  0.00  0.00    +0.000 NA
ATOM     13  C   UNL     1      49.946   7.218  15.158  0.00  0.00    +0.000 C 
ATOM     14  H   UNL     1      51.233   8.616  14.260  0.00  0.00    +0.000 HD
ENDBRANCH   9  10
ENDBRANCH   7   9
ENDBRANCH   2   3
BRANCH   2  15
ATOM     15  C   UNL     1      43.971   3.564  10.331  0.00  0.00    +0.000 C 
BRANCH  15  16
ATOM     16  C   UNL     1      44.953   3.255   9.226  0.00  0.00    +0.000 A 
ATOM     17  C   UNL     1      45.337   1.929   8.982  0.00  0.00    +0.000 A 
ATOM     18  C   UNL     1      46.241   1.628   7.963  0.00  0.00    +0.000 A 
ATOM     19  C   UNL     1      46.769   2.650   7.168  0.00  0.00    +0.000 A 
ATOM     20  C   UNL     1      46.392   3.978   7.406  0.00  0.00    +0.000 A 
ATOM     21  C   UNL     1      45.483   4.276   8.426  0.00  0.00    +0.000 A 
BRANCH  19  22
ATOM     22  C   UNL     1      47.738   2.282   6.103  0.00  0.00    +0.000 C 
ATOM     23  N   UNL     1      47.819   3.102   5.012  0.00  0.00    +0.000 N 
ATOM     24  O   UNL     1      48.418   1.266   6.173  0.00  0.00    +0.000 OA
ATOM     25  H   UNL     1      47.114   3.793   4.799  0.00  0.00    +0.000 HD
ATOM     26  H   UNL     1      48.400   2.774   4.252  0.00  0.00    +0.000 HD
ENDBRANCH  19  22
ENDBRANCH  15  16
ENDBRANCH   2  15
TORSDOF 6
ENDMDL
MODEL 3
REMARK VINA RESULT:    -7.504      3.438      4.735
REMARK INTER + INTRA:         -11.354
REMARK INTER:                 -10.266
REMARK INTRA:                  -1.088
REMARK UNBOUND:                -1.218
REMARK  Name = 
REMARK  7 active torsions:
REMARK  status: ('A' for Active; 'I' for Inactive)
REMARK    1  A    between atoms: C_1  and  C_2
REMARK    2  A    between atoms: C_2  and  C_3
REMARK    3  A    between atoms: C_2  and  C_13
REMARK    4  A    between atoms: C_3  and  C_4
REMARK    5  A    between atoms: C_7  and  C_8
REMARK    6  A    between atoms: C_17  and  O_18
REMARK    7  A    between atoms: O_18  and  C_19
REMARK                            x       y       z     vdW  Elec       q    Type
REMARK                         _______ _______ _______ _____ _____    ______ ____
ROOT
ATOM      1  C   UNL     1      42.834   4.929  12.539  0.00  0.00    +0.000 C 
ATOM      2  C   UNL     1      44.108   4.787  11.696  0.00  0.00    +0.000 C 
ENDROOT
BRANCH   2   3
ATOM      3  C   UNL     1      45.135   5.840  12.091  0.00  0.00    +0.000 A 
ATOM      4  C   UNL     1      46.477   5.489  12.288  0.00  0.00    +0.000 A 
ATOM      5  C   UNL     1      47.426   6.470  12.592  0.00  0.00    +0.000 A 
ATOM      6  C   UNL     1      47.052   7.810  12.699  0.00  0.00    +0.000 A 
ATOM      7  C   UNL     1      45.720   8.167  12.519  0.00  0.00    +0.000 A 
ATOM      8  C   UNL     1      44.773   7.189  12.221  0.00  0.00    +0.000 A 
BRANCH   7   9
ATOM      9  O   UNL     1      45.233   9.449  12.552  0.00  0.00    +0.000 OA
BRANCH   9  10
ATOM     10  C   UNL     1      44.802  10.067  11.320  0.00  0.00    +0.000 C 
ATOM     11  C   UNL     1      45.103  11.566  11.123  0.00  0.00    +0.000 C 
ATOM     12  N   UNL     1      43.688  11.824  10.813  0.00  0.00    +0.000 NA
ATOM     13  C   UNL     1      43.319  10.487  11.299  0.00  0.00    +0.000 C 
ATOM     14  H   UNL     1      43.498  11.971   9.823  0.00  0.00    +0.000 HD
ENDBRANCH   9  10
ENDBRANCH   7   9
ENDBRANCH   2   3
BRANCH   2  15
ATOM     15  C   UNL     1      43.834   4.869  10.175  0.00  0.00    +0.000 C 
BRANCH  15  16
ATOM     16  C   UNL     1      44.757   4.043   9.312  0.00  0.00    +0.000 A 
ATOM     17  C   UNL     1      45.637   4.677   8.422  0.00  0.00    +0.000 A 
ATOM     18  C   UNL     1      46.497   3.926   7.621  0.00  0.00    +0.000 A 
ATOM     19  C   UNL     1      46.497   2.530   7.705  0.00  0.00    +0.000 A 
ATOM     20  C   UNL     1      45.621   1.889   8.590  0.00  0.00    +0.000 A 
ATOM     21  C   UNL     1      44.761   2.644   9.394  0.00  0.00    +0.000 A 
BRANCH  19  22
ATOM     22  C   UNL     1      47.423   1.773   6.822  0.00  0.00    +0.000 C 
ATOM     23  N   UNL     1      48.448   2.466   6.239  0.00  0.00    +0.000 N 
ATOM     24  O   UNL     1      47.263   0.581   6.592  0.00  0.00    +0.000 OA
ATOM     25  H   UNL     1      48.467   3.474   6.199  0.00  0.00    +0.000 HD
ATOM     26  H   UNL     1      48.996   1.958   5.558  0.00  0.00    +0.000 HD
ENDBRANCH  19  22
ENDBRANCH  15  16
ENDBRANCH   2  15
TORSDOF 6
ENDMDL
MODEL 4
REMARK VINA RESULT:    -7.355      1.508      7.501
REMARK INTER + INTRA:         -11.152
REMARK INTER:                 -10.534
REMARK INTRA:                  -0.618
REMARK UNBOUND:                -1.218
REMARK  Name = 
REMARK  7 active torsions:
REMARK  status: ('A' for Active; 'I' for Inactive)
REMARK    1  A    between atoms: C_1  and  C_2
REMARK    2  A    between atoms: C_2  and  C_3
REMARK    3  A    between atoms: C_2  and  C_13
REMARK    4  A    between atoms: C_3  and  C_4
REMARK    5  A    between atoms: C_7  and  C_8
REMARK    6  A    between atoms: C_17  and  O_18
REMARK    7  A    between atoms: O_18  and  C_19
REMARK                            x       y       z     vdW  Elec       q    Type
REMARK                         _______ _______ _______ _____ _____    ______ ____
ROOT
ATOM      1  C   UNL     1      44.479   6.638  12.319  0.00  0.00    +0.000 C 
ATOM      2  C   UNL     1      45.521   6.495  11.202  0.00  0.00    +0.000 C 
ENDROOT
BRANCH   2   3
ATOM      3  C   UNL     1      45.243   5.257  10.360  0.00  0.00    +0.000 A 
ATOM      4  C   UNL     1      44.321   4.294  10.790  0.00  0.00    +0.000 A 
ATOM      5  C   UNL     1      44.026   3.190   9.984  0.00  0.00    +0.000 A 
ATOM      6  C   UNL     1      44.641   3.034   8.741  0.00  0.00    +0.000 A 
ATOM      7  C   UNL     1      45.567   3.977   8.311  0.00  0.00    +0.000 A 
ATOM      8  C   UNL     1      45.866   5.076   9.115  0.00  0.00    +0.000 A 
BRANCH   7   9
ATOM      9  O   UNL     1      46.204   3.965   7.096  0.00  0.00    +0.000 OA
BRANCH   9  10
ATOM     10  C   UNL     1      46.598   2.700   6.523  0.00  0.00    +0.000 C 
ATOM     11  C   UNL     1      47.950   2.101   6.959  0.00  0.00    +0.000 C 
ATOM     12  N   UNL     1      48.355   1.955   5.552  0.00  0.00    +0.000 NA
ATOM     13  C   UNL     1      47.233   2.802   5.122  0.00  0.00    +0.000 C 
ATOM     14  H   UNL     1      48.310   1.000   5.202  0.00  0.00    +0.000 HD
ENDBRANCH   9  10
ENDBRANCH   7   9
ENDBRANCH   2   3
BRANCH   2  15
ATOM     15  C   UNL     1      46.972   6.445  11.739  0.00  0.00    +0.000 C 
BRANCH  15  16
ATOM     16  C   UNL     1      47.144   5.731  13.058  0.00  0.00    +0.000 A 
ATOM     17  C   UNL     1      46.672   4.419  13.209  0.00  0.00    +0.000 A 
ATOM     18  C   UNL     1      46.826   3.746  14.422  0.00  0.00    +0.000 A 
ATOM     19  C   UNL     1      47.462   4.373  15.498  0.00  0.00    +0.000 A 
ATOM     20  C   UNL     1      47.934   5.683  15.356  0.00  0.00    +0.000 A 
ATOM     21  C   UNL     1      47.782   6.355  14.139  0.00  0.00    +0.000 A 
BRANCH  19  22
ATOM     22  C   UNL     1      47.592   3.620  16.773  0.00  0.00    +0.000 C 
ATOM     23  N   UNL     1      48.848   3.469  17.293  0.00  0.00    +0.000 N 
ATOM     24  O   UNL     1      46.621   3.119  17.327  0.00  0.00    +0.000 OA
ATOM     25  H   UNL     1      49.683   3.640  16.752  0.00  0.00    +0.000 HD
ATOM     26  H   UNL     1      48.925   2.860  18.097  0.00  0.00    +0.000 HD
ENDBRANCH  19  22
ENDBRANCH  15  16
ENDBRANCH   2  15
TORSDOF 6
ENDMDL
MODEL 5
REMARK VINA RESULT:    -6.884      3.079      7.699
REMARK INTER + INTRA:         -10.517
REMARK INTER:                  -9.649
REMARK INTRA:                  -0.868
REMARK UNBOUND:                -1.218
REMARK  Name = 
REMARK  7 active torsions:
REMARK  status: ('A' for Active; 'I' for Inactive)
REMARK    1  A    between atoms: C_1  and  C_2
REMARK    2  A    between atoms: C_2  and  C_3
REMARK    3  A    between atoms: C_2  and  C_13
REMARK    4  A    between atoms: C_3  and  C_4
REMARK    5  A    between atoms: C_7  and  C_8
REMARK    6  A    between atoms: C_17  and  O_18
REMARK    7  A    between atoms: O_18  and  C_19
REMARK                            x       y       z     vdW  Elec       q    Type
REMARK                         _______ _______ _______ _____ _____    ______ ____
ROOT
ATOM      1  C   UNL     1      44.235   7.122  11.153  0.00  0.00    +0.000 C 
ATOM      2  C   UNL     1      45.508   6.270  11.063  0.00  0.00    +0.000 C 
ENDROOT
BRANCH   2   3
ATOM      3  C   UNL     1      45.246   4.992  10.277  0.00  0.00    +0.000 A 
ATOM      4  C   UNL     1      44.468   3.964  10.824  0.00  0.00    +0.000 A 
ATOM      5  C   UNL     1      44.183   2.819  10.075  0.00  0.00    +0.000 A 
ATOM      6  C   UNL     1      44.665   2.685   8.772  0.00  0.00    +0.000 A 
ATOM      7  C   UNL     1      45.449   3.694   8.224  0.00  0.00    +0.000 A 
ATOM      8  C   UNL     1      45.738   4.834   8.972  0.00  0.00    +0.000 A 
BRANCH   7   9
ATOM      9  O   UNL     1      45.944   3.705   6.945  0.00  0.00    +0.000 OA
BRANCH   9  10
ATOM     10  C   UNL     1      46.498   2.490   6.396  0.00  0.00    +0.000 C 
ATOM     11  C   UNL     1      47.775   1.923   7.045  0.00  0.00    +0.000 C 
ATOM     12  N   UNL     1      48.437   1.871   5.732  0.00  0.00    +0.000 NA
ATOM     13  C   UNL     1      47.372   2.695   5.142  0.00  0.00    +0.000 C 
ATOM     14  H   UNL     1      48.504   0.936   5.334  0.00  0.00    +0.000 HD
ENDBRANCH   9  10
ENDBRANCH   7   9
ENDBRANCH   2   3
BRANCH   2  15
ATOM     15  C   UNL     1      46.094   5.919  12.451  0.00  0.00    +0.000 C 
BRANCH  15  16
ATOM     16  C   UNL     1      47.415   6.576  12.774  0.00  0.00    +0.000 A 
ATOM     17  C   UNL     1      47.960   6.455  14.061  0.00  0.00    +0.000 A 
ATOM     18  C   UNL     1      49.180   7.054  14.373  0.00  0.00    +0.000 A 
ATOM     19  C   UNL     1      49.878   7.776  13.399  0.00  0.00    +0.000 A 
ATOM     20  C   UNL     1      49.340   7.902  12.113  0.00  0.00    +0.000 A 
ATOM     21  C   UNL     1      48.118   7.299  11.801  0.00  0.00    +0.000 A 
BRANCH  19  22
ATOM     22  C   UNL     1      51.168   8.406  13.783  0.00  0.00    +0.000 C 
ATOM     23  N   UNL     1      52.251   8.165  12.983  0.00  0.00    +0.000 N 
ATOM     24  O   UNL     1      51.277   9.089  14.794  0.00  0.00    +0.000 OA
ATOM     25  H   UNL     1      52.267   7.422  12.301  0.00  0.00    +0.000 HD
ATOM     26  H   UNL     1      53.140   8.510  13.323  0.00  0.00    +0.000 HD
ENDBRANCH  19  22
ENDBRANCH  15  16
ENDBRANCH   2  15
TORSDOF 6
ENDMDL
MODEL 6
REMARK VINA RESULT:    -6.330      2.816      4.414
REMARK INTER + INTRA:          -9.768
REMARK INTER:                  -8.824
REMARK INTRA:                  -0.945
REMARK UNBOUND:                -1.218
REMARK  Name = 
REMARK  7 active torsions:
REMARK  status: ('A' for Active; 'I' for Inactive)
REMARK    1  A    between atoms: C_1  and  C_2
REMARK    2  A    between atoms: C_2  and  C_3
REMARK    3  A    between atoms: C_2  and  C_13
REMARK    4  A    between atoms: C_3  and  C_4
REMARK    5  A    between atoms: C_7  and  C_8
REMARK    6  A    between atoms: C_17  and  O_18
REMARK    7  A    between atoms: O_18  and  C_19
REMARK                            x       y       z     vdW  Elec       q    Type
REMARK                         _______ _______ _______ _____ _____    ______ ____
ROOT
ATOM      1  C   UNL     1      48.475   7.275  12.001  0.00  0.00    +0.000 C 
ATOM      2  C   UNL     1      47.760   8.204  12.989  0.00  0.00    +0.000 C 
ENDROOT
BRANCH   2   3
ATOM      3  C   UNL     1      48.210   7.923  14.417  0.00  0.00    +0.000 A 
ATOM      4  C   UNL     1      48.236   8.946  15.372  0.00  0.00    +0.000 A 
ATOM      5  C   UNL     1      48.593   8.669  16.695  0.00  0.00    +0.000 A 
ATOM      6  C   UNL     1      48.925   7.370  17.083  0.00  0.00    +0.000 A 
ATOM      7  C   UNL     1      48.915   6.349  16.140  0.00  0.00    +0.000 A 
ATOM      8  C   UNL     1      48.564   6.626  14.819  0.00  0.00    +0.000 A 
BRANCH   7   9
ATOM      9  O   UNL     1      49.175   5.028  16.400  0.00  0.00    +0.000 OA
BRANCH   9  10
ATOM     10  C   UNL     1      48.489   4.380  17.493  0.00  0.00    +0.000 C 
ATOM     11  C   UNL     1      48.421   2.840  17.490  0.00  0.00    +0.000 C 
ATOM     12  N   UNL     1      46.960   2.889  17.655  0.00  0.00    +0.000 NA
ATOM     13  C   UNL     1      46.955   4.327  17.343  0.00  0.00    +0.000 C 
ATOM     14  H   UNL     1      46.638   2.669  18.595  0.00  0.00    +0.000 HD
ENDBRANCH   9  10
ENDBRANCH   7   9
ENDBRANCH   2   3
BRANCH   2  15
ATOM     15  C   UNL     1      46.218   8.105  12.899  0.00  0.00    +0.000 C 
BRANCH  15  16
ATOM     16  C   UNL     1      45.688   6.770  12.432  0.00  0.00    +0.000 A 
ATOM     17  C   UNL     1      45.438   6.556  11.069  0.00  0.00    +0.000 A 
ATOM     18  C   UNL     1      44.951   5.326  10.622  0.00  0.00    +0.000 A 
ATOM     19  C   UNL     1      44.717   4.291  11.532  0.00  0.00    +0.000 A 
ATOM     20  C   UNL     1      44.963   4.497  12.895  0.00  0.00    +0.000 A 
ATOM     21  C   UNL     1      45.454   5.729  13.340  0.00  0.00    +0.000 A 
BRANCH  19  22
ATOM     22  C   UNL     1      44.187   3.004  11.010  0.00  0.00    +0.000 C 
ATOM     23  N   UNL     1      44.900   2.380  10.024  0.00  0.00    +0.000 N 
ATOM     24  O   UNL     1      43.134   2.528  11.417  0.00  0.00    +0.000 OA
ATOM     25  H   UNL     1      45.619   2.851   9.494  0.00  0.00    +0.000 HD
ATOM     26  H   UNL     1      44.465   1.568   9.608  0.00  0.00    +0.000 HD
ENDBRANCH  19  22
ENDBRANCH  15  16
ENDBRANCH   2  15
TORSDOF 6
ENDMDL
MODEL 7
REMARK VINA RESULT:    -6.138      3.022      7.395
REMARK INTER + INTRA:          -9.509
REMARK INTER:                  -8.844
REMARK INTRA:                  -0.665
REMARK UNBOUND:                -1.218
REMARK  Name = 
REMARK  7 active torsions:
REMARK  status: ('A' for Active; 'I' for Inactive)
REMARK    1  A    between atoms: C_1  and  C_2
REMARK    2  A    between atoms: C_2  and  C_3
REMARK    3  A    between atoms: C_2  and  C_13
REMARK    4  A    between atoms: C_3  and  C_4
REMARK    5  A    between atoms: C_7  and  C_8
REMARK    6  A    between atoms: C_17  and  O_18
REMARK    7  A    between atoms: O_18  and  C_19
REMARK                            x       y       z     vdW  Elec       q    Type
REMARK                         _______ _______ _______ _____ _____    ______ ____
ROOT
ATOM      1  C   UNL     1      49.797   8.160  11.649  0.00  0.00    +0.000 C 
ATOM      2  C   UNL     1      48.906   7.307  12.561  0.00  0.00    +0.000 C 
ENDROOT
BRANCH   2   3
ATOM      3  C   UNL     1      47.435   7.506  12.217  0.00  0.00    +0.000 A 
ATOM      4  C   UNL     1      46.810   8.738  12.445  0.00  0.00    +0.000 A 
ATOM      5  C   UNL     1      45.476   8.932  12.073  0.00  0.00    +0.000 A 
ATOM      6  C   UNL     1      44.751   7.905  11.467  0.00  0.00    +0.000 A 
ATOM      7  C   UNL     1      45.359   6.673  11.249  0.00  0.00    +0.000 A 
ATOM      8  C   UNL     1      46.687   6.477  11.624  0.00  0.00    +0.000 A 
BRANCH   7   9
ATOM      9  O   UNL     1      44.775   5.602  10.624  0.00  0.00    +0.000 OA
BRANCH   9  10
ATOM     10  C   UNL     1      44.502   4.407  11.388  0.00  0.00    +0.000 C 
ATOM     11  C   UNL     1      44.169   3.116  10.614  0.00  0.00    +0.000 C 
ATOM     12  N   UNL     1      42.941   2.941  11.407  0.00  0.00    +0.000 NA
ATOM     13  C   UNL     1      43.061   4.310  11.930  0.00  0.00    +0.000 C 
ATOM     14  H   UNL     1      43.006   2.218  12.121  0.00  0.00    +0.000 HD
ENDBRANCH   9  10
ENDBRANCH   7   9
ENDBRANCH   2   3
BRANCH   2  15
ATOM     15  C   UNL     1      49.134   7.597  14.064  0.00  0.00    +0.000 C 
BRANCH  15  16
ATOM     16  C   UNL     1      48.730   6.483  15.000  0.00  0.00    +0.000 A 
ATOM     17  C   UNL     1      49.333   6.377  16.262  0.00  0.00    +0.000 A 
ATOM     18  C   UNL     1      48.967   5.355  17.138  0.00  0.00    +0.000 A 
ATOM     19  C   UNL     1      47.986   4.429  16.768  0.00  0.00    +0.000 A 
ATOM     20  C   UNL     1      47.380   4.527  15.510  0.00  0.00    +0.000 A 
ATOM     21  C   UNL     1      47.746   5.554  14.634  0.00  0.00    +0.000 A 
BRANCH  19  22
ATOM     22  C   UNL     1      47.639   3.351  17.731  0.00  0.00    +0.000 C 
ATOM     23  N   UNL     1      48.470   3.168  18.801  0.00  0.00    +0.000 N 
ATOM     24  O   UNL     1      46.666   2.626  17.563  0.00  0.00    +0.000 OA
ATOM     25  H   UNL     1      49.397   3.564  18.842  0.00  0.00    +0.000 HD
ATOM     26  H   UNL     1      48.277   2.360  19.380  0.00  0.00    +0.000 HD
ENDBRANCH  19  22
ENDBRANCH  15  16
ENDBRANCH   2  15
TORSDOF 6
ENDMDL
MODEL 8
REMARK VINA RESULT:    -6.042      3.425      5.309
REMARK INTER + INTRA:          -9.379
REMARK INTER:                  -8.799
REMARK INTRA:                  -0.580
REMARK UNBOUND:                -1.218
REMARK  Name = 
REMARK  7 active torsions:
REMARK  status: ('A' for Active; 'I' for Inactive)
REMARK    1  A    between atoms: C_1  and  C_2
REMARK    2  A    between atoms: C_2  and  C_3
REMARK    3  A    between atoms: C_2  and  C_13
REMARK    4  A    between atoms: C_3  and  C_4
REMARK    5  A    between atoms: C_7  and  C_8
REMARK    6  A    between atoms: C_17  and  O_18
REMARK    7  A    between atoms: O_18  and  C_19
REMARK                            x       y       z     vdW  Elec       q    Type
REMARK                         _______ _______ _______ _____ _____    ______ ____
ROOT
ATOM      1  C   UNL     1      48.868   9.257  14.285  0.00  0.00    +0.000 C 
ATOM      2  C   UNL     1      48.453   7.781  14.347  0.00  0.00    +0.000 C 
ENDROOT
BRANCH   2   3
ATOM      3  C   UNL     1      49.341   7.011  15.314  0.00  0.00    +0.000 A 
ATOM      4  C   UNL     1      50.726   7.222  15.334  0.00  0.00    +0.000 A 
ATOM      5  C   UNL     1      51.529   6.555  16.265  0.00  0.00    +0.000 A 
ATOM      6  C   UNL     1      50.963   5.675  17.188  0.00  0.00    +0.000 A 
ATOM      7  C   UNL     1      49.591   5.448  17.168  0.00  0.00    +0.000 A 
ATOM      8  C   UNL     1      48.791   6.108  16.237  0.00  0.00    +0.000 A 
BRANCH   7   9
ATOM      9  O   UNL     1      48.908   4.646  18.047  0.00  0.00    +0.000 OA
BRANCH   9  10
ATOM     10  C   UNL     1      48.958   3.213  17.873  0.00  0.00    +0.000 C 
ATOM     11  C   UNL     1      50.242   2.604  17.276  0.00  0.00    +0.000 C 
ATOM     12  N   UNL     1      49.449   1.896  16.258  0.00  0.00    +0.000 NA
ATOM     13  C   UNL     1      48.265   2.699  16.596  0.00  0.00    +0.000 C 
ATOM     14  H   UNL     1      49.338   0.900  16.434  0.00  0.00    +0.000 HD
ENDBRANCH   9  10
ENDBRANCH   7   9
ENDBRANCH   2   3
BRANCH   2  15
ATOM     15  C   UNL     1      48.473   7.094  12.960  0.00  0.00    +0.000 C 
BRANCH  15  16
ATOM     16  C   UNL     1      47.270   6.234  12.653  0.00  0.00    +0.000 A 
ATOM     17  C   UNL     1      46.913   5.195  13.526  0.00  0.00    +0.000 A 
ATOM     18  C   UNL     1      45.802   4.395  13.257  0.00  0.00    +0.000 A 
ATOM     19  C   UNL     1      45.028   4.627  12.116  0.00  0.00    +0.000 A 
ATOM     20  C   UNL     1      45.379   5.661  11.239  0.00  0.00    +0.000 A 
ATOM     21  C   UNL     1      46.490   6.464  11.512  0.00  0.00    +0.000 A 
BRANCH  19  22
ATOM     22  C   UNL     1      43.862   3.740  11.866  0.00  0.00    +0.000 C 
ATOM     23  N   UNL     1      43.805   2.561  12.557  0.00  0.00    +0.000 N 
ATOM     24  O   UNL     1      42.997   4.028  11.048  0.00  0.00    +0.000 OA
ATOM     25  H   UNL     1      44.604   2.175  13.038  0.00  0.00    +0.000 HD
ATOM     26  H   UNL     1      43.065   1.925  12.289  0.00  0.00    +0.000 HD
ENDBRANCH  19  22
ENDBRANCH  15  16
ENDBRANCH   2  15
TORSDOF 6
ENDMDL
MODEL 9
REMARK VINA RESULT:    -5.925      4.778      7.017
REMARK INTER + INTRA:          -9.221
REMARK INTER:                  -8.251
REMARK INTRA:                  -0.971
REMARK UNBOUND:                -1.218
REMARK  Name = 
REMARK  7 active torsions:
REMARK  status: ('A' for Active; 'I' for Inactive)
REMARK    1  A    between atoms: C_1  and  C_2
REMARK    2  A    between atoms: C_2  and  C_3
REMARK    3  A    between atoms: C_2  and  C_13
REMARK    4  A    between atoms: C_3  and  C_4
REMARK    5  A    between atoms: C_7  and  C_8
REMARK    6  A    between atoms: C_17  and  O_18
REMARK    7  A    between atoms: O_18  and  C_19
REMARK                            x       y       z     vdW  Elec       q    Type
REMARK                         _______ _______ _______ _____ _____    ______ ____
ROOT
ATOM      1  C   UNL     1      49.491   7.952  12.447  0.00  0.00    +0.000 C 
ATOM      2  C   UNL     1      48.009   7.931  12.051  0.00  0.00    +0.000 C 
ENDROOT
BRANCH   2   3
ATOM      3  C   UNL     1      47.478   9.347  11.874  0.00  0.00    +0.000 A 
ATOM      4  C   UNL     1      48.337  10.390  11.505  0.00  0.00    +0.000 A 
ATOM      5  C   UNL     1      47.833  11.676  11.286  0.00  0.00    +0.000 A 
ATOM      6  C   UNL     1      46.469  11.937  11.429  0.00  0.00    +0.000 A 
ATOM      7  C   UNL     1      45.611  10.912  11.808  0.00  0.00    +0.000 A 
ATOM      8  C   UNL     1      46.113   9.631  12.031  0.00  0.00    +0.000 A 
BRANCH   7   9
ATOM      9  O   UNL     1      44.250  11.026  11.938  0.00  0.00    +0.000 OA
BRANCH   9  10
ATOM     10  C   UNL     1      43.429  11.018  10.750  0.00  0.00    +0.000 C 
ATOM     11  C   UNL     1      42.130  11.848  10.765  0.00  0.00    +0.000 C 
ATOM     12  N   UNL     1      41.356  10.671  10.340  0.00  0.00    +0.000 NA
ATOM     13  C   UNL     1      42.501   9.793  10.622  0.00  0.00    +0.000 C 
ATOM     14  H   UNL     1      41.078  10.686   9.361  0.00  0.00    +0.000 HD
ENDBRANCH   9  10
ENDBRANCH   7   9
ENDBRANCH   2   3
BRANCH   2  15
ATOM     15  C   UNL     1      47.128   7.166  13.069  0.00  0.00    +0.000 C 
BRANCH  15  16
ATOM     16  C   UNL     1      46.320   6.030  12.490  0.00  0.00    +0.000 A 
ATOM     17  C   UNL     1      46.036   4.903  13.276  0.00  0.00    +0.000 A 
ATOM     18  C   UNL     1      45.288   3.846  12.755  0.00  0.00    +0.000 A 
ATOM     19  C   UNL     1      44.806   3.905  11.444  0.00  0.00    +0.000 A 
ATOM     20  C   UNL     1      45.087   5.025  10.652  0.00  0.00    +0.000 A 
ATOM     21  C   UNL     1      45.834   6.084  11.177  0.00  0.00    +0.000 A 
BRANCH  19  22
ATOM     22  C   UNL     1      44.025   2.750  10.930  0.00  0.00    +0.000 C 
ATOM     23  N   UNL     1      44.500   2.109   9.819  0.00  0.00    +0.000 N 
ATOM     24  O   UNL     1      42.975   2.398  11.454  0.00  0.00    +0.000 OA
ATOM     25  H   UNL     1      45.205   2.513   9.221  0.00  0.00    +0.000 HD
ATOM     26  H   UNL     1      43.896   1.401   9.423  0.00  0.00    +0.000 HD
ENDBRANCH  19  22
ENDBRANCH  15  16
ENDBRANCH   2  15
TORSDOF 6
ENDMDL
