MODEL 1
REMARK VINA RESULT:    -7.181      0.000      0.000
REMARK INTER + INTRA:         -10.745
REMARK INTER:                 -10.120
REMARK INTRA:                  -0.625
REMARK UNBOUND:                -0.625
REMARK  Name = 
REMARK  9 active torsions:
REMARK  status: ('A' for Active; 'I' for Inactive)
REMARK    1  A    between atoms: C_1  and  C_2
REMARK    2  A    between atoms: C_2  and  C_3
REMARK    3  A    between atoms: C_6  and  C_7
REMARK    4  A    between atoms: C_7  and  O_8
REMARK    5  A    between atoms: O_8  and  C_9
REMARK    6  A    between atoms: C_13  and  C_14
REMARK    7  A    between atoms: C_14  and  N_15
REMARK    8  A    between atoms: C_18  and  C_19
REMARK    9  A    between atoms: C_19  and  N_20
REMARK                            x       y       z     vdW  Elec       q    Type
REMARK                         _______ _______ _______ _____ _____    ______ ____
ROOT
ATOM      1  C   UNL     1      46.976   6.364  12.900  0.00  0.00    +0.000 A 
ATOM      2  C   UNL     1      46.535   6.887  11.681  0.00  0.00    +0.000 A 
ATOM      3  N   UNL     1      45.573   6.344  10.908  0.00  0.00    +0.000 NA
ATOM      4  C   UNL     1      44.978   5.215  11.359  0.00  0.00    +0.000 A 
ATOM      5  C   UNL     1      45.330   4.631  12.576  0.00  0.00    +0.000 A 
ATOM      6  C   UNL     1      46.355   5.188  13.359  0.00  0.00    +0.000 A 
ENDROOT
BRANCH   1   8
ATOM      7  C   UNL     1      49.283   7.310  12.649  0.00  0.00    +0.000 C 
ATOM      8  C   UNL     1      48.120   7.053  13.597  0.00  0.00    +0.000 C 
ENDBRANCH   1   8
BRANCH   4   9
ATOM      9  C   UNL     1      43.964   4.551  10.458  0.00  0.00    +0.000 C 
BRANCH   9  10
ATOM     10  O   UNL     1      44.401   4.567   9.098  0.00  0.00    +0.000 OA
BRANCH  10  11
ATOM     11  C   UNL     1      45.068   3.448   8.666  0.00  0.00    +0.000 A 
ATOM     12  C   UNL     1      44.904   2.155   9.164  0.00  0.00    +0.000 A 
ATOM     13  C   UNL     1      45.622   1.094   8.610  0.00  0.00    +0.000 A 
ATOM     14  C   UNL     1      46.506   1.317   7.555  0.00  0.00    +0.000 A 
ATOM     15  C   UNL     1      46.704   2.610   7.053  0.00  0.00    +0.000 A 
ATOM     16  C   UNL     1      45.969   3.667   7.619  0.00  0.00    +0.000 A 
BRANCH  15  17
ATOM     17  C   UNL     1      47.596   2.877   5.863  0.00  0.00    +0.000 C 
BRANCH  17  18
ATOM     18  N   UNL     1      48.598   1.836   5.642  0.00  0.00    +0.000 NA
ATOM     19  H   UNL     1      48.487   1.122   6.361  0.00  0.00    +0.000 HD
ATOM     20  H   UNL     1      49.524   2.237   5.776  0.00  0.00    +0.000 HD
ENDBRANCH  17  18
ENDBRANCH  15  17
ENDBRANCH  10  11
ENDBRANCH   9  10
ENDBRANCH   4   9
BRANCH   6  21
ATOM     21  C   UNL     1      46.774   4.449  14.610  0.00  0.00    +0.000 C 
BRANCH  21  22
ATOM     22  N   UNL     1      47.368   3.152  14.305  0.00  0.00    +0.000 NA
ATOM     23  H   UNL     1      48.113   2.963  14.974  0.00  0.00    +0.000 HD
ATOM     24  H   UNL     1      47.808   3.190  13.387  0.00  0.00    +0.000 HD
ENDBRANCH  21  22
ENDBRANCH   6  21
TORSDOF 8
ENDMDL
MODEL 2
REMARK VINA RESULT:    -6.727      1.562      6.635
REMARK INTER + INTRA:         -10.104
REMARK INTER:                  -9.494
REMARK INTRA:                  -0.610
REMARK UNBOUND:                -0.625
REMARK  Name = 
REMARK  9 active torsions:
REMARK  status: ('A' for Active; 'I' for Inactive)
REMARK    1  A    between atoms: C_1  and  C_2
REMARK    2  A    between atoms: C_2  and  C_3
REMARK    3  A    between atoms: C_6  and  C_7
REMARK    4  A    between atoms: C_7  and  O_8
REMARK    5  A    between atoms: O_8  and  C_9
REMARK    6  A    between atoms: C_13  and  C_14
REMARK    7  A    between atoms: C_14  and  N_15
REMARK    8  A    between atoms: C_18  and  C_19
REMARK    9  A    between atoms: C_19  and  N_20
REMARK                            x       y       z     vdW  Elec       q    Type
REMARK                         _______ _______ _______ _____ _____    ______ ____
ROOT
ATOM      1  C   UNL     1      46.157   1.943   7.953  0.00  0.00    +0.000 A 
ATOM      2  C   UNL     1      45.209   1.508   8.884  0.00  0.00    +0.000 A 
ATOM      3  N   UNL     1      44.382   2.313   9.580  0.00  0.00    +0.000 NA
ATOM      4  C   UNL     1      44.465   3.643   9.343  0.00  0.00    +0.000 A 
ATOM      5  C   UNL     1      45.360   4.172   8.414  0.00  0.00    +0.000 A 
ATOM      6  C   UNL     1      46.239   3.327   7.716  0.00  0.00    +0.000 A 
ENDROOT
BRANCH   1   8
ATOM      7  C   UNL     1      46.616  -0.502   7.656  0.00  0.00    +0.000 C 
ATOM      8  C   UNL     1      47.060   0.915   7.323  0.00  0.00    +0.000 C 
ENDBRANCH   1   8
BRANCH   4   9
ATOM      9  C   UNL     1      43.606   4.558  10.183  0.00  0.00    +0.000 C 
BRANCH   9  10
ATOM     10  O   UNL     1      43.893   4.395  11.573  0.00  0.00    +0.000 OA
BRANCH  10  11
ATOM     11  C   UNL     1      44.996   5.061  12.043  0.00  0.00    +0.000 A 
ATOM     12  C   UNL     1      45.537   6.229  11.504  0.00  0.00    +0.000 A 
ATOM     13  C   UNL     1      46.648   6.828  12.101  0.00  0.00    +0.000 A 
ATOM     14  C   UNL     1      47.224   6.265  13.240  0.00  0.00    +0.000 A 
ATOM     15  C   UNL     1      46.712   5.080  13.785  0.00  0.00    +0.000 A 
ATOM     16  C   UNL     1      45.590   4.492  13.175  0.00  0.00    +0.000 A 
BRANCH  15  17
ATOM     17  C   UNL     1      47.264   4.485  15.059  0.00  0.00    +0.000 C 
BRANCH  17  18
ATOM     18  N   UNL     1      47.643   3.080  14.929  0.00  0.00    +0.000 NA
ATOM     19  H   UNL     1      47.043   2.525  15.537  0.00  0.00    +0.000 HD
ATOM     20  H   UNL     1      48.592   2.962  15.278  0.00  0.00    +0.000 HD
ENDBRANCH  17  18
ENDBRANCH  15  17
ENDBRANCH  10  11
ENDBRANCH   9  10
ENDBRANCH   4   9
BRANCH   6  21
ATOM     21  C   UNL     1      47.266   3.965   6.807  0.00  0.00    +0.000 C 
BRANCH  21  22
ATOM     22  N   UNL     1      46.878   3.883   5.403  0.00  0.00    +0.000 NA
ATOM     23  H   UNL     1      47.586   4.350   4.836  0.00  0.00    +0.000 HD
ATOM     24  H   UNL     1      46.011   4.397   5.262  0.00  0.00    +0.000 HD
ENDBRANCH  21  22
ENDBRANCH   6  21
TORSDOF 8
ENDMDL
MODEL 3
REMARK VINA RESULT:    -6.665      1.515      2.659
REMARK INTER + INTRA:         -10.017
REMARK INTER:                  -9.818
REMARK INTRA:                  -0.199
REMARK UNBOUND:                -0.625
REMARK  Name = 
REMARK  9 active torsions:
REMARK  status: ('A' for Active; 'I' for Inactive)
REMARK    1  A    between atoms: C_1  and  C_2
REMARK    2  A    between atoms: C_2  and  C_3
REMARK    3  A    between atoms: C_6  and  C_7
REMARK    4  A    between atoms: C_7  and  O_8
REMARK    5  A    between atoms: O_8  and  C_9
REMARK    6  A    between atoms: C_13  and  C_14
REMARK    7  A    between atoms: C_14  and  N_15
REMARK    8  A    between atoms: C_18  and  C_19
REMARK    9  A    between atoms: C_19  and  N_20
REMARK                            x       y       z     vdW  Elec       q    Type
REMARK                         _______ _______ _______ _____ _____    ______ ____
ROOT
ATOM      1  C   UNL     1      46.720   5.072  13.649  0.00  0.00    +0.000 A 
ATOM      2  C   UNL     1      46.328   3.730  13.676  0.00  0.00    +0.000 A 
ATOM      3  N   UNL     1      45.394   3.180  12.875  0.00  0.00    +0.000 NA
ATOM      4  C   UNL     1      44.805   3.988  11.962  0.00  0.00    +0.000 A 
ATOM      5  C   UNL     1      45.147   5.335  11.840  0.00  0.00    +0.000 A 
ATOM      6  C   UNL     1      46.100   5.905  12.700  0.00  0.00    +0.000 A 
ENDROOT
BRANCH   1   8
ATOM      7  C   UNL     1      47.675   4.693  15.934  0.00  0.00    +0.000 C 
ATOM      8  C   UNL     1      47.721   5.541  14.672  0.00  0.00    +0.000 C 
ENDBRANCH   1   8
BRANCH   4   9
ATOM      9  C   UNL     1      43.695   3.402  11.122  0.00  0.00    +0.000 C 
BRANCH   9  10
ATOM     10  O   UNL     1      44.199   2.401  10.236  0.00  0.00    +0.000 OA
BRANCH  10  11
ATOM     11  C   UNL     1      44.973   2.852   9.196  0.00  0.00    +0.000 A 
ATOM     12  C   UNL     1      45.045   4.169   8.741  0.00  0.00    +0.000 A 
ATOM     13  C   UNL     1      45.902   4.502   7.690  0.00  0.00    +0.000 A 
ATOM     14  C   UNL     1      46.692   3.523   7.089  0.00  0.00    +0.000 A 
ATOM     15  C   UNL     1      46.620   2.190   7.514  0.00  0.00    +0.000 A 
ATOM     16  C   UNL     1      45.755   1.872   8.576  0.00  0.00    +0.000 A 
BRANCH  15  17
ATOM     17  C   UNL     1      47.515   1.119   6.936  0.00  0.00    +0.000 C 
BRANCH  17  18
ATOM     18  N   UNL     1      48.454   1.622   5.936  0.00  0.00    +0.000 NA
ATOM     19  H   UNL     1      49.012   2.362   6.360  0.00  0.00    +0.000 HD
ATOM     20  H   UNL     1      47.928   2.057   5.181  0.00  0.00    +0.000 HD
ENDBRANCH  17  18
ENDBRANCH  15  17
ENDBRANCH  10  11
ENDBRANCH   9  10
ENDBRANCH   4   9
BRANCH   6  21
ATOM     21  C   UNL     1      46.347   7.394  12.599  0.00  0.00    +0.000 C 
BRANCH  21  22
ATOM     22  N   UNL     1      45.238   8.169  13.146  0.00  0.00    +0.000 NA
ATOM     23  H   UNL     1      44.943   8.857  12.454  0.00  0.00    +0.000 HD
ATOM     24  H   UNL     1      45.561   8.696  13.955  0.00  0.00    +0.000 HD
ENDBRANCH  21  22
ENDBRANCH   6  21
TORSDOF 8
ENDMDL
MODEL 4
REMARK VINA RESULT:    -6.428      1.981      6.638
REMARK INTER + INTRA:          -9.683
REMARK INTER:                  -9.026
REMARK INTRA:                  -0.657
REMARK UNBOUND:                -0.625
REMARK  Name = 
REMARK  9 active torsions:
REMARK  status: ('A' for Active; 'I' for Inactive)
REMARK    1  A    between atoms: C_1  and  C_2
REMARK    2  A    between atoms: C_2  and  C_3
REMARK    3  A    between atoms: C_6  and  C_7
REMARK    4  A    between atoms: C_7  and  O_8
REMARK    5  A    between atoms: O_8  and  C_9
REMARK    6  A    between atoms: C_13  and  C_14
REMARK    7  A    between atoms: C_14  and  N_15
REMARK    8  A    between atoms: C_18  and  C_19
REMARK    9  A    between atoms: C_19  and  N_20
REMARK                            x       y       z     vdW  Elec       q    Type
REMARK                         _______ _______ _______ _____ _____    ______ ____
ROOT
ATOM      1  C   UNL     1      46.161   1.949   7.961  0.00  0.00    +0.000 A 
ATOM      2  C   UNL     1      45.216   1.527   8.901  0.00  0.00    +0.000 A 
ATOM      3  N   UNL     1      44.404   2.344   9.602  0.00  0.00    +0.000 NA
ATOM      4  C   UNL     1      44.501   3.672   9.361  0.00  0.00    +0.000 A 
ATOM      5  C   UNL     1      45.394   4.188   8.422  0.00  0.00    +0.000 A 
ATOM      6  C   UNL     1      46.258   3.331   7.719  0.00  0.00    +0.000 A 
ENDROOT
BRANCH   1   8
ATOM      7  C   UNL     1      46.585  -0.503   7.661  0.00  0.00    +0.000 C 
ATOM      8  C   UNL     1      47.047   0.908   7.327  0.00  0.00    +0.000 C 
ENDBRANCH   1   8
BRANCH   4   9
ATOM      9  C   UNL     1      43.659   4.600  10.205  0.00  0.00    +0.000 C 
BRANCH   9  10
ATOM     10  O   UNL     1      43.746   4.252  11.588  0.00  0.00    +0.000 OA
BRANCH  10  11
ATOM     11  C   UNL     1      44.850   4.716  12.258  0.00  0.00    +0.000 A 
ATOM     12  C   UNL     1      45.787   3.933  12.933  0.00  0.00    +0.000 A 
ATOM     13  C   UNL     1      46.888   4.531  13.548  0.00  0.00    +0.000 A 
ATOM     14  C   UNL     1      47.061   5.913  13.491  0.00  0.00    +0.000 A 
ATOM     15  C   UNL     1      46.121   6.723  12.839  0.00  0.00    +0.000 A 
ATOM     16  C   UNL     1      45.020   6.104  12.220  0.00  0.00    +0.000 A 
BRANCH  15  17
ATOM     17  C   UNL     1      46.316   8.214  12.694  0.00  0.00    +0.000 C 
BRANCH  17  18
ATOM     18  N   UNL     1      45.117   8.990  13.005  0.00  0.00    +0.000 NA
ATOM     19  H   UNL     1      44.467   8.392  13.513  0.00  0.00    +0.000 HD
ATOM     20  H   UNL     1      44.654   9.242  12.134  0.00  0.00    +0.000 HD
ENDBRANCH  17  18
ENDBRANCH  15  17
ENDBRANCH  10  11
ENDBRANCH   9  10
ENDBRANCH   4   9
BRANCH   6  21
ATOM     21  C   UNL     1      47.284   3.955   6.800  0.00  0.00    +0.000 C 
BRANCH  21  22
ATOM     22  N   UNL     1      46.871   3.897   5.402  0.00  0.00    +0.000 NA
ATOM     23  H   UNL     1      46.271   3.084   5.268  0.00  0.00    +0.000 HD
ATOM     24  H   UNL     1      47.690   3.750   4.814  0.00  0.00    +0.000 HD
ENDBRANCH  21  22
ENDBRANCH   6  21
TORSDOF 8
ENDMDL
MODEL 5
REMARK VINA RESULT:    -6.348      1.675      2.352
REMARK INTER + INTRA:          -9.571
REMARK INTER:                  -9.590
REMARK INTRA:                   0.019
REMARK UNBOUND:                -0.625
REMARK  Name = 
REMARK  9 active torsions:
REMARK  status: ('A' for Active; 'I' for Inactive)
REMARK    1  A    between atoms: C_1  and  C_2
REMARK    2  A    between atoms: C_2  and  C_3
REMARK    3  A    between atoms: C_6  and  C_7
REMARK    4  A    between atoms: C_7  and  O_8
REMARK    5  A    between atoms: O_8  and  C_9
REMARK    6  A    between atoms: C_13  and  C_14
REMARK    7  A    between atoms: C_14  and  N_15
REMARK    8  A    between atoms: C_18  and  C_19
REMARK    9  A    between atoms: C_19  and  N_20
REMARK                            x       y       z     vdW  Elec       q    Type
REMARK                         _______ _______ _______ _____ _____    ______ ____
ROOT
ATOM      1  C   UNL     1      45.564   7.002  12.790  0.00  0.00    +0.000 A 
ATOM      2  C   UNL     1      44.356   6.737  12.137  0.00  0.00    +0.000 A 
ATOM      3  N   UNL     1      43.870   5.507  11.879  0.00  0.00    +0.000 NA
ATOM      4  C   UNL     1      44.600   4.449  12.303  0.00  0.00    +0.000 A 
ATOM      5  C   UNL     1      45.805   4.611  12.987  0.00  0.00    +0.000 A 
ATOM      6  C   UNL     1      46.319   5.897  13.223  0.00  0.00    +0.000 A 
ENDROOT
BRANCH   1   8
ATOM      7  C   UNL     1      45.094   9.376  12.139  0.00  0.00    +0.000 C 
ATOM      8  C   UNL     1      46.001   8.438  12.923  0.00  0.00    +0.000 C 
ENDBRANCH   1   8
BRANCH   4   9
ATOM      9  C   UNL     1      44.107   3.068  11.940  0.00  0.00    +0.000 C 
BRANCH   9  10
ATOM     10  O   UNL     1      43.607   3.040  10.602  0.00  0.00    +0.000 OA
BRANCH  10  11
ATOM     11  C   UNL     1      44.524   3.284   9.611  0.00  0.00    +0.000 A 
ATOM     12  C   UNL     1      44.869   4.538   9.106  0.00  0.00    +0.000 A 
ATOM     13  C   UNL     1      45.847   4.651   8.116  0.00  0.00    +0.000 A 
ATOM     14  C   UNL     1      46.486   3.514   7.626  0.00  0.00    +0.000 A 
ATOM     15  C   UNL     1      46.141   2.241   8.101  0.00  0.00    +0.000 A 
ATOM     16  C   UNL     1      45.157   2.145   9.101  0.00  0.00    +0.000 A 
BRANCH  15  17
ATOM     17  C   UNL     1      46.865   0.996   7.647  0.00  0.00    +0.000 C 
BRANCH  17  18
ATOM     18  N   UNL     1      48.094   1.274   6.906  0.00  0.00    +0.000 NA
ATOM     19  H   UNL     1      47.961   2.131   6.370  0.00  0.00    +0.000 HD
ATOM     20  H   UNL     1      48.243   0.532   6.226  0.00  0.00    +0.000 HD
ENDBRANCH  17  18
ENDBRANCH  15  17
ENDBRANCH  10  11
ENDBRANCH   9  10
ENDBRANCH   4   9
BRANCH   6  21
ATOM     21  C   UNL     1      47.683   6.009  13.865  0.00  0.00    +0.000 C 
BRANCH  21  22
ATOM     22  N   UNL     1      48.743   6.153  12.873  0.00  0.00    +0.000 NA
ATOM     23  H   UNL     1      48.369   5.919  11.954  0.00  0.00    +0.000 HD
ATOM     24  H   UNL     1      49.479   5.475  13.065  0.00  0.00    +0.000 HD
ENDBRANCH  21  22
ENDBRANCH   6  21
TORSDOF 8
ENDMDL
MODEL 6
REMARK VINA RESULT:    -6.317      1.382      2.446
REMARK INTER + INTRA:          -9.527
REMARK INTER:                  -8.992
REMARK INTRA:                  -0.535
REMARK UNBOUND:                -0.625
REMARK  Name = 
REMARK  9 active torsions:
REMARK  status: ('A' for Active; 'I' for Inactive)
REMARK    1  A    between atoms: C_1  and  C_2
REMARK    2  A    between atoms: C_2  and  C_3
REMARK    3  A    between atoms: C_6  and  C_7
REMARK    4  A    between atoms: C_7  and  O_8
REMARK    5  A    between atoms: O_8  and  C_9
REMARK    6  A    between atoms: C_13  and  C_14
REMARK    7  A    between atoms: C_14  and  N_15
REMARK    8  A    between atoms: C_18  and  C_19
REMARK    9  A    between atoms: C_19  and  N_20
REMARK                            x       y       z     vdW  Elec       q    Type
REMARK                         _______ _______ _______ _____ _____    ______ ____
ROOT
ATOM      1  C   UNL     1      46.761   7.206  12.969  0.00  0.00    +0.000 A 
ATOM      2  C   UNL     1      46.714   5.808  12.959  0.00  0.00    +0.000 A 
ATOM      3  N   UNL     1      45.834   5.069  12.255  0.00  0.00    +0.000 NA
ATOM      4  C   UNL     1      44.941   5.733  11.486  0.00  0.00    +0.000 A 
ATOM      5  C   UNL     1      44.925   7.126  11.409  0.00  0.00    +0.000 A 
ATOM      6  C   UNL     1      45.826   7.888  12.170  0.00  0.00    +0.000 A 
ENDROOT
BRANCH   1   8
ATOM      7  C   UNL     1      48.777   6.888  14.424  0.00  0.00    +0.000 C 
ATOM      8  C   UNL     1      47.757   7.878  13.878  0.00  0.00    +0.000 C 
ENDBRANCH   1   8
BRANCH   4   9
ATOM      9  C   UNL     1      43.894   4.916  10.765  0.00  0.00    +0.000 C 
BRANCH   9  10
ATOM     10  O   UNL     1      44.175   4.850   9.365  0.00  0.00    +0.000 OA
BRANCH  10  11
ATOM     11  C   UNL     1      44.805   3.711   8.930  0.00  0.00    +0.000 A 
ATOM     12  C   UNL     1      44.601   2.423   9.426  0.00  0.00    +0.000 A 
ATOM     13  C   UNL     1      45.284   1.341   8.868  0.00  0.00    +0.000 A 
ATOM     14  C   UNL     1      46.173   1.539   7.813  0.00  0.00    +0.000 A 
ATOM     15  C   UNL     1      46.412   2.826   7.313  0.00  0.00    +0.000 A 
ATOM     16  C   UNL     1      45.712   3.904   7.882  0.00  0.00    +0.000 A 
BRANCH  15  17
ATOM     17  C   UNL     1      47.310   3.066   6.123  0.00  0.00    +0.000 C 
BRANCH  17  18
ATOM     18  N   UNL     1      48.682   2.607   6.327  0.00  0.00    +0.000 NA
ATOM     19  H   UNL     1      49.016   2.191   5.458  0.00  0.00    +0.000 HD
ATOM     20  H   UNL     1      48.680   1.860   7.019  0.00  0.00    +0.000 HD
ENDBRANCH  17  18
ENDBRANCH  15  17
ENDBRANCH  10  11
ENDBRANCH   9  10
ENDBRANCH   4   9
BRANCH   6  21
ATOM     21  C   UNL     1      45.688   9.394  12.136  0.00  0.00    +0.000 C 
BRANCH  21  22
ATOM     22  N   UNL     1      44.391   9.834  12.638  0.00  0.00    +0.000 NA
ATOM     23  H   UNL     1      44.023  10.554  12.017  0.00  0.00    +0.000 HD
ATOM     24  H   UNL     1      44.513  10.274  13.549  0.00  0.00    +0.000 HD
ENDBRANCH  21  22
ENDBRANCH   6  21
TORSDOF 8
ENDMDL
MODEL 7
REMARK VINA RESULT:    -6.209      1.345      2.313
REMARK INTER + INTRA:          -9.375
REMARK INTER:                  -8.881
REMARK INTRA:                  -0.494
REMARK UNBOUND:                -0.625
REMARK  Name = 
REMARK  9 active torsions:
REMARK  status: ('A' for Active; 'I' for Inactive)
REMARK    1  A    between atoms: C_1  and  C_2
REMARK    2  A    between atoms: C_2  and  C_3
REMARK    3  A    between atoms: C_6  and  C_7
REMARK    4  A    between atoms: C_7  and  O_8
REMARK    5  A    between atoms: O_8  and  C_9
REMARK    6  A    between atoms: C_13  and  C_14
REMARK    7  A    between atoms: C_14  and  N_15
REMARK    8  A    between atoms: C_18  and  C_19
REMARK    9  A    between atoms: C_19  and  N_20
REMARK                            x       y       z     vdW  Elec       q    Type
REMARK                         _______ _______ _______ _____ _____    ______ ____
ROOT
ATOM      1  C   UNL     1      47.301   5.634  13.910  0.00  0.00    +0.000 A 
ATOM      2  C   UNL     1      46.349   4.617  13.787  0.00  0.00    +0.000 A 
ATOM      3  N   UNL     1      45.517   4.460  12.739  0.00  0.00    +0.000 NA
ATOM      4  C   UNL     1      45.625   5.345  11.721  0.00  0.00    +0.000 A 
ATOM      5  C   UNL     1      46.562   6.378  11.739  0.00  0.00    +0.000 A 
ATOM      6  C   UNL     1      47.404   6.552  12.849  0.00  0.00    +0.000 A 
ENDROOT
BRANCH   1   8
ATOM      7  C   UNL     1      47.659   4.653  16.188  0.00  0.00    +0.000 C 
ATOM      8  C   UNL     1      48.096   5.714  15.188  0.00  0.00    +0.000 C 
ENDBRANCH   1   8
BRANCH   4   9
ATOM      9  C   UNL     1      44.636   5.229  10.585  0.00  0.00    +0.000 C 
BRANCH   9  10
ATOM     10  O   UNL     1      45.310   5.184   9.325  0.00  0.00    +0.000 OA
BRANCH  10  11
ATOM     11  C   UNL     1      45.581   3.932   8.832  0.00  0.00    +0.000 A 
ATOM     12  C   UNL     1      45.163   2.724   9.391  0.00  0.00    +0.000 A 
ATOM     13  C   UNL     1      45.479   1.516   8.768  0.00  0.00    +0.000 A 
ATOM     14  C   UNL     1      46.213   1.507   7.583  0.00  0.00    +0.000 A 
ATOM     15  C   UNL     1      46.663   2.706   7.014  0.00  0.00    +0.000 A 
ATOM     16  C   UNL     1      46.332   3.915   7.652  0.00  0.00    +0.000 A 
BRANCH  15  17
ATOM     17  C   UNL     1      47.395   2.738   5.693  0.00  0.00    +0.000 C 
BRANCH  17  18
ATOM     18  N   UNL     1      48.570   1.869   5.657  0.00  0.00    +0.000 NA
ATOM     19  H   UNL     1      49.039   1.923   6.560  0.00  0.00    +0.000 HD
ATOM     20  H   UNL     1      49.227   2.234   4.971  0.00  0.00    +0.000 HD
ENDBRANCH  17  18
ENDBRANCH  15  17
ENDBRANCH  10  11
ENDBRANCH   9  10
ENDBRANCH   4   9
BRANCH   6  21
ATOM     21  C   UNL     1      48.319   7.756  12.865  0.00  0.00    +0.000 C 
BRANCH  21  22
ATOM     22  N   UNL     1      48.985   7.952  11.582  0.00  0.00    +0.000 NA
ATOM     23  H   UNL     1      48.312   7.792  10.832  0.00  0.00    +0.000 HD
ATOM     24  H   UNL     1      49.714   7.250  11.469  0.00  0.00    +0.000 HD
ENDBRANCH  21  22
ENDBRANCH   6  21
TORSDOF 8
ENDMDL
MODEL 8
REMARK VINA RESULT:    -6.126      1.960      6.376
REMARK INTER + INTRA:          -9.257
REMARK INTER:                  -9.261
REMARK INTRA:                   0.004
REMARK UNBOUND:                -0.625
REMARK  Name = 
REMARK  9 active torsions:
REMARK  status: ('A' for Active; 'I' for Inactive)
REMARK    1  A    between atoms: C_1  and  C_2
REMARK    2  A    between atoms: C_2  and  C_3
REMARK    3  A    between atoms: C_6  and  C_7
REMARK    4  A    between atoms: C_7  and  O_8
REMARK    5  A    between atoms: O_8  and  C_9
REMARK    6  A    between atoms: C_13  and  C_14
REMARK    7  A    between atoms: C_14  and  N_15
REMARK    8  A    between atoms: C_18  and  C_19
REMARK    9  A    between atoms: C_19  and  N_20
REMARK                            x       y       z     vdW  Elec       q    Type
REMARK                         _______ _______ _______ _____ _____    ______ ____
ROOT
ATOM      1  C   UNL     1      46.717   2.851   7.453  0.00  0.00    +0.000 A 
ATOM      2  C   UNL     1      46.524   4.224   7.632  0.00  0.00    +0.000 A 
ATOM      3  N   UNL     1      45.640   4.775   8.487  0.00  0.00    +0.000 NA
ATOM      4  C   UNL     1      44.897   3.933   9.242  0.00  0.00    +0.000 A 
ATOM      5  C   UNL     1      45.035   2.548   9.154  0.00  0.00    +0.000 A 
ATOM      6  C   UNL     1      45.938   1.982   8.238  0.00  0.00    +0.000 A 
ENDROOT
BRANCH   1   8
ATOM      7  C   UNL     1      47.213   2.777   4.998  0.00  0.00    +0.000 C 
ATOM      8  C   UNL     1      47.690   2.402   6.393  0.00  0.00    +0.000 C 
ENDBRANCH   1   8
BRANCH   4   9
ATOM      9  C   UNL     1      43.842   4.540  10.137  0.00  0.00    +0.000 C 
BRANCH   9  10
ATOM     10  O   UNL     1      43.952   4.036  11.469  0.00  0.00    +0.000 OA
BRANCH  10  11
ATOM     11  C   UNL     1      44.982   4.542  12.222  0.00  0.00    +0.000 A 
ATOM     12  C   UNL     1      45.923   3.793  12.929  0.00  0.00    +0.000 A 
ATOM     13  C   UNL     1      46.945   4.434  13.631  0.00  0.00    +0.000 A 
ATOM     14  C   UNL     1      47.034   5.825  13.630  0.00  0.00    +0.000 A 
ATOM     15  C   UNL     1      46.088   6.599  12.947  0.00  0.00    +0.000 A 
ATOM     16  C   UNL     1      45.067   5.938  12.241  0.00  0.00    +0.000 A 
BRANCH  15  17
ATOM     17  C   UNL     1      46.197   8.103  12.863  0.00  0.00    +0.000 C 
BRANCH  17  18
ATOM     18  N   UNL     1      46.756   8.715  14.067  0.00  0.00    +0.000 NA
ATOM     19  H   UNL     1      47.771   8.637  14.027  0.00  0.00    +0.000 HD
ATOM     20  H   UNL     1      46.459   8.176  14.878  0.00  0.00    +0.000 HD
ENDBRANCH  17  18
ENDBRANCH  15  17
ENDBRANCH  10  11
ENDBRANCH   9  10
ENDBRANCH   4   9
BRANCH   6  21
ATOM     21  C   UNL     1      45.963   0.476   8.104  0.00  0.00    +0.000 C 
BRANCH  21  22
ATOM     22  N   UNL     1      47.299  -0.022   7.795  0.00  0.00    +0.000 NA
ATOM     23  H   UNL     1      47.658  -0.529   8.603  0.00  0.00    +0.000 HD
ATOM     24  H   UNL     1      47.927   0.766   7.647  0.00  0.00    +0.000 HD
ENDBRANCH  21  22
ENDBRANCH   6  21
TORSDOF 8
ENDMDL
MODEL 9
REMARK VINA RESULT:    -5.816      3.500      8.165
REMARK INTER + INTRA:          -8.820
REMARK INTER:                  -8.491
REMARK INTRA:                  -0.330
REMARK UNBOUND:                -0.625
REMARK  Name = 
REMARK  9 active torsions:
REMARK  status: ('A' for Active; 'I' for Inactive)
REMARK    1  A    between atoms: C_1  and  C_2
REMARK    2  A    between atoms: C_2  and  C_3
REMARK    3  A    between atoms: C_6  and  C_7
REMARK    4  A    between atoms: C_7  and  O_8
REMARK    5  A    between atoms: O_8  and  C_9
REMARK    6  A    between atoms: C_13  and  C_14
REMARK    7  A    between atoms: C_14  and  N_15
REMARK    8  A    between atoms: C_18  and  C_19
REMARK    9  A    between atoms: C_19  and  N_20
REMARK                            x       y       z     vdW  Elec       q    Type
REMARK                         _______ _______ _______ _____ _____    ______ ____
ROOT
ATOM      1  C   UNL     1      44.663   4.516  11.195  0.00  0.00    +0.000 A 
ATOM      2  C   UNL     1      45.135   3.389  11.875  0.00  0.00    +0.000 A 
ATOM      3  N   UNL     1      45.848   3.419  13.018  0.00  0.00    +0.000 NA
ATOM      4  C   UNL     1      46.109   4.632  13.557  0.00  0.00    +0.000 A 
ATOM      5  C   UNL     1      45.657   5.813  12.967  0.00  0.00    +0.000 A 
ATOM      6  C   UNL     1      44.942   5.774  11.759  0.00  0.00    +0.000 A 
ENDROOT
BRANCH   1   8
ATOM      7  C   UNL     1      44.934   4.111   8.736  0.00  0.00    +0.000 C 
ATOM      8  C   UNL     1      43.952   4.308   9.882  0.00  0.00    +0.000 C 
ENDBRANCH   1   8
BRANCH   4   9
ATOM      9  C   UNL     1      46.982   4.679  14.789  0.00  0.00    +0.000 C 
BRANCH   9  10
ATOM     10  O   UNL     1      46.932   3.439  15.496  0.00  0.00    +0.000 OA
BRANCH  10  11
ATOM     11  C   UNL     1      47.916   3.239  16.432  0.00  0.00    +0.000 A 
ATOM     12  C   UNL     1      49.001   2.371  16.305  0.00  0.00    +0.000 A 
ATOM     13  C   UNL     1      49.954   2.286  17.322  0.00  0.00    +0.000 A 
ATOM     14  C   UNL     1      49.829   3.068  18.470  0.00  0.00    +0.000 A 
ATOM     15  C   UNL     1      48.735   3.929  18.630  0.00  0.00    +0.000 A 
ATOM     16  C   UNL     1      47.787   4.006  17.595  0.00  0.00    +0.000 A 
BRANCH  15  17
ATOM     17  C   UNL     1      48.608   4.844  19.826  0.00  0.00    +0.000 C 
BRANCH  17  18
ATOM     18  N   UNL     1      48.509   4.130  21.097  0.00  0.00    +0.000 NA
ATOM     19  H   UNL     1      49.313   4.380  21.672  0.00  0.00    +0.000 HD
ATOM     20  H   UNL     1      48.583   3.130  20.920  0.00  0.00    +0.000 HD
ENDBRANCH  17  18
ENDBRANCH  15  17
ENDBRANCH  10  11
ENDBRANCH   9  10
ENDBRANCH   4   9
BRANCH   6  21
ATOM     21  C   UNL     1      44.578   7.088  11.106  0.00  0.00    +0.000 C 
BRANCH  21  22
ATOM     22  N   UNL     1      43.152   7.374  11.211  0.00  0.00    +0.000 NA
ATOM     23  H   UNL     1      43.028   8.279  11.663  0.00  0.00    +0.000 HD
ATOM     24  H   UNL     1      42.714   6.685  11.821  0.00  0.00    +0.000 HD
ENDBRANCH  21  22
ENDBRANCH   6  21
TORSDOF 8
ENDMDL
