MODEL 1
REMARK VINA RESULT:    -7.860      0.000      0.000
REMARK INTER + INTRA:         -11.078
REMARK INTER:                 -10.157
REMARK INTRA:                  -0.921
REMARK UNBOUND:                -0.921
REMARK  Name = 
REMARK  6 active torsions:
REMARK  status: ('A' for Active; 'I' for Inactive)
REMARK    1  A    between atoms: C_1  and  N_2
REMARK    2  A    between atoms: N_2  and  C_3
REMARK    3  A    between atoms: C_3  and  C_4
REMARK    4  A    between atoms: C_7  and  C_8
REMARK    5  A    between atoms: C_8  and  N_9
REMARK    6  A    between atoms: C_18  and  C_20
REMARK                            x       y       z     vdW  Elec       q    Type
REMARK                         _______ _______ _______ _____ _____    ______ ____
ROOT
ATOM      1  C   UNL     1      47.031   6.861  13.855  0.00  0.00    +0.000 C 
ENDROOT
BRANCH   1   2
ATOM      2  C   UNL     1      46.335   5.989  12.845  0.00  0.00    +0.000 A 
ATOM      3  C   UNL     1      46.016   4.658  13.134  0.00  0.00    +0.000 A 
ATOM      4  C   UNL     1      45.411   3.857  12.165  0.00  0.00    +0.000 A 
ATOM      5  C   UNL     1      45.143   4.367  10.887  0.00  0.00    +0.000 A 
ATOM      6  C   UNL     1      45.419   5.712  10.614  0.00  0.00    +0.000 A 
ATOM      7  C   UNL     1      46.007   6.516  11.586  0.00  0.00    +0.000 A 
BRANCH   5   8
ATOM      8  C   UNL     1      44.586   3.478   9.803  0.00  0.00    +0.000 C 
BRANCH   8   9
ATOM      9  N   UNL     1      45.045   3.935   8.500  0.00  0.00    +0.000 N 
ATOM     10  C   UNL     1      45.848   2.991   7.836  0.00  0.00    +0.000 A 
ATOM     11  C   UNL     1      46.335   3.306   6.584  0.00  0.00    +0.000 A 
ATOM     12  C   UNL     1      47.093   2.343   5.953  0.00  0.00    +0.000 A 
ATOM     13  N   UNL     1      47.372   1.148   6.493  0.00  0.00    +0.000 NA
ATOM     14  C   UNL     1      46.848   0.934   7.704  0.00  0.00    +0.000 A 
ATOM     15  N   UNL     1      46.091   1.795   8.402  0.00  0.00    +0.000 NA
ATOM     16  H   UNL     1      45.538   4.821   8.562  0.00  0.00    +0.000 HD
ENDBRANCH   8   9
ENDBRANCH   5   8
ENDBRANCH   1   2
BRANCH   1  18
ATOM     17  C   UNL     1      49.128   7.296  12.506  0.00  0.00    +0.000 C 
ATOM     18  N   UNL     1      48.490   6.925  13.769  0.00  0.00    +0.000 N 
ATOM     19  C   UNL     1      49.341   6.947  14.881  0.00  0.00    +0.000 C 
ATOM     20  O   UNL     1      50.565   6.906  14.736  0.00  0.00    +0.000 OA
BRANCH  19  21
ATOM     21  C   UNL     1      48.797   7.159  16.235  0.00  0.00    +0.000 A 
ATOM     22  C   UNL     1      48.623   8.391  16.844  0.00  0.00    +0.000 A 
ATOM     23  S   UNL     1      48.284   8.295  18.515  0.00  0.00    +0.000 S 
ATOM     24  C   UNL     1      48.426   6.603  18.493  0.00  0.00    +0.000 A 
ATOM     25  N   UNL     1      48.395   5.880  19.643  0.00  0.00    +0.000 NA
ATOM     26  C   UNL     1      48.523   4.607  19.467  0.00  0.00    +0.000 A 
ATOM     27  N   UNL     1      48.627   3.989  18.246  0.00  0.00    +0.000 N 
ATOM     28  C   UNL     1      48.555   4.673  17.051  0.00  0.00    +0.000 A 
ATOM     29  O   UNL     1      48.395   4.086  15.986  0.00  0.00    +0.000 OA
ATOM     30  C   UNL     1      48.572   6.116  17.207  0.00  0.00    +0.000 A 
ATOM     31  H   UNL     1      48.606   2.984  18.177  0.00  0.00    +0.000 HD
ENDBRANCH  19  21
ENDBRANCH   1  18
TORSDOF 5
ENDMDL
MODEL 2
REMARK VINA RESULT:    -7.217      2.302      3.414
REMARK INTER + INTRA:         -10.247
REMARK INTER:                  -9.057
REMARK INTRA:                  -1.191
REMARK UNBOUND:                -0.921
REMARK  Name = 
REMARK  6 active torsions:
REMARK  status: ('A' for Active; 'I' for Inactive)
REMARK    1  A    between atoms: C_1  and  N_2
REMARK    2  A    between atoms: N_2  and  C_3
REMARK    3  A    between atoms: C_3  and  C_4
REMARK    4  A    between atoms: C_7  and  C_8
REMARK    5  A    between atoms: C_8  and  N_9
REMARK    6  A    between atoms: C_18  and  C_20
REMARK                            x       y       z     vdW  Elec       q    Type
REMARK                         _______ _______ _______ _____ _____    ______ ____
ROOT
ATOM      1  C   UNL     1      49.581   7.159  15.206  0.00  0.00    +0.000 C 
ENDROOT
BRANCH   1   2
ATOM      2  C   UNL     1      48.489   6.945  14.193  0.00  0.00    +0.000 A 
ATOM      3  C   UNL     1      48.293   7.844  13.139  0.00  0.00    +0.000 A 
ATOM      4  C   UNL     1      47.244   7.649  12.239  0.00  0.00    +0.000 A 
ATOM      5  C   UNL     1      46.363   6.570  12.397  0.00  0.00    +0.000 A 
ATOM      6  C   UNL     1      46.588   5.645  13.424  0.00  0.00    +0.000 A 
ATOM      7  C   UNL     1      47.644   5.830  14.311  0.00  0.00    +0.000 A 
BRANCH   5   8
ATOM      8  C   UNL     1      45.168   6.412  11.491  0.00  0.00    +0.000 C 
BRANCH   8   9
ATOM      9  N   UNL     1      45.606   6.068  10.146  0.00  0.00    +0.000 N 
ATOM     10  C   UNL     1      45.250   4.761   9.769  0.00  0.00    +0.000 A 
ATOM     11  C   UNL     1      45.601   4.322   8.508  0.00  0.00    +0.000 A 
ATOM     12  C   UNL     1      45.208   3.047   8.164  0.00  0.00    +0.000 A 
ATOM     13  N   UNL     1      44.523   2.236   8.983  0.00  0.00    +0.000 NA
ATOM     14  C   UNL     1      44.222   2.755  10.178  0.00  0.00    +0.000 A 
ATOM     15  N   UNL     1      44.546   3.983  10.610  0.00  0.00    +0.000 NA
ATOM     16  H   UNL     1      46.606   6.198  10.029  0.00  0.00    +0.000 HD
ENDBRANCH   8   9
ENDBRANCH   5   8
ENDBRANCH   1   2
BRANCH   1  18
ATOM     17  C   UNL     1      48.140   8.751  16.545  0.00  0.00    +0.000 C 
ATOM     18  N   UNL     1      49.178   7.722  16.495  0.00  0.00    +0.000 N 
ATOM     19  C   UNL     1      49.493   7.150  17.734  0.00  0.00    +0.000 C 
ATOM     20  O   UNL     1      49.203   7.728  18.784  0.00  0.00    +0.000 OA
BRANCH  19  21
ATOM     21  C   UNL     1      50.052   5.788  17.809  0.00  0.00    +0.000 A 
ATOM     22  C   UNL     1      51.396   5.482  17.948  0.00  0.00    +0.000 A 
ATOM     23  S   UNL     1      51.762   3.835  17.679  0.00  0.00    +0.000 S 
ATOM     24  C   UNL     1      50.142   3.491  17.301  0.00  0.00    +0.000 A 
ATOM     25  N   UNL     1      49.776   2.271  16.829  0.00  0.00    +0.000 NA
ATOM     26  C   UNL     1      48.513   2.163  16.579  0.00  0.00    +0.000 A 
ATOM     27  N   UNL     1      47.580   3.143  16.806  0.00  0.00    +0.000 N 
ATOM     28  C   UNL     1      47.892   4.356  17.382  0.00  0.00    +0.000 A 
ATOM     29  O   UNL     1      47.019   5.106  17.806  0.00  0.00    +0.000 OA
ATOM     30  C   UNL     1      49.319   4.577  17.530  0.00  0.00    +0.000 A 
ATOM     31  H   UNL     1      46.596   2.950  16.698  0.00  0.00    +0.000 HD
ENDBRANCH  19  21
ENDBRANCH   1  18
TORSDOF 5
ENDMDL
MODEL 3
REMARK VINA RESULT:    -7.119      2.089      2.676
REMARK INTER + INTRA:         -10.121
REMARK INTER:                  -9.143
REMARK INTRA:                  -0.977
REMARK UNBOUND:                -0.921
REMARK  Name = 
REMARK  6 active torsions:
REMARK  status: ('A' for Active; 'I' for Inactive)
REMARK    1  A    between atoms: C_1  and  N_2
REMARK    2  A    between atoms: N_2  and  C_3
REMARK    3  A    between atoms: C_3  and  C_4
REMARK    4  A    between atoms: C_7  and  C_8
REMARK    5  A    between atoms: C_8  and  N_9
REMARK    6  A    between atoms: C_18  and  C_20
REMARK                            x       y       z     vdW  Elec       q    Type
REMARK                         _______ _______ _______ _____ _____    ______ ____
ROOT
ATOM      1  C   UNL     1      48.798   6.715  13.764  0.00  0.00    +0.000 C 
ENDROOT
BRANCH   1   2
ATOM      2  C   UNL     1      47.603   6.250  12.977  0.00  0.00    +0.000 A 
ATOM      3  C   UNL     1      46.813   5.183  13.421  0.00  0.00    +0.000 A 
ATOM      4  C   UNL     1      45.736   4.742  12.651  0.00  0.00    +0.000 A 
ATOM      5  C   UNL     1      45.453   5.340  11.415  0.00  0.00    +0.000 A 
ATOM      6  C   UNL     1      46.214   6.437  10.994  0.00  0.00    +0.000 A 
ATOM      7  C   UNL     1      47.277   6.889  11.770  0.00  0.00    +0.000 A 
BRANCH   5   8
ATOM      8  C   UNL     1      44.357   4.800  10.531  0.00  0.00    +0.000 C 
BRANCH   8   9
ATOM      9  N   UNL     1      44.576   3.383  10.277  0.00  0.00    +0.000 N 
ATOM     10  C   UNL     1      45.318   3.142   9.107  0.00  0.00    +0.000 A 
ATOM     11  C   UNL     1      45.600   1.835   8.765  0.00  0.00    +0.000 A 
ATOM     12  C   UNL     1      46.355   1.640   7.629  0.00  0.00    +0.000 A 
ATOM     13  N   UNL     1      46.809   2.641   6.861  0.00  0.00    +0.000 NA
ATOM     14  C   UNL     1      46.491   3.870   7.279  0.00  0.00    +0.000 A 
ATOM     15  N   UNL     1      45.773   4.172   8.371  0.00  0.00    +0.000 NA
ATOM     16  H   UNL     1      43.703   2.866  10.242  0.00  0.00    +0.000 HD
ENDBRANCH   8   9
ENDBRANCH   5   8
ENDBRANCH   1   2
BRANCH   1  18
ATOM     17  C   UNL     1      47.703   8.823  14.638  0.00  0.00    +0.000 C 
ATOM     18  N   UNL     1      48.536   7.643  14.865  0.00  0.00    +0.000 N 
ATOM     19  C   UNL     1      48.775   7.347  16.212  0.00  0.00    +0.000 C 
ATOM     20  O   UNL     1      48.621   8.208  17.081  0.00  0.00    +0.000 OA
BRANCH  19  21
ATOM     21  C   UNL     1      49.080   5.967  16.633  0.00  0.00    +0.000 A 
ATOM     22  C   UNL     1      48.141   5.017  17.000  0.00  0.00    +0.000 A 
ATOM     23  S   UNL     1      48.812   3.632  17.741  0.00  0.00    +0.000 S 
ATOM     24  C   UNL     1      50.376   4.289  17.657  0.00  0.00    +0.000 A 
ATOM     25  N   UNL     1      51.429   3.674  18.254  0.00  0.00    +0.000 NA
ATOM     26  C   UNL     1      52.552   4.297  18.110  0.00  0.00    +0.000 A 
ATOM     27  N   UNL     1      52.725   5.446  17.381  0.00  0.00    +0.000 N 
ATOM     28  C   UNL     1      51.705   6.044  16.671  0.00  0.00    +0.000 A 
ATOM     29  O   UNL     1      51.932   6.910  15.833  0.00  0.00    +0.000 OA
ATOM     30  C   UNL     1      50.400   5.468  16.935  0.00  0.00    +0.000 A 
ATOM     31  H   UNL     1      53.649   5.813  17.214  0.00  0.00    +0.000 HD
ENDBRANCH  19  21
ENDBRANCH   1  18
TORSDOF 5
ENDMDL
MODEL 4
REMARK VINA RESULT:    -7.018      1.834      2.628
REMARK INTER + INTRA:          -9.991
REMARK INTER:                  -8.591
REMARK INTRA:                  -1.400
REMARK UNBOUND:                -0.921
REMARK  Name = 
REMARK  6 active torsions:
REMARK  status: ('A' for Active; 'I' for Inactive)
REMARK    1  A    between atoms: C_1  and  N_2
REMARK    2  A    between atoms: N_2  and  C_3
REMARK    3  A    between atoms: C_3  and  C_4
REMARK    4  A    between atoms: C_7  and  C_8
REMARK    5  A    between atoms: C_8  and  N_9
REMARK    6  A    between atoms: C_18  and  C_20
REMARK                            x       y       z     vdW  Elec       q    Type
REMARK                         _______ _______ _______ _____ _____    ______ ____
ROOT
ATOM      1  C   UNL     1      49.275   9.275  13.835  0.00  0.00    +0.000 C 
ENDROOT
BRANCH   1   2
ATOM      2  C   UNL     1      48.157   8.479  13.217  0.00  0.00    +0.000 A 
ATOM      3  C   UNL     1      48.419   7.432  12.326  0.00  0.00    +0.000 A 
ATOM      4  C   UNL     1      47.364   6.739  11.732  0.00  0.00    +0.000 A 
ATOM      5  C   UNL     1      46.036   7.102  11.996  0.00  0.00    +0.000 A 
ATOM      6  C   UNL     1      45.774   8.118  12.923  0.00  0.00    +0.000 A 
ATOM      7  C   UNL     1      46.826   8.798  13.530  0.00  0.00    +0.000 A 
BRANCH   5   8
ATOM      8  C   UNL     1      44.895   6.427  11.277  0.00  0.00    +0.000 C 
BRANCH   8   9
ATOM      9  N   UNL     1      45.320   6.010   9.949  0.00  0.00    +0.000 N 
ATOM     10  C   UNL     1      45.070   4.651   9.692  0.00  0.00    +0.000 A 
ATOM     11  C   UNL     1      45.421   4.139   8.459  0.00  0.00    +0.000 A 
ATOM     12  C   UNL     1      45.132   2.811   8.234  0.00  0.00    +0.000 A 
ATOM     13  N   UNL     1      44.546   2.016   9.141  0.00  0.00    +0.000 NA
ATOM     14  C   UNL     1      44.237   2.605  10.300  0.00  0.00    +0.000 A 
ATOM     15  N   UNL     1      44.463   3.889  10.619  0.00  0.00    +0.000 NA
ATOM     16  H   UNL     1      46.301   6.216   9.785  0.00  0.00    +0.000 HD
ENDBRANCH   8   9
ENDBRANCH   5   8
ENDBRANCH   1   2
BRANCH   1  18
ATOM     17  C   UNL     1      51.707   8.751  13.369  0.00  0.00    +0.000 C 
ATOM     18  N   UNL     1      50.497   8.540  14.163  0.00  0.00    +0.000 N 
ATOM     19  C   UNL     1      50.702   7.858  15.369  0.00  0.00    +0.000 C 
ATOM     20  O   UNL     1      51.718   7.180  15.542  0.00  0.00    +0.000 OA
BRANCH  19  21
ATOM     21  C   UNL     1      49.778   8.046  16.502  0.00  0.00    +0.000 A 
ATOM     22  C   UNL     1      49.837   9.084  17.417  0.00  0.00    +0.000 A 
ATOM     23  S   UNL     1      48.844   8.854  18.788  0.00  0.00    +0.000 S 
ATOM     24  C   UNL     1      48.355   7.325  18.233  0.00  0.00    +0.000 A 
ATOM     25  N   UNL     1      47.602   6.504  19.010  0.00  0.00    +0.000 NA
ATOM     26  C   UNL     1      47.316   5.373  18.456  0.00  0.00    +0.000 A 
ATOM     27  N   UNL     1      47.669   5.012  17.180  0.00  0.00    +0.000 N 
ATOM     28  C   UNL     1      48.340   5.856  16.320  0.00  0.00    +0.000 A 
ATOM     29  O   UNL     1      48.419   5.616  15.120  0.00  0.00    +0.000 OA
ATOM     30  C   UNL     1      48.817   7.070  16.955  0.00  0.00    +0.000 A 
ATOM     31  H   UNL     1      47.312   4.163  16.770  0.00  0.00    +0.000 HD
ENDBRANCH  19  21
ENDBRANCH   1  18
TORSDOF 5
ENDMDL
MODEL 5
REMARK VINA RESULT:    -6.973      3.112      3.848
REMARK INTER + INTRA:          -9.932
REMARK INTER:                  -9.236
REMARK INTRA:                  -0.696
REMARK UNBOUND:                -0.921
REMARK  Name = 
REMARK  6 active torsions:
REMARK  status: ('A' for Active; 'I' for Inactive)
REMARK    1  A    between atoms: C_1  and  N_2
REMARK    2  A    between atoms: N_2  and  C_3
REMARK    3  A    between atoms: C_3  and  C_4
REMARK    4  A    between atoms: C_7  and  C_8
REMARK    5  A    between atoms: C_8  and  N_9
REMARK    6  A    between atoms: C_18  and  C_20
REMARK                            x       y       z     vdW  Elec       q    Type
REMARK                         _______ _______ _______ _____ _____    ______ ____
ROOT
ATOM      1  C   UNL     1      46.660   6.795  13.270  0.00  0.00    +0.000 C 
ENDROOT
BRANCH   1   2
ATOM      2  C   UNL     1      45.969   5.838  12.336  0.00  0.00    +0.000 A 
ATOM      3  C   UNL     1      45.383   4.659  12.810  0.00  0.00    +0.000 A 
ATOM      4  C   UNL     1      44.787   3.766  11.918  0.00  0.00    +0.000 A 
ATOM      5  C   UNL     1      44.795   4.025  10.541  0.00  0.00    +0.000 A 
ATOM      6  C   UNL     1      45.340   5.227  10.072  0.00  0.00    +0.000 A 
ATOM      7  C   UNL     1      45.918   6.126  10.963  0.00  0.00    +0.000 A 
BRANCH   5   8
ATOM      8  C   UNL     1      44.247   3.016   9.563  0.00  0.00    +0.000 C 
BRANCH   8   9
ATOM      9  N   UNL     1      45.226   1.964   9.333  0.00  0.00    +0.000 N 
ATOM     10  C   UNL     1      45.939   2.128   8.132  0.00  0.00    +0.000 A 
ATOM     11  C   UNL     1      46.906   1.197   7.809  0.00  0.00    +0.000 A 
ATOM     12  C   UNL     1      47.603   1.408   6.640  0.00  0.00    +0.000 A 
ATOM     13  N   UNL     1      47.385   2.449   5.824  0.00  0.00    +0.000 NA
ATOM     14  C   UNL     1      46.435   3.300   6.228  0.00  0.00    +0.000 A 
ATOM     15  N   UNL     1      45.705   3.195   7.349  0.00  0.00    +0.000 NA
ATOM     16  H   UNL     1      44.802   1.042   9.357  0.00  0.00    +0.000 HD
ENDBRANCH   8   9
ENDBRANCH   5   8
ENDBRANCH   1   2
BRANCH   1  18
ATOM     17  C   UNL     1      45.253   8.806  12.655  0.00  0.00    +0.000 C 
ATOM     18  N   UNL     1      46.561   8.217  12.941  0.00  0.00    +0.000 N 
ATOM     19  C   UNL     1      47.585   9.146  13.162  0.00  0.00    +0.000 C 
ATOM     20  O   UNL     1      47.470  10.311  12.774  0.00  0.00    +0.000 OA
BRANCH  19  21
ATOM     21  C   UNL     1      48.757   8.787  13.981  0.00  0.00    +0.000 A 
ATOM     22  C   UNL     1      48.854   8.951  15.353  0.00  0.00    +0.000 A 
ATOM     23  S   UNL     1      50.436   8.749  15.964  0.00  0.00    +0.000 S 
ATOM     24  C   UNL     1      51.056   8.504  14.402  0.00  0.00    +0.000 A 
ATOM     25  N   UNL     1      52.394   8.414  14.183  0.00  0.00    +0.000 NA
ATOM     26  C   UNL     1      52.712   8.236  12.944  0.00  0.00    +0.000 A 
ATOM     27  N   UNL     1      51.816   8.088  11.915  0.00  0.00    +0.000 N 
ATOM     28  C   UNL     1      50.451   8.066  12.108  0.00  0.00    +0.000 A 
ATOM     29  O   UNL     1      49.687   7.682  11.228  0.00  0.00    +0.000 OA
ATOM     30  C   UNL     1      50.050   8.421  13.457  0.00  0.00    +0.000 A 
ATOM     31  H   UNL     1      52.132   7.835  10.992  0.00  0.00    +0.000 HD
ENDBRANCH  19  21
ENDBRANCH   1  18
TORSDOF 5
ENDMDL
MODEL 6
REMARK VINA RESULT:    -6.428      2.938      4.459
REMARK INTER + INTRA:          -9.228
REMARK INTER:                  -7.989
REMARK INTRA:                  -1.238
REMARK UNBOUND:                -0.921
REMARK  Name = 
REMARK  6 active torsions:
REMARK  status: ('A' for Active; 'I' for Inactive)
REMARK    1  A    between atoms: C_1  and  N_2
REMARK    2  A    between atoms: N_2  and  C_3
REMARK    3  A    between atoms: C_3  and  C_4
REMARK    4  A    between atoms: C_7  and  C_8
REMARK    5  A    between atoms: C_8  and  N_9
REMARK    6  A    between atoms: C_18  and  C_20
REMARK                            x       y       z     vdW  Elec       q    Type
REMARK                         _______ _______ _______ _____ _____    ______ ____
ROOT
ATOM      1  C   UNL     1      49.910   8.858  16.080  0.00  0.00    +0.000 C 
ENDROOT
BRANCH   1   2
ATOM      2  C   UNL     1      48.891   8.406  15.069  0.00  0.00    +0.000 A 
ATOM      3  C   UNL     1      48.022   9.316  14.458  0.00  0.00    +0.000 A 
ATOM      4  C   UNL     1      47.056   8.865  13.557  0.00  0.00    +0.000 A 
ATOM      5  C   UNL     1      46.927   7.498  13.278  0.00  0.00    +0.000 A 
ATOM      6  C   UNL     1      47.828   6.593  13.853  0.00  0.00    +0.000 A 
ATOM      7  C   UNL     1      48.803   7.044  14.738  0.00  0.00    +0.000 A 
BRANCH   5   8
ATOM      8  C   UNL     1      45.819   6.994  12.388  0.00  0.00    +0.000 C 
BRANCH   8   9
ATOM      9  N   UNL     1      45.026   5.999  13.095  0.00  0.00    +0.000 N 
ATOM     10  C   UNL     1      44.553   4.974  12.257  0.00  0.00    +0.000 A 
ATOM     11  C   UNL     1      43.796   3.964  12.816  0.00  0.00    +0.000 A 
ATOM     12  C   UNL     1      43.376   2.963  11.968  0.00  0.00    +0.000 A 
ATOM     13  N   UNL     1      43.659   2.933  10.658  0.00  0.00    +0.000 NA
ATOM     14  C   UNL     1      44.405   3.950  10.213  0.00  0.00    +0.000 A 
ATOM     15  N   UNL     1      44.873   4.968  10.951  0.00  0.00    +0.000 NA
ATOM     16  H   UNL     1      44.249   6.420  13.595  0.00  0.00    +0.000 HD
ENDBRANCH   8   9
ENDBRANCH   5   8
ENDBRANCH   1   2
BRANCH   1  18
ATOM     17  C   UNL     1      48.464  10.193  17.670  0.00  0.00    +0.000 C 
ATOM     18  N   UNL     1      49.420   9.112  17.435  0.00  0.00    +0.000 N 
ATOM     19  C   UNL     1      49.561   8.214  18.500  0.00  0.00    +0.000 C 
ATOM     20  O   UNL     1      49.209   8.531  19.638  0.00  0.00    +0.000 OA
BRANCH  19  21
ATOM     21  C   UNL     1      50.004   6.829  18.258  0.00  0.00    +0.000 A 
ATOM     22  C   UNL     1      51.317   6.431  18.065  0.00  0.00    +0.000 A 
ATOM     23  S   UNL     1      51.477   4.831  17.491  0.00  0.00    +0.000 S 
ATOM     24  C   UNL     1      49.791   4.640  17.416  0.00  0.00    +0.000 A 
ATOM     25  N   UNL     1      49.234   3.533  16.862  0.00  0.00    +0.000 NA
ATOM     26  C   UNL     1      47.942   3.536  16.870  0.00  0.00    +0.000 A 
ATOM     27  N   UNL     1      47.161   4.517  17.427  0.00  0.00    +0.000 N 
ATOM     28  C   UNL     1      47.686   5.604  18.094  0.00  0.00    +0.000 A 
ATOM     29  O   UNL     1      46.984   6.324  18.796  0.00  0.00    +0.000 OA
ATOM     30  C   UNL     1      49.127   5.720  17.969  0.00  0.00    +0.000 A 
ATOM     31  H   UNL     1      46.163   4.398  17.502  0.00  0.00    +0.000 HD
ENDBRANCH  19  21
ENDBRANCH   1  18
TORSDOF 5
ENDMDL
MODEL 7
REMARK VINA RESULT:    -6.404      1.874      2.925
REMARK INTER + INTRA:          -9.197
REMARK INTER:                  -8.098
REMARK INTRA:                  -1.099
REMARK UNBOUND:                -0.921
REMARK  Name = 
REMARK  6 active torsions:
REMARK  status: ('A' for Active; 'I' for Inactive)
REMARK    1  A    between atoms: C_1  and  N_2
REMARK    2  A    between atoms: N_2  and  C_3
REMARK    3  A    between atoms: C_3  and  C_4
REMARK    4  A    between atoms: C_7  and  C_8
REMARK    5  A    between atoms: C_8  and  N_9
REMARK    6  A    between atoms: C_18  and  C_20
REMARK                            x       y       z     vdW  Elec       q    Type
REMARK                         _______ _______ _______ _____ _____    ______ ____
ROOT
ATOM      1  C   UNL     1      48.158   8.630  14.825  0.00  0.00    +0.000 C 
ENDROOT
BRANCH   1   2
ATOM      2  C   UNL     1      47.301   7.975  13.776  0.00  0.00    +0.000 A 
ATOM      3  C   UNL     1      46.215   8.648  13.203  0.00  0.00    +0.000 A 
ATOM      4  C   UNL     1      45.408   8.003  12.265  0.00  0.00    +0.000 A 
ATOM      5  C   UNL     1      45.657   6.671  11.909  0.00  0.00    +0.000 A 
ATOM      6  C   UNL     1      46.771   6.013  12.447  0.00  0.00    +0.000 A 
ATOM      7  C   UNL     1      47.587   6.662  13.369  0.00  0.00    +0.000 A 
BRANCH   5   8
ATOM      8  C   UNL     1      44.728   5.935  10.976  0.00  0.00    +0.000 C 
BRANCH   8   9
ATOM      9  N   UNL     1      45.355   5.779   9.671  0.00  0.00    +0.000 N 
ATOM     10  C   UNL     1      45.433   4.438   9.255  0.00  0.00    +0.000 A 
ATOM     11  C   UNL     1      45.999   4.163   8.026  0.00  0.00    +0.000 A 
ATOM     12  C   UNL     1      46.030   2.841   7.641  0.00  0.00    +0.000 A 
ATOM     13  N   UNL     1      45.551   1.838   8.391  0.00  0.00    +0.000 NA
ATOM     14  C   UNL     1      45.016   2.207   9.560  0.00  0.00    +0.000 A 
ATOM     15  N   UNL     1      44.925   3.461  10.027  0.00  0.00    +0.000 NA
ATOM     16  H   UNL     1      46.277   6.202   9.642  0.00  0.00    +0.000 HD
ENDBRANCH   8   9
ENDBRANCH   5   8
ENDBRANCH   1   2
BRANCH   1  18
ATOM     17  C   UNL     1      50.508   9.247  14.115  0.00  0.00    +0.000 C 
ATOM     18  N   UNL     1      49.589   8.327  14.783  0.00  0.00    +0.000 N 
ATOM     19  C   UNL     1      50.210   7.365  15.590  0.00  0.00    +0.000 C 
ATOM     20  O   UNL     1      51.403   7.093  15.437  0.00  0.00    +0.000 OA
BRANCH  19  21
ATOM     21  C   UNL     1      49.488   6.760  16.724  0.00  0.00    +0.000 A 
ATOM     22  C   UNL     1      48.841   5.536  16.698  0.00  0.00    +0.000 A 
ATOM     23  S   UNL     1      47.831   5.258  18.048  0.00  0.00    +0.000 S 
ATOM     24  C   UNL     1      48.175   6.798  18.678  0.00  0.00    +0.000 A 
ATOM     25  N   UNL     1      47.516   7.274  19.766  0.00  0.00    +0.000 NA
ATOM     26  C   UNL     1      47.880   8.461  20.122  0.00  0.00    +0.000 A 
ATOM     27  N   UNL     1      48.877   9.191  19.523  0.00  0.00    +0.000 N 
ATOM     28  C   UNL     1      49.642   8.703  18.485  0.00  0.00    +0.000 A 
ATOM     29  O   UNL     1      50.679   9.259  18.138  0.00  0.00    +0.000 OA
ATOM     30  C   UNL     1      49.161   7.441  17.953  0.00  0.00    +0.000 A 
ATOM     31  H   UNL     1      49.188  10.061  19.925  0.00  0.00    +0.000 HD
ENDBRANCH  19  21
ENDBRANCH   1  18
TORSDOF 5
ENDMDL
MODEL 8
REMARK VINA RESULT:    -6.089      3.132      4.308
REMARK INTER + INTRA:          -8.790
REMARK INTER:                  -7.056
REMARK INTRA:                  -1.734
REMARK UNBOUND:                -0.921
REMARK  Name = 
REMARK  6 active torsions:
REMARK  status: ('A' for Active; 'I' for Inactive)
REMARK    1  A    between atoms: C_1  and  N_2
REMARK    2  A    between atoms: N_2  and  C_3
REMARK    3  A    between atoms: C_3  and  C_4
REMARK    4  A    between atoms: C_7  and  C_8
REMARK    5  A    between atoms: C_8  and  N_9
REMARK    6  A    between atoms: C_18  and  C_20
REMARK                            x       y       z     vdW  Elec       q    Type
REMARK                         _______ _______ _______ _____ _____    ______ ____
ROOT
ATOM      1  C   UNL     1      49.839  10.098  15.261  0.00  0.00    +0.000 C 
ENDROOT
BRANCH   1   2
ATOM      2  C   UNL     1      49.105   9.204  14.300  0.00  0.00    +0.000 A 
ATOM      3  C   UNL     1      49.751   8.644  13.192  0.00  0.00    +0.000 A 
ATOM      4  C   UNL     1      49.037   7.854  12.290  0.00  0.00    +0.000 A 
ATOM      5  C   UNL     1      47.663   7.638  12.468  0.00  0.00    +0.000 A 
ATOM      6  C   UNL     1      47.027   8.159  13.601  0.00  0.00    +0.000 A 
ATOM      7  C   UNL     1      47.743   8.932  14.510  0.00  0.00    +0.000 A 
BRANCH   5   8
ATOM      8  C   UNL     1      46.865   6.873  11.442  0.00  0.00    +0.000 C 
BRANCH   8   9
ATOM      9  N   UNL     1      45.450   6.913  11.782  0.00  0.00    +0.000 N 
ATOM     10  C   UNL     1      44.933   5.653  12.134  0.00  0.00    +0.000 A 
ATOM     11  C   UNL     1      43.602   5.565  12.489  0.00  0.00    +0.000 A 
ATOM     12  C   UNL     1      43.140   4.320  12.857  0.00  0.00    +0.000 A 
ATOM     13  N   UNL     1      43.908   3.221  12.878  0.00  0.00    +0.000 NA
ATOM     14  C   UNL     1      45.184   3.410  12.527  0.00  0.00    +0.000 A 
ATOM     15  N   UNL     1      45.738   4.577  12.162  0.00  0.00    +0.000 NA
ATOM     16  H   UNL     1      44.893   7.316  11.036  0.00  0.00    +0.000 HD
ENDBRANCH   8   9
ENDBRANCH   5   8
ENDBRANCH   1   2
BRANCH   1  18
ATOM     17  C   UNL     1      52.325  10.113  15.738  0.00  0.00    +0.000 C 
ATOM     18  N   UNL     1      51.003   9.520  15.935  0.00  0.00    +0.000 N 
ATOM     19  C   UNL     1      50.922   8.613  16.999  0.00  0.00    +0.000 C 
ATOM     20  O   UNL     1      51.941   8.092  17.458  0.00  0.00    +0.000 OA
BRANCH  19  21
ATOM     21  C   UNL     1      49.637   8.369  17.678  0.00  0.00    +0.000 A 
ATOM     22  C   UNL     1      49.081   9.181  18.654  0.00  0.00    +0.000 A 
ATOM     23  S   UNL     1      47.761   8.473  19.474  0.00  0.00    +0.000 S 
ATOM     24  C   UNL     1      47.932   7.029  18.596  0.00  0.00    +0.000 A 
ATOM     25  N   UNL     1      47.199   5.928  18.905  0.00  0.00    +0.000 NA
ATOM     26  C   UNL     1      47.446   4.905  18.156  0.00  0.00    +0.000 A 
ATOM     27  N   UNL     1      48.319   4.899  17.097  0.00  0.00    +0.000 N 
ATOM     28  C   UNL     1      49.003   6.023  16.683  0.00  0.00    +0.000 A 
ATOM     29  O   UNL     1      49.571   6.061  15.597  0.00  0.00    +0.000 OA
ATOM     30  C   UNL     1      48.875   7.147  17.592  0.00  0.00    +0.000 A 
ATOM     31  H   UNL     1      48.375   4.101  16.483  0.00  0.00    +0.000 HD
ENDBRANCH  19  21
ENDBRANCH   1  18
TORSDOF 5
ENDMDL
MODEL 9
REMARK VINA RESULT:    -6.084      3.518      5.702
REMARK INTER + INTRA:          -8.784
REMARK INTER:                  -7.592
REMARK INTRA:                  -1.192
REMARK UNBOUND:                -0.921
REMARK  Name = 
REMARK  6 active torsions:
REMARK  status: ('A' for Active; 'I' for Inactive)
REMARK    1  A    between atoms: C_1  and  N_2
REMARK    2  A    between atoms: N_2  and  C_3
REMARK    3  A    between atoms: C_3  and  C_4
REMARK    4  A    between atoms: C_7  and  C_8
REMARK    5  A    between atoms: C_8  and  N_9
REMARK    6  A    between atoms: C_18  and  C_20
REMARK                            x       y       z     vdW  Elec       q    Type
REMARK                         _______ _______ _______ _____ _____    ______ ____
ROOT
ATOM      1  C   UNL     1      48.984   4.721  19.667  0.00  0.00    +0.000 C 
ENDROOT
BRANCH   1   2
ATOM      2  C   UNL     1      48.534   4.561  18.240  0.00  0.00    +0.000 A 
ATOM      3  C   UNL     1      48.533   5.645  17.354  0.00  0.00    +0.000 A 
ATOM      4  C   UNL     1      48.069   5.481  16.048  0.00  0.00    +0.000 A 
ATOM      5  C   UNL     1      47.573   4.242  15.620  0.00  0.00    +0.000 A 
ATOM      6  C   UNL     1      47.618   3.147  16.492  0.00  0.00    +0.000 A 
ATOM      7  C   UNL     1      48.097   3.305  17.788  0.00  0.00    +0.000 A 
BRANCH   5   8
ATOM      8  C   UNL     1      46.974   4.085  14.245  0.00  0.00    +0.000 C 
BRANCH   8   9
ATOM      9  N   UNL     1      45.913   5.063  14.051  0.00  0.00    +0.000 N 
ATOM     10  C   UNL     1      44.918   4.626  13.159  0.00  0.00    +0.000 A 
ATOM     11  C   UNL     1      43.851   5.463  12.902  0.00  0.00    +0.000 A 
ATOM     12  C   UNL     1      42.882   4.987  12.047  0.00  0.00    +0.000 A 
ATOM     13  N   UNL     1      42.933   3.780  11.466  0.00  0.00    +0.000 NA
ATOM     14  C   UNL     1      44.000   3.039  11.785  0.00  0.00    +0.000 A 
ATOM     15  N   UNL     1      44.994   3.400  12.611  0.00  0.00    +0.000 NA
ATOM     16  H   UNL     1      46.277   5.960  13.745  0.00  0.00    +0.000 HD
ENDBRANCH   8   9
ENDBRANCH   5   8
ENDBRANCH   1   2
BRANCH   1  18
ATOM     17  C   UNL     1      51.458   4.541  19.167  0.00  0.00    +0.000 C 
ATOM     18  N   UNL     1      50.355   5.191  19.872  0.00  0.00    +0.000 N 
ATOM     19  C   UNL     1      50.683   6.414  20.470  0.00  0.00    +0.000 C 
ATOM     20  O   UNL     1      51.859   6.705  20.698  0.00  0.00    +0.000 OA
BRANCH  19  21
ATOM     21  C   UNL     1      49.644   7.432  20.711  0.00  0.00    +0.000 A 
ATOM     22  C   UNL     1      48.790   7.460  21.801  0.00  0.00    +0.000 A 
ATOM     23  S   UNL     1      47.495   8.561  21.637  0.00  0.00    +0.000 S 
ATOM     24  C   UNL     1      47.997   8.988  20.072  0.00  0.00    +0.000 A 
ATOM     25  N   UNL     1      47.238   9.796  19.287  0.00  0.00    +0.000 NA
ATOM     26  C   UNL     1      47.746  10.023  18.121  0.00  0.00    +0.000 A 
ATOM     27  N   UNL     1      48.965   9.561  17.691  0.00  0.00    +0.000 N 
ATOM     28  C   UNL     1      49.814   8.829  18.493  0.00  0.00    +0.000 A 
ATOM     29  O   UNL     1      50.987   8.647  18.184  0.00  0.00    +0.000 OA
ATOM     30  C   UNL     1      49.215   8.418  19.749  0.00  0.00    +0.000 A 
ATOM     31  H   UNL     1      49.352   9.874  16.814  0.00  0.00    +0.000 HD
ENDBRANCH  19  21
ENDBRANCH   1  18
TORSDOF 5
ENDMDL
