MODEL 1
REMARK VINA RESULT:    -8.156      0.000      0.000
REMARK INTER + INTRA:         -12.754
REMARK INTER:                 -11.494
REMARK INTRA:                  -1.260
REMARK UNBOUND:                -1.260
REMARK  Name = 
REMARK  8 active torsions:
REMARK  status: ('A' for Active; 'I' for Inactive)
REMARK    1  A    between atoms: C_1  and  N_2
REMARK    2  A    between atoms: N_2  and  C_3
REMARK    3  A    between atoms: N_2  and  C_10
REMARK    4  A    between atoms: C_3  and  C_4
REMARK    5  A    between atoms: C_10  and  C_11
REMARK    6  A    between atoms: C_14  and  C_15
REMARK    7  A    between atoms: C_15  and  N_16
REMARK    8  A    between atoms: C_17  and  C_19
REMARK                            x       y       z     vdW  Elec       q    Type
REMARK                         _______ _______ _______ _____ _____    ______ ____
ROOT
ATOM      1  C   UNL     1      44.935   5.764  10.925  0.00  0.00    +0.000 A 
ATOM      2  C   UNL     1      44.301   6.622  11.835  0.00  0.00    +0.000 A 
ATOM      3  C   UNL     1      45.051   7.468  12.661  0.00  0.00    +0.000 A 
ATOM      4  C   UNL     1      46.450   7.481  12.587  0.00  0.00    +0.000 A 
ATOM      5  C   UNL     1      47.082   6.631  11.671  0.00  0.00    +0.000 A 
ATOM      6  C   UNL     1      46.334   5.784  10.848  0.00  0.00    +0.000 A 
ENDROOT
BRANCH   1   7
ATOM      7  C   UNL     1      44.139   4.768  10.100  0.00  0.00    +0.000 C 
BRANCH   7   9
ATOM      8  C   UNL     1      43.612   2.784  11.388  0.00  0.00    +0.000 C 
ATOM      9  N   UNL     1      44.478   3.350  10.344  0.00  0.00    +0.000 NA
BRANCH   9  10
ATOM     10  C   UNL     1      44.310   2.543   9.115  0.00  0.00    +0.000 C 
BRANCH  10  11
ATOM     11  C   UNL     1      45.569   2.382   8.292  0.00  0.00    +0.000 A 
ATOM     12  C   UNL     1      46.166   1.129   8.125  0.00  0.00    +0.000 A 
ATOM     13  C   UNL     1      47.331   1.043   7.378  0.00  0.00    +0.000 A 
ATOM     14  N   UNL     1      47.927   2.102   6.786  0.00  0.00    +0.000 NA
ATOM     15  C   UNL     1      47.329   3.300   6.948  0.00  0.00    +0.000 A 
ATOM     16  C   UNL     1      46.165   3.488   7.677  0.00  0.00    +0.000 A 
ENDBRANCH  10  11
ENDBRANCH   9  10
ENDBRANCH   7   9
ENDBRANCH   1   7
BRANCH   4  17
ATOM     17  C   UNL     1      47.268   8.339  13.518  0.00  0.00    +0.000 C 
BRANCH  17  18
ATOM     18  N   UNL     1      47.627   7.612  14.712  0.00  0.00    +0.000 N 
ATOM     19  C   UNL     1      48.842   6.987  14.829  0.00  0.00    +0.000 C 
ATOM     20  O   UNL     1      49.697   7.060  13.950  0.00  0.00    +0.000 OA
ATOM     21  H   UNL     1      46.872   7.365  15.346  0.00  0.00    +0.000 HD
BRANCH  19  22
ATOM     22  C   UNL     1      49.098   6.269  16.085  0.00  0.00    +0.000 A 
ATOM     23  C   UNL     1      50.112   6.703  16.931  0.00  0.00    +0.000 A 
ATOM     24  S   UNL     1      50.257   5.783  18.358  0.00  0.00    +0.000 S 
ATOM     25  C   UNL     1      49.001   4.740  17.878  0.00  0.00    +0.000 A 
ATOM     26  N   UNL     1      48.633   3.688  18.656  0.00  0.00    +0.000 NA
ATOM     27  C   UNL     1      47.684   2.963  18.161  0.00  0.00    +0.000 A 
ATOM     28  N   UNL     1      47.071   3.201  16.958  0.00  0.00    +0.000 N 
ATOM     29  C   UNL     1      47.394   4.264  16.150  0.00  0.00    +0.000 A 
ATOM     30  O   UNL     1      46.800   4.465  15.097  0.00  0.00    +0.000 OA
ATOM     31  C   UNL     1      48.463   5.104  16.654  0.00  0.00    +0.000 A 
ATOM     32  H   UNL     1      46.327   2.601  16.632  0.00  0.00    +0.000 HD
ENDBRANCH  19  22
ENDBRANCH  17  18
ENDBRANCH   4  17
TORSDOF 7
ENDMDL
MODEL 2
REMARK VINA RESULT:    -7.876      1.925      2.375
REMARK INTER + INTRA:         -12.359
REMARK INTER:                 -11.601
REMARK INTRA:                  -0.757
REMARK UNBOUND:                -1.260
REMARK  Name = 
REMARK  8 active torsions:
REMARK  status: ('A' for Active; 'I' for Inactive)
REMARK    1  A    between atoms: C_1  and  N_2
REMARK    2  A    between atoms: N_2  and  C_3
REMARK    3  A    between atoms: N_2  and  C_10
REMARK    4  A    between atoms: C_3  and  C_4
REMARK    5  A    between atoms: C_10  and  C_11
REMARK    6  A    between atoms: C_14  and  C_15
REMARK    7  A    between atoms: C_15  and  N_16
REMARK    8  A    between atoms: C_17  and  C_19
REMARK                            x       y       z     vdW  Elec       q    Type
REMARK                         _______ _______ _______ _____ _____    ______ ____
ROOT
ATOM      1  C   UNL     1      45.596   5.506  11.636  0.00  0.00    +0.000 A 
ATOM      2  C   UNL     1      45.829   4.956  12.905  0.00  0.00    +0.000 A 
ATOM      3  C   UNL     1      46.882   5.419  13.702  0.00  0.00    +0.000 A 
ATOM      4  C   UNL     1      47.718   6.450  13.253  0.00  0.00    +0.000 A 
ATOM      5  C   UNL     1      47.479   7.006  11.989  0.00  0.00    +0.000 A 
ATOM      6  C   UNL     1      46.429   6.541  11.191  0.00  0.00    +0.000 A 
ENDROOT
BRANCH   1   7
ATOM      7  C   UNL     1      44.525   4.941  10.720  0.00  0.00    +0.000 C 
BRANCH   7   9
ATOM      8  C   UNL     1      43.825   2.624  10.822  0.00  0.00    +0.000 C 
ATOM      9  N   UNL     1      44.785   3.569  10.234  0.00  0.00    +0.000 NA
BRANCH   9  10
ATOM     10  C   UNL     1      44.667   3.495   8.761  0.00  0.00    +0.000 C 
BRANCH  10  11
ATOM     11  C   UNL     1      45.798   2.761   8.076  0.00  0.00    +0.000 A 
ATOM     12  C   UNL     1      46.704   3.437   7.255  0.00  0.00    +0.000 A 
ATOM     13  C   UNL     1      47.709   2.710   6.635  0.00  0.00    +0.000 A 
ATOM     14  N   UNL     1      47.877   1.377   6.783  0.00  0.00    +0.000 NA
ATOM     15  C   UNL     1      46.999   0.744   7.588  0.00  0.00    +0.000 A 
ATOM     16  C   UNL     1      45.961   1.382   8.250  0.00  0.00    +0.000 A 
ENDBRANCH  10  11
ENDBRANCH   9  10
ENDBRANCH   7   9
ENDBRANCH   1   7
BRANCH   4  17
ATOM     17  C   UNL     1      48.894   6.910  14.075  0.00  0.00    +0.000 C 
BRANCH  17  18
ATOM     18  N   UNL     1      48.519   7.099  15.456  0.00  0.00    +0.000 N 
ATOM     19  C   UNL     1      49.310   6.645  16.480  0.00  0.00    +0.000 C 
ATOM     20  O   UNL     1      50.395   6.107  16.272  0.00  0.00    +0.000 OA
ATOM     21  H   UNL     1      47.550   7.344  15.641  0.00  0.00    +0.000 HD
BRANCH  19  22
ATOM     22  C   UNL     1      48.827   6.885  17.846  0.00  0.00    +0.000 A 
ATOM     23  C   UNL     1      48.462   8.170  18.231  0.00  0.00    +0.000 A 
ATOM     24  S   UNL     1      47.893   8.271  19.834  0.00  0.00    +0.000 S 
ATOM     25  C   UNL     1      48.156   6.610  20.090  0.00  0.00    +0.000 A 
ATOM     26  N   UNL     1      47.895   6.040  21.296  0.00  0.00    +0.000 NA
ATOM     27  C   UNL     1      48.163   4.778  21.361  0.00  0.00    +0.000 A 
ATOM     28  N   UNL     1      48.666   4.035  20.324  0.00  0.00    +0.000 N 
ATOM     29  C   UNL     1      48.923   4.563  19.082  0.00  0.00    +0.000 A 
ATOM     30  O   UNL     1      49.340   3.861  18.167  0.00  0.00    +0.000 OA
ATOM     31  C   UNL     1      48.650   5.981  18.958  0.00  0.00    +0.000 A 
ATOM     32  H   UNL     1      48.845   3.048  20.437  0.00  0.00    +0.000 HD
ENDBRANCH  19  22
ENDBRANCH  17  18
ENDBRANCH   4  17
TORSDOF 7
ENDMDL
MODEL 3
REMARK VINA RESULT:    -7.574      2.326      2.811
REMARK INTER + INTRA:         -11.933
REMARK INTER:                 -10.959
REMARK INTRA:                  -0.974
REMARK UNBOUND:                -1.260
REMARK  Name = 
REMARK  8 active torsions:
REMARK  status: ('A' for Active; 'I' for Inactive)
REMARK    1  A    between atoms: C_1  and  N_2
REMARK    2  A    between atoms: N_2  and  C_3
REMARK    3  A    between atoms: N_2  and  C_10
REMARK    4  A    between atoms: C_3  and  C_4
REMARK    5  A    between atoms: C_10  and  C_11
REMARK    6  A    between atoms: C_14  and  C_15
REMARK    7  A    between atoms: C_15  and  N_16
REMARK    8  A    between atoms: C_17  and  C_19
REMARK                            x       y       z     vdW  Elec       q    Type
REMARK                         _______ _______ _______ _____ _____    ______ ____
ROOT
ATOM      1  C   UNL     1      45.565   5.421  11.724  0.00  0.00    +0.000 A 
ATOM      2  C   UNL     1      45.920   4.718  12.884  0.00  0.00    +0.000 A 
ATOM      3  C   UNL     1      46.942   5.186  13.719  0.00  0.00    +0.000 A 
ATOM      4  C   UNL     1      47.622   6.373  13.417  0.00  0.00    +0.000 A 
ATOM      5  C   UNL     1      47.260   7.081  12.264  0.00  0.00    +0.000 A 
ATOM      6  C   UNL     1      46.242   6.612  11.428  0.00  0.00    +0.000 A 
ENDROOT
BRANCH   1   7
ATOM      7  C   UNL     1      44.533   4.869  10.756  0.00  0.00    +0.000 C 
BRANCH   7   9
ATOM      8  C   UNL     1      43.739   2.624  11.202  0.00  0.00    +0.000 C 
ATOM      9  N   UNL     1      44.692   3.436  10.432  0.00  0.00    +0.000 NA
BRANCH   9  10
ATOM     10  C   UNL     1      44.456   3.186   8.993  0.00  0.00    +0.000 C 
BRANCH  10  11
ATOM     11  C   UNL     1      45.634   2.587   8.257  0.00  0.00    +0.000 A 
ATOM     12  C   UNL     1      45.865   1.208   8.266  0.00  0.00    +0.000 A 
ATOM     13  C   UNL     1      46.972   0.716   7.592  0.00  0.00    +0.000 A 
ATOM     14  N   UNL     1      47.848   1.489   6.913  0.00  0.00    +0.000 NA
ATOM     15  C   UNL     1      47.602   2.816   6.907  0.00  0.00    +0.000 A 
ATOM     16  C   UNL     1      46.524   3.403   7.551  0.00  0.00    +0.000 A 
ENDBRANCH  10  11
ENDBRANCH   9  10
ENDBRANCH   7   9
ENDBRANCH   1   7
BRANCH   4  17
ATOM     17  C   UNL     1      48.767   6.851  14.273  0.00  0.00    +0.000 C 
BRANCH  17  18
ATOM     18  N   UNL     1      48.450   6.732  15.677  0.00  0.00    +0.000 N 
ATOM     19  C   UNL     1      49.374   6.278  16.582  0.00  0.00    +0.000 C 
ATOM     20  O   UNL     1      50.525   6.003  16.251  0.00  0.00    +0.000 OA
ATOM     21  H   UNL     1      47.466   6.750  15.930  0.00  0.00    +0.000 HD
BRANCH  19  22
ATOM     22  C   UNL     1      48.941   6.190  17.982  0.00  0.00    +0.000 A 
ATOM     23  C   UNL     1      49.102   4.997  18.678  0.00  0.00    +0.000 A 
ATOM     24  S   UNL     1      48.579   5.070  20.298  0.00  0.00    +0.000 S 
ATOM     25  C   UNL     1      48.073   6.684  20.119  0.00  0.00    +0.000 A 
ATOM     26  N   UNL     1      47.491   7.351  21.150  0.00  0.00    +0.000 NA
ATOM     27  C   UNL     1      47.132   8.561  20.871  0.00  0.00    +0.000 A 
ATOM     28  N   UNL     1      47.307   9.162  19.651  0.00  0.00    +0.000 N 
ATOM     29  C   UNL     1      47.909   8.535  18.587  0.00  0.00    +0.000 A 
ATOM     30  O   UNL     1      48.081   9.114  17.521  0.00  0.00    +0.000 OA
ATOM     31  C   UNL     1      48.322   7.169  18.844  0.00  0.00    +0.000 A 
ATOM     32  H   UNL     1      47.013  10.115  19.499  0.00  0.00    +0.000 HD
ENDBRANCH  19  22
ENDBRANCH  17  18
ENDBRANCH   4  17
TORSDOF 7
ENDMDL
MODEL 4
REMARK VINA RESULT:    -7.263      2.764      7.942
REMARK INTER + INTRA:         -11.496
REMARK INTER:                  -9.688
REMARK INTRA:                  -1.808
REMARK UNBOUND:                -1.260
REMARK  Name = 
REMARK  8 active torsions:
REMARK  status: ('A' for Active; 'I' for Inactive)
REMARK    1  A    between atoms: C_1  and  N_2
REMARK    2  A    between atoms: N_2  and  C_3
REMARK    3  A    between atoms: N_2  and  C_10
REMARK    4  A    between atoms: C_3  and  C_4
REMARK    5  A    between atoms: C_10  and  C_11
REMARK    6  A    between atoms: C_14  and  C_15
REMARK    7  A    between atoms: C_15  and  N_16
REMARK    8  A    between atoms: C_17  and  C_19
REMARK                            x       y       z     vdW  Elec       q    Type
REMARK                         _______ _______ _______ _____ _____    ______ ____
ROOT
ATOM      1  C   UNL     1      49.310   8.192  15.968  0.00  0.00    +0.000 A 
ATOM      2  C   UNL     1      50.000   7.416  15.026  0.00  0.00    +0.000 A 
ATOM      3  C   UNL     1      49.544   7.324  13.705  0.00  0.00    +0.000 A 
ATOM      4  C   UNL     1      48.397   8.016  13.296  0.00  0.00    +0.000 A 
ATOM      5  C   UNL     1      47.714   8.800  14.235  0.00  0.00    +0.000 A 
ATOM      6  C   UNL     1      48.167   8.889  15.555  0.00  0.00    +0.000 A 
ENDROOT
BRANCH   1   7
ATOM      7  C   UNL     1      49.733   8.215  17.427  0.00  0.00    +0.000 C 
BRANCH   7   9
ATOM      8  C   UNL     1      50.447   7.011  19.404  0.00  0.00    +0.000 C 
ATOM      9  N   UNL     1      49.911   6.883  18.041  0.00  0.00    +0.000 NA
BRANCH   9  10
ATOM     10  C   UNL     1      48.626   6.154  18.115  0.00  0.00    +0.000 C 
BRANCH  10  11
ATOM     11  C   UNL     1      48.604   4.839  17.367  0.00  0.00    +0.000 A 
ATOM     12  C   UNL     1      47.747   4.641  16.281  0.00  0.00    +0.000 A 
ATOM     13  C   UNL     1      47.755   3.408  15.647  0.00  0.00    +0.000 A 
ATOM     14  N   UNL     1      48.552   2.378  16.008  0.00  0.00    +0.000 NA
ATOM     15  C   UNL     1      49.380   2.593  17.051  0.00  0.00    +0.000 A 
ATOM     16  C   UNL     1      49.445   3.789  17.750  0.00  0.00    +0.000 A 
ENDBRANCH  10  11
ENDBRANCH   9  10
ENDBRANCH   7   9
ENDBRANCH   1   7
BRANCH   4  17
ATOM     17  C   UNL     1      47.862   7.872  11.895  0.00  0.00    +0.000 C 
BRANCH  17  18
ATOM     18  N   UNL     1      47.095   6.657  11.755  0.00  0.00    +0.000 N 
ATOM     19  C   UNL     1      45.724   6.670  11.790  0.00  0.00    +0.000 C 
ATOM     20  O   UNL     1      45.088   7.717  11.889  0.00  0.00    +0.000 OA
ATOM     21  H   UNL     1      47.591   5.781  11.885  0.00  0.00    +0.000 HD
BRANCH  19  22
ATOM     22  C   UNL     1      45.046   5.375  11.648  0.00  0.00    +0.000 A 
ATOM     23  C   UNL     1      44.356   4.837  12.728  0.00  0.00    +0.000 A 
ATOM     24  S   UNL     1      43.600   3.348  12.388  0.00  0.00    +0.000 S 
ATOM     25  C   UNL     1      44.205   3.342  10.798  0.00  0.00    +0.000 A 
ATOM     26  N   UNL     1      43.946   2.306   9.958  0.00  0.00    +0.000 NA
ATOM     27  C   UNL     1      44.487   2.417   8.789  0.00  0.00    +0.000 A 
ATOM     28  N   UNL     1      45.261   3.475   8.388  0.00  0.00    +0.000 N 
ATOM     29  C   UNL     1      45.530   4.554   9.194  0.00  0.00    +0.000 A 
ATOM     30  O   UNL     1      46.197   5.499   8.790  0.00  0.00    +0.000 OA
ATOM     31  C   UNL     1      44.956   4.474  10.523  0.00  0.00    +0.000 A 
ATOM     32  H   UNL     1      45.647   3.506   7.455  0.00  0.00    +0.000 HD
ENDBRANCH  19  22
ENDBRANCH  17  18
ENDBRANCH   4  17
TORSDOF 7
ENDMDL
MODEL 5
REMARK VINA RESULT:    -7.056      3.202      7.777
REMARK INTER + INTRA:         -11.204
REMARK INTER:                  -9.939
REMARK INTRA:                  -1.265
REMARK UNBOUND:                -1.260
REMARK  Name = 
REMARK  8 active torsions:
REMARK  status: ('A' for Active; 'I' for Inactive)
REMARK    1  A    between atoms: C_1  and  N_2
REMARK    2  A    between atoms: N_2  and  C_3
REMARK    3  A    between atoms: N_2  and  C_10
REMARK    4  A    between atoms: C_3  and  C_4
REMARK    5  A    between atoms: C_10  and  C_11
REMARK    6  A    between atoms: C_14  and  C_15
REMARK    7  A    between atoms: C_15  and  N_16
REMARK    8  A    between atoms: C_17  and  C_19
REMARK                            x       y       z     vdW  Elec       q    Type
REMARK                         _______ _______ _______ _____ _____    ______ ____
ROOT
ATOM      1  C   UNL     1      48.726   7.652  16.407  0.00  0.00    +0.000 A 
ATOM      2  C   UNL     1      48.434   8.904  15.845  0.00  0.00    +0.000 A 
ATOM      3  C   UNL     1      48.293   9.050  14.460  0.00  0.00    +0.000 A 
ATOM      4  C   UNL     1      48.428   7.946  13.608  0.00  0.00    +0.000 A 
ATOM      5  C   UNL     1      48.709   6.694  14.170  0.00  0.00    +0.000 A 
ATOM      6  C   UNL     1      48.853   6.548  15.553  0.00  0.00    +0.000 A 
ENDROOT
BRANCH   1   7
ATOM      7  C   UNL     1      48.986   7.500  17.895  0.00  0.00    +0.000 C 
BRANCH   7   9
ATOM      8  C   UNL     1      50.829   6.815  19.310  0.00  0.00    +0.000 C 
ATOM      9  N   UNL     1      49.897   6.394  18.255  0.00  0.00    +0.000 NA
BRANCH   9  10
ATOM     10  C   UNL     1      49.141   5.220  18.746  0.00  0.00    +0.000 C 
BRANCH  10  11
ATOM     11  C   UNL     1      49.299   3.973  17.905  0.00  0.00    +0.000 A 
ATOM     12  C   UNL     1      50.523   3.303  17.832  0.00  0.00    +0.000 A 
ATOM     13  C   UNL     1      50.616   2.177  17.028  0.00  0.00    +0.000 A 
ATOM     14  N   UNL     1      49.586   1.675  16.311  0.00  0.00    +0.000 NA
ATOM     15  C   UNL     1      48.410   2.329  16.404  0.00  0.00    +0.000 A 
ATOM     16  C   UNL     1      48.218   3.463  17.178  0.00  0.00    +0.000 A 
ENDBRANCH  10  11
ENDBRANCH   9  10
ENDBRANCH   7   9
ENDBRANCH   1   7
BRANCH   4  17
ATOM     17  C   UNL     1      48.342   8.105  12.112  0.00  0.00    +0.000 C 
BRANCH  17  18
ATOM     18  N   UNL     1      47.646   6.993  11.510  0.00  0.00    +0.000 N 
ATOM     19  C   UNL     1      46.278   6.967  11.429  0.00  0.00    +0.000 C 
ATOM     20  O   UNL     1      45.587   7.907  11.815  0.00  0.00    +0.000 OA
ATOM     21  H   UNL     1      48.173   6.134  11.384  0.00  0.00    +0.000 HD
BRANCH  19  22
ATOM     22  C   UNL     1      45.675   5.782  10.806  0.00  0.00    +0.000 A 
ATOM     23  C   UNL     1      45.825   5.572   9.440  0.00  0.00    +0.000 A 
ATOM     24  S   UNL     1      45.095   4.137   8.880  0.00  0.00    +0.000 S 
ATOM     25  C   UNL     1      44.509   3.766  10.434  0.00  0.00    +0.000 A 
ATOM     26  N   UNL     1      43.757   2.654  10.648  0.00  0.00    +0.000 NA
ATOM     27  C   UNL     1      43.356   2.505  11.868  0.00  0.00    +0.000 A 
ATOM     28  N   UNL     1      43.646   3.370  12.892  0.00  0.00    +0.000 N 
ATOM     29  C   UNL     1      44.420   4.493  12.727  0.00  0.00    +0.000 A 
ATOM     30  O   UNL     1      44.687   5.225  13.673  0.00  0.00    +0.000 OA
ATOM     31  C   UNL     1      44.886   4.713  11.372  0.00  0.00    +0.000 A 
ATOM     32  H   UNL     1      43.310   3.191  13.827  0.00  0.00    +0.000 HD
ENDBRANCH  19  22
ENDBRANCH  17  18
ENDBRANCH   4  17
TORSDOF 7
ENDMDL
MODEL 6
REMARK VINA RESULT:    -6.988      1.885      2.331
REMARK INTER + INTRA:         -11.108
REMARK INTER:                  -9.852
REMARK INTRA:                  -1.256
REMARK UNBOUND:                -1.260
REMARK  Name = 
REMARK  8 active torsions:
REMARK  status: ('A' for Active; 'I' for Inactive)
REMARK    1  A    between atoms: C_1  and  N_2
REMARK    2  A    between atoms: N_2  and  C_3
REMARK    3  A    between atoms: N_2  and  C_10
REMARK    4  A    between atoms: C_3  and  C_4
REMARK    5  A    between atoms: C_10  and  C_11
REMARK    6  A    between atoms: C_14  and  C_15
REMARK    7  A    between atoms: C_15  and  N_16
REMARK    8  A    between atoms: C_17  and  C_19
REMARK                            x       y       z     vdW  Elec       q    Type
REMARK                         _______ _______ _______ _____ _____    ______ ____
ROOT
ATOM      1  C   UNL     1      45.430   6.003  12.215  0.00  0.00    +0.000 A 
ATOM      2  C   UNL     1      46.453   5.333  12.902  0.00  0.00    +0.000 A 
ATOM      3  C   UNL     1      47.658   5.981  13.199  0.00  0.00    +0.000 A 
ATOM      4  C   UNL     1      47.861   7.316  12.826  0.00  0.00    +0.000 A 
ATOM      5  C   UNL     1      46.835   7.988  12.150  0.00  0.00    +0.000 A 
ATOM      6  C   UNL     1      45.633   7.341  11.850  0.00  0.00    +0.000 A 
ENDROOT
BRANCH   1   7
ATOM      7  C   UNL     1      44.163   5.280  11.794  0.00  0.00    +0.000 C 
BRANCH   7   9
ATOM      8  C   UNL     1      43.564   2.940  11.973  0.00  0.00    +0.000 C 
ATOM      9  N   UNL     1      44.375   3.925  11.245  0.00  0.00    +0.000 NA
BRANCH   9  10
ATOM     10  C   UNL     1      44.002   3.866   9.814  0.00  0.00    +0.000 C 
BRANCH  10  11
ATOM     11  C   UNL     1      45.080   3.319   8.905  0.00  0.00    +0.000 A 
ATOM     12  C   UNL     1      45.360   1.950   8.861  0.00  0.00    +0.000 A 
ATOM     13  C   UNL     1      46.373   1.507   8.025  0.00  0.00    +0.000 A 
ATOM     14  N   UNL     1      47.109   2.319   7.234  0.00  0.00    +0.000 NA
ATOM     15  C   UNL     1      46.815   3.635   7.282  0.00  0.00    +0.000 A 
ATOM     16  C   UNL     1      45.823   4.175   8.085  0.00  0.00    +0.000 A 
ENDBRANCH  10  11
ENDBRANCH   9  10
ENDBRANCH   7   9
ENDBRANCH   1   7
BRANCH   4  17
ATOM     17  C   UNL     1      49.179   8.001  13.083  0.00  0.00    +0.000 C 
BRANCH  17  18
ATOM     18  N   UNL     1      49.981   7.249  14.018  0.00  0.00    +0.000 N 
ATOM     19  C   UNL     1      50.801   7.876  14.921  0.00  0.00    +0.000 C 
ATOM     20  O   UNL     1      50.850   9.100  15.012  0.00  0.00    +0.000 OA
ATOM     21  H   UNL     1      50.114   6.261  13.821  0.00  0.00    +0.000 HD
BRANCH  19  22
ATOM     22  C   UNL     1      51.579   7.011  15.819  0.00  0.00    +0.000 A 
ATOM     23  C   UNL     1      52.964   7.119  15.847  0.00  0.00    +0.000 A 
ATOM     24  S   UNL     1      53.713   6.071  16.963  0.00  0.00    +0.000 S 
ATOM     25  C   UNL     1      52.217   5.399  17.417  0.00  0.00    +0.000 A 
ATOM     26  N   UNL     1      52.152   4.401  18.337  0.00  0.00    +0.000 NA
ATOM     27  C   UNL     1      50.958   3.965  18.571  0.00  0.00    +0.000 A 
ATOM     28  N   UNL     1      49.824   4.444  17.967  0.00  0.00    +0.000 N 
ATOM     29  C   UNL     1      49.839   5.467  17.050  0.00  0.00    +0.000 A 
ATOM     30  O   UNL     1      48.801   5.893  16.556  0.00  0.00    +0.000 OA
ATOM     31  C   UNL     1      51.158   5.985  16.742  0.00  0.00    +0.000 A 
ATOM     32  H   UNL     1      48.917   4.067  18.201  0.00  0.00    +0.000 HD
ENDBRANCH  19  22
ENDBRANCH  17  18
ENDBRANCH   4  17
TORSDOF 7
ENDMDL
MODEL 7
REMARK VINA RESULT:    -6.675      4.485      6.245
REMARK INTER + INTRA:         -10.667
REMARK INTER:                  -9.368
REMARK INTRA:                  -1.298
REMARK UNBOUND:                -1.260
REMARK  Name = 
REMARK  8 active torsions:
REMARK  status: ('A' for Active; 'I' for Inactive)
REMARK    1  A    between atoms: C_1  and  N_2
REMARK    2  A    between atoms: N_2  and  C_3
REMARK    3  A    between atoms: N_2  and  C_10
REMARK    4  A    between atoms: C_3  and  C_4
REMARK    5  A    between atoms: C_10  and  C_11
REMARK    6  A    between atoms: C_14  and  C_15
REMARK    7  A    between atoms: C_15  and  N_16
REMARK    8  A    between atoms: C_17  and  C_19
REMARK                            x       y       z     vdW  Elec       q    Type
REMARK                         _______ _______ _______ _____ _____    ______ ____
ROOT
ATOM      1  C   UNL     1      45.693   5.735  12.095  0.00  0.00    +0.000 A 
ATOM      2  C   UNL     1      46.287   5.449  13.332  0.00  0.00    +0.000 A 
ATOM      3  C   UNL     1      47.567   5.929  13.638  0.00  0.00    +0.000 A 
ATOM      4  C   UNL     1      48.273   6.715  12.718  0.00  0.00    +0.000 A 
ATOM      5  C   UNL     1      47.675   7.009  11.486  0.00  0.00    +0.000 A 
ATOM      6  C   UNL     1      46.399   6.527  11.179  0.00  0.00    +0.000 A 
ENDROOT
BRANCH   1   7
ATOM      7  C   UNL     1      44.353   5.134  11.710  0.00  0.00    +0.000 C 
BRANCH   7   9
ATOM      8  C   UNL     1      43.498   2.882  11.969  0.00  0.00    +0.000 C 
ATOM      9  N   UNL     1      44.417   3.743  11.213  0.00  0.00    +0.000 NA
BRANCH   9  10
ATOM     10  C   UNL     1      44.049   3.672   9.782  0.00  0.00    +0.000 C 
BRANCH  10  11
ATOM     11  C   UNL     1      45.153   3.181   8.872  0.00  0.00    +0.000 A 
ATOM     12  C   UNL     1      45.873   4.068   8.066  0.00  0.00    +0.000 A 
ATOM     13  C   UNL     1      46.860   3.559   7.236  0.00  0.00    +0.000 A 
ATOM     14  N   UNL     1      47.181   2.249   7.161  0.00  0.00    +0.000 NA
ATOM     15  C   UNL     1      46.484   1.410   7.954  0.00  0.00    +0.000 A 
ATOM     16  C   UNL     1      45.479   1.821   8.816  0.00  0.00    +0.000 A 
ENDBRANCH  10  11
ENDBRANCH   9  10
ENDBRANCH   7   9
ENDBRANCH   1   7
BRANCH   4  17
ATOM     17  C   UNL     1      49.676   7.181  13.012  0.00  0.00    +0.000 C 
BRANCH  17  18
ATOM     18  N   UNL     1      50.292   7.746  11.835  0.00  0.00    +0.000 N 
ATOM     19  C   UNL     1      51.386   8.568  11.927  0.00  0.00    +0.000 C 
ATOM     20  O   UNL     1      51.921   8.818  13.004  0.00  0.00    +0.000 OA
ATOM     21  H   UNL     1      49.750   7.726  10.977  0.00  0.00    +0.000 HD
BRANCH  19  22
ATOM     22  C   UNL     1      51.925   9.094  10.666  0.00  0.00    +0.000 A 
ATOM     23  C   UNL     1      51.811  10.450  10.382  0.00  0.00    +0.000 A 
ATOM     24  S   UNL     1      52.515  10.903   8.897  0.00  0.00    +0.000 S 
ATOM     25  C   UNL     1      52.958   9.296   8.555  0.00  0.00    +0.000 A 
ATOM     26  N   UNL     1      53.586   8.978   7.393  0.00  0.00    +0.000 NA
ATOM     27  C   UNL     1      53.842   7.719   7.249  0.00  0.00    +0.000 A 
ATOM     28  N   UNL     1      53.528   6.752   8.169  0.00  0.00    +0.000 N 
ATOM     29  C   UNL     1      52.914   7.029   9.366  0.00  0.00    +0.000 A 
ATOM     30  O   UNL     1      52.679   6.144  10.180  0.00  0.00    +0.000 OA
ATOM     31  C   UNL     1      52.593   8.428   9.573  0.00  0.00    +0.000 A 
ATOM     32  H   UNL     1      53.764   5.785   8.001  0.00  0.00    +0.000 HD
ENDBRANCH  19  22
ENDBRANCH  17  18
ENDBRANCH   4  17
TORSDOF 7
ENDMDL
MODEL 8
REMARK VINA RESULT:    -6.556      3.353      7.891
REMARK INTER + INTRA:         -10.499
REMARK INTER:                  -8.604
REMARK INTRA:                  -1.895
REMARK UNBOUND:                -1.260
REMARK  Name = 
REMARK  8 active torsions:
REMARK  status: ('A' for Active; 'I' for Inactive)
REMARK    1  A    between atoms: C_1  and  N_2
REMARK    2  A    between atoms: N_2  and  C_3
REMARK    3  A    between atoms: N_2  and  C_10
REMARK    4  A    between atoms: C_3  and  C_4
REMARK    5  A    between atoms: C_10  and  C_11
REMARK    6  A    between atoms: C_14  and  C_15
REMARK    7  A    between atoms: C_15  and  N_16
REMARK    8  A    between atoms: C_17  and  C_19
REMARK                            x       y       z     vdW  Elec       q    Type
REMARK                         _______ _______ _______ _____ _____    ______ ____
ROOT
ATOM      1  C   UNL     1      50.432   7.055  18.178  0.00  0.00    +0.000 A 
ATOM      2  C   UNL     1      49.358   7.929  17.954  0.00  0.00    +0.000 A 
ATOM      3  C   UNL     1      49.057   8.374  16.661  0.00  0.00    +0.000 A 
ATOM      4  C   UNL     1      49.817   7.946  15.564  0.00  0.00    +0.000 A 
ATOM      5  C   UNL     1      50.882   7.065  15.787  0.00  0.00    +0.000 A 
ATOM      6  C   UNL     1      51.185   6.622  17.079  0.00  0.00    +0.000 A 
ENDROOT
BRANCH   1   7
ATOM      7  C   UNL     1      50.833   6.649  19.586  0.00  0.00    +0.000 C 
BRANCH   7   9
ATOM      8  C   UNL     1      50.958   4.935  21.293  0.00  0.00    +0.000 C 
ATOM      9  N   UNL     1      50.736   5.201  19.865  0.00  0.00    +0.000 NA
BRANCH   9  10
ATOM     10  C   UNL     1      49.403   4.676  19.496  0.00  0.00    +0.000 C 
BRANCH  10  11
ATOM     11  C   UNL     1      49.410   3.686  18.353  0.00  0.00    +0.000 A 
ATOM     12  C   UNL     1      48.247   3.411  17.629  0.00  0.00    +0.000 A 
ATOM     13  C   UNL     1      48.308   2.479  16.604  0.00  0.00    +0.000 A 
ATOM     14  N   UNL     1      49.433   1.818  16.250  0.00  0.00    +0.000 NA
ATOM     15  C   UNL     1      50.547   2.106  16.954  0.00  0.00    +0.000 A 
ATOM     16  C   UNL     1      50.588   3.020  17.995  0.00  0.00    +0.000 A 
ENDBRANCH  10  11
ENDBRANCH   9  10
ENDBRANCH   7   9
ENDBRANCH   1   7
BRANCH   4  17
ATOM     17  C   UNL     1      49.542   8.471  14.178  0.00  0.00    +0.000 C 
BRANCH  17  18
ATOM     18  N   UNL     1      48.568   7.652  13.497  0.00  0.00    +0.000 N 
ATOM     19  C   UNL     1      47.241   7.994  13.469  0.00  0.00    +0.000 C 
ATOM     20  O   UNL     1      46.829   9.035  13.975  0.00  0.00    +0.000 OA
ATOM     21  H   UNL     1      48.847   6.703  13.263  0.00  0.00    +0.000 HD
BRANCH  19  22
ATOM     22  C   UNL     1      46.337   7.083  12.754  0.00  0.00    +0.000 A 
ATOM     23  C   UNL     1      45.418   7.598  11.848  0.00  0.00    +0.000 A 
ATOM     24  S   UNL     1      44.468   6.408  11.081  0.00  0.00    +0.000 S 
ATOM     25  C   UNL     1      45.218   5.163  11.966  0.00  0.00    +0.000 A 
ATOM     26  N   UNL     1      44.839   3.868  11.805  0.00  0.00    +0.000 NA
ATOM     27  C   UNL     1      45.472   3.028  12.556  0.00  0.00    +0.000 A 
ATOM     28  N   UNL     1      46.452   3.370  13.451  0.00  0.00    +0.000 N 
ATOM     29  C   UNL     1      46.884   4.662  13.631  0.00  0.00    +0.000 A 
ATOM     30  O   UNL     1      47.787   4.928  14.415  0.00  0.00    +0.000 OA
ATOM     31  C   UNL     1      46.197   5.648  12.819  0.00  0.00    +0.000 A 
ATOM     32  H   UNL     1      46.916   2.663  14.002  0.00  0.00    +0.000 HD
ENDBRANCH  19  22
ENDBRANCH  17  18
ENDBRANCH   4  17
TORSDOF 7
ENDMDL
MODEL 9
REMARK VINA RESULT:    -6.362      2.911      3.324
REMARK INTER + INTRA:         -10.225
REMARK INTER:                  -9.907
REMARK INTRA:                  -0.318
REMARK UNBOUND:                -1.260
REMARK  Name = 
REMARK  8 active torsions:
REMARK  status: ('A' for Active; 'I' for Inactive)
REMARK    1  A    between atoms: C_1  and  N_2
REMARK    2  A    between atoms: N_2  and  C_3
REMARK    3  A    between atoms: N_2  and  C_10
REMARK    4  A    between atoms: C_3  and  C_4
REMARK    5  A    between atoms: C_10  and  C_11
REMARK    6  A    between atoms: C_14  and  C_15
REMARK    7  A    between atoms: C_15  and  N_16
REMARK    8  A    between atoms: C_17  and  C_19
REMARK                            x       y       z     vdW  Elec       q    Type
REMARK                         _______ _______ _______ _____ _____    ______ ____
ROOT
ATOM      1  C   UNL     1      45.921   4.513  12.643  0.00  0.00    +0.000 A 
ATOM      2  C   UNL     1      46.495   4.419  13.919  0.00  0.00    +0.000 A 
ATOM      3  C   UNL     1      47.280   5.461  14.428  0.00  0.00    +0.000 A 
ATOM      4  C   UNL     1      47.496   6.624  13.677  0.00  0.00    +0.000 A 
ATOM      5  C   UNL     1      46.913   6.722  12.407  0.00  0.00    +0.000 A 
ATOM      6  C   UNL     1      46.132   5.680  11.897  0.00  0.00    +0.000 A 
ENDROOT
BRANCH   1   7
ATOM      7  C   UNL     1      45.158   3.348  12.038  0.00  0.00    +0.000 C 
BRANCH   7   9
ATOM      8  C   UNL     1      43.194   4.669  12.555  0.00  0.00    +0.000 C 
ATOM      9  N   UNL     1      43.761   3.651  11.660  0.00  0.00    +0.000 NA
BRANCH   9  10
ATOM     10  C   UNL     1      43.683   4.157  10.272  0.00  0.00    +0.000 C 
BRANCH  10  11
ATOM     11  C   UNL     1      44.660   3.515   9.313  0.00  0.00    +0.000 A 
ATOM     12  C   UNL     1      44.810   2.126   9.257  0.00  0.00    +0.000 A 
ATOM     13  C   UNL     1      45.737   1.594   8.373  0.00  0.00    +0.000 A 
ATOM     14  N   UNL     1      46.506   2.337   7.547  0.00  0.00    +0.000 NA
ATOM     15  C   UNL     1      46.339   3.675   7.608  0.00  0.00    +0.000 A 
ATOM     16  C   UNL     1      45.440   4.301   8.458  0.00  0.00    +0.000 A 
ENDBRANCH  10  11
ENDBRANCH   9  10
ENDBRANCH   7   9
ENDBRANCH   1   7
BRANCH   4  17
ATOM     17  C   UNL     1      48.392   7.722  14.188  0.00  0.00    +0.000 C 
BRANCH  17  18
ATOM     18  N   UNL     1      48.002   8.133  15.516  0.00  0.00    +0.000 N 
ATOM     19  C   UNL     1      48.626   9.175  16.153  0.00  0.00    +0.000 C 
ATOM     20  O   UNL     1      49.505   9.837  15.606  0.00  0.00    +0.000 OA
ATOM     21  H   UNL     1      47.440   7.481  16.055  0.00  0.00    +0.000 HD
BRANCH  19  22
ATOM     22  C   UNL     1      48.154   9.502  17.505  0.00  0.00    +0.000 A 
ATOM     23  C   UNL     1      47.826  10.815  17.820  0.00  0.00    +0.000 A 
ATOM     24  S   UNL     1      47.266  11.019  19.417  0.00  0.00    +0.000 S 
ATOM     25  C   UNL     1      47.487   9.368  19.763  0.00  0.00    +0.000 A 
ATOM     26  N   UNL     1      47.216   8.872  21.000  0.00  0.00    +0.000 NA
ATOM     27  C   UNL     1      47.452   7.608  21.133  0.00  0.00    +0.000 A 
ATOM     28  N   UNL     1      47.930   6.798  20.136  0.00  0.00    +0.000 N 
ATOM     29  C   UNL     1      48.196   7.249  18.866  0.00  0.00    +0.000 A 
ATOM     30  O   UNL     1      48.590   6.488  17.990  0.00  0.00    +0.000 OA
ATOM     31  C   UNL     1      47.960   8.666  18.666  0.00  0.00    +0.000 A 
ATOM     32  H   UNL     1      48.084   5.814  20.302  0.00  0.00    +0.000 HD
ENDBRANCH  19  22
ENDBRANCH  17  18
ENDBRANCH   4  17
TORSDOF 7
ENDMDL
