MODEL 1
REMARK VINA RESULT:    -7.895      0.000      0.000
REMARK INTER + INTRA:         -13.403
REMARK INTER:                 -12.048
REMARK INTRA:                  -1.354
REMARK UNBOUND:                -1.354
REMARK  Name = 
REMARK  10 active torsions:
REMARK  status: ('A' for Active; 'I' for Inactive)
REMARK    1  A    between atoms: C_1  and  C_2
REMARK    2  A    between atoms: C_2  and  C_3
REMARK    3  A    between atoms: C_3  and  C_4
REMARK    4  A    between atoms: C_4  and  C_5
REMARK    5  A    between atoms: C_7  and  C_8
REMARK    6  A    between atoms: C_8  and  C_9
REMARK    7  A    between atoms: C_9  and  C_10
REMARK    8  A    between atoms: C_13  and  C_14
REMARK    9  A    between atoms: C_20  and  S_21
REMARK   10  A    between atoms: S_21  and  C_22
REMARK                            x       y       z     vdW  Elec       q    Type
REMARK                         _______ _______ _______ _____ _____    ______ ____
ROOT
ATOM      1  C   UNL     1      46.328   6.714  12.946  0.00  0.00    +0.000 A 
ATOM      2  C   UNL     1      45.221   6.166  12.300  0.00  0.00    +0.000 A 
ATOM      3  C   UNL     1      44.908   4.820  12.463  0.00  0.00    +0.000 A 
ATOM      4  N   UNL     1      45.621   4.019  13.293  0.00  0.00    +0.000 NA
ATOM      5  C   UNL     1      46.685   4.559  13.936  0.00  0.00    +0.000 A 
ATOM      6  C   UNL     1      47.094   5.877  13.755  0.00  0.00    +0.000 A 
ENDROOT
BRANCH   1   7
ATOM      7  C   UNL     1      46.629   8.182  12.782  0.00  0.00    +0.000 C 
BRANCH   7   8
ATOM      8  C   UNL     1      48.110   8.460  13.068  0.00  0.00    +0.000 C 
BRANCH   8  10
ATOM      9  C   UNL     1      49.852   7.637  11.467  0.00  0.00    +0.000 C 
ATOM     10  C   UNL     1      48.899   8.775  11.802  0.00  0.00    +0.000 C 
ENDBRANCH   8  10
ENDBRANCH   7   8
ENDBRANCH   1   7
BRANCH   3  11
ATOM     11  C   UNL     1      43.721   4.207  11.751  0.00  0.00    +0.000 C 
BRANCH  11  12
ATOM     12  C   UNL     1      43.623   4.597  10.267  0.00  0.00    +0.000 C 
BRANCH  12  13
ATOM     13  C   UNL     1      44.559   3.834   9.370  0.00  0.00    +0.000 A 
ATOM     14  C   UNL     1      45.404   4.520   8.489  0.00  0.00    +0.000 A 
ATOM     15  C   UNL     1      46.313   3.820   7.694  0.00  0.00    +0.000 A 
ATOM     16  C   UNL     1      46.393   2.428   7.783  0.00  0.00    +0.000 A 
ATOM     17  C   UNL     1      45.534   1.734   8.641  0.00  0.00    +0.000 A 
ATOM     18  C   UNL     1      44.618   2.436   9.433  0.00  0.00    +0.000 A 
BRANCH  16  19
ATOM     19  C   UNL     1      47.394   1.730   6.932  0.00  0.00    +0.000 C 
ATOM     20  N   UNL     1      48.438   2.469   6.445  0.00  0.00    +0.000 N 
ATOM     21  O   UNL     1      47.281   0.544   6.647  0.00  0.00    +0.000 OA
ATOM     22  H   UNL     1      48.436   3.477   6.447  0.00  0.00    +0.000 HD
ATOM     23  H   UNL     1      49.034   1.997   5.779  0.00  0.00    +0.000 HD
ENDBRANCH  16  19
ENDBRANCH  12  13
ENDBRANCH  11  12
ENDBRANCH   3  11
BRANCH   5  24
ATOM     24  S   UNL     1      47.669   3.484  14.965  0.00  0.00    +0.000 S 
BRANCH  24  25
ATOM     25  C   UNL     1      47.300   4.071  16.670  0.00  0.00    +0.000 C 
ATOM     26  C   UNL     1      48.201   5.172  17.210  0.00  0.00    +0.000 C 
ATOM     27  C   UNL     1      48.969   4.514  18.342  0.00  0.00    +0.000 C 
ATOM     28  N   UNL     1      48.052   3.515  18.904  0.00  0.00    +0.000 NA
ATOM     29  C   UNL     1      47.289   2.990  17.757  0.00  0.00    +0.000 C 
ATOM     30  H   UNL     1      47.411   3.984  19.544  0.00  0.00    +0.000 HD
ENDBRANCH  24  25
ENDBRANCH   5  24
TORSDOF 9
ENDMDL
MODEL 2
REMARK VINA RESULT:    -7.338      2.139      4.683
REMARK INTER + INTRA:         -12.554
REMARK INTER:                 -11.523
REMARK INTRA:                  -1.031
REMARK UNBOUND:                -1.354
REMARK  Name = 
REMARK  10 active torsions:
REMARK  status: ('A' for Active; 'I' for Inactive)
REMARK    1  A    between atoms: C_1  and  C_2
REMARK    2  A    between atoms: C_2  and  C_3
REMARK    3  A    between atoms: C_3  and  C_4
REMARK    4  A    between atoms: C_4  and  C_5
REMARK    5  A    between atoms: C_7  and  C_8
REMARK    6  A    between atoms: C_8  and  C_9
REMARK    7  A    between atoms: C_9  and  C_10
REMARK    8  A    between atoms: C_13  and  C_14
REMARK    9  A    between atoms: C_20  and  S_21
REMARK   10  A    between atoms: S_21  and  C_22
REMARK                            x       y       z     vdW  Elec       q    Type
REMARK                         _______ _______ _______ _____ _____    ______ ____
ROOT
ATOM      1  C   UNL     1      46.851   4.662  14.383  0.00  0.00    +0.000 A 
ATOM      2  C   UNL     1      45.780   4.056  13.727  0.00  0.00    +0.000 A 
ATOM      3  C   UNL     1      45.312   4.572  12.523  0.00  0.00    +0.000 A 
ATOM      4  N   UNL     1      45.911   5.630  11.921  0.00  0.00    +0.000 NA
ATOM      5  C   UNL     1      46.964   6.205  12.550  0.00  0.00    +0.000 A 
ATOM      6  C   UNL     1      47.430   5.783  13.792  0.00  0.00    +0.000 A 
ENDROOT
BRANCH   1   7
ATOM      7  C   UNL     1      47.365   4.067  15.670  0.00  0.00    +0.000 C 
BRANCH   7   8
ATOM      8  C   UNL     1      48.211   5.092  16.434  0.00  0.00    +0.000 C 
BRANCH   8  10
ATOM      9  C   UNL     1      47.040   5.480  18.615  0.00  0.00    +0.000 C 
ATOM     10  C   UNL     1      48.234   4.826  17.936  0.00  0.00    +0.000 C 
ENDBRANCH   8  10
ENDBRANCH   7   8
ENDBRANCH   1   7
BRANCH   3  11
ATOM     11  C   UNL     1      44.136   3.937  11.811  0.00  0.00    +0.000 C 
BRANCH  11  12
ATOM     12  C   UNL     1      43.923   4.463  10.382  0.00  0.00    +0.000 C 
BRANCH  12  13
ATOM     13  C   UNL     1      44.832   3.841   9.358  0.00  0.00    +0.000 A 
ATOM     14  C   UNL     1      45.557   4.650   8.477  0.00  0.00    +0.000 A 
ATOM     15  C   UNL     1      46.443   4.080   7.561  0.00  0.00    +0.000 A 
ATOM     16  C   UNL     1      46.620   2.695   7.528  0.00  0.00    +0.000 A 
ATOM     17  C   UNL     1      45.879   1.877   8.387  0.00  0.00    +0.000 A 
ATOM     18  C   UNL     1      44.985   2.450   9.300  0.00  0.00    +0.000 A 
BRANCH  16  19
ATOM     19  C   UNL     1      47.593   2.137   6.550  0.00  0.00    +0.000 C 
ATOM     20  N   UNL     1      47.837   2.861   5.416  0.00  0.00    +0.000 N 
ATOM     21  O   UNL     1      48.137   1.055   6.730  0.00  0.00    +0.000 OA
ATOM     22  H   UNL     1      47.240   3.616   5.115  0.00  0.00    +0.000 HD
ATOM     23  H   UNL     1      48.411   2.404   4.720  0.00  0.00    +0.000 HD
ENDBRANCH  16  19
ENDBRANCH  12  13
ENDBRANCH  11  12
ENDBRANCH   3  11
BRANCH   5  24
ATOM     24  S   UNL     1      47.700   7.644  11.796  0.00  0.00    +0.000 S 
BRANCH  24  25
ATOM     25  C   UNL     1      46.925   9.045  12.702  0.00  0.00    +0.000 C 
ATOM     26  C   UNL     1      45.412   9.165  12.584  0.00  0.00    +0.000 C 
ATOM     27  C   UNL     1      45.192  10.448  11.803  0.00  0.00    +0.000 C 
ATOM     28  N   UNL     1      46.305  11.327  12.180  0.00  0.00    +0.000 NA
ATOM     29  C   UNL     1      47.467  10.438  12.362  0.00  0.00    +0.000 C 
ATOM     30  H   UNL     1      46.083  11.772  13.070  0.00  0.00    +0.000 HD
ENDBRANCH  24  25
ENDBRANCH   5  24
TORSDOF 9
ENDMDL
MODEL 3
REMARK VINA RESULT:    -6.889      2.039      4.451
REMARK INTER + INTRA:         -11.868
REMARK INTER:                 -10.879
REMARK INTRA:                  -0.989
REMARK UNBOUND:                -1.354
REMARK  Name = 
REMARK  10 active torsions:
REMARK  status: ('A' for Active; 'I' for Inactive)
REMARK    1  A    between atoms: C_1  and  C_2
REMARK    2  A    between atoms: C_2  and  C_3
REMARK    3  A    between atoms: C_3  and  C_4
REMARK    4  A    between atoms: C_4  and  C_5
REMARK    5  A    between atoms: C_7  and  C_8
REMARK    6  A    between atoms: C_8  and  C_9
REMARK    7  A    between atoms: C_9  and  C_10
REMARK    8  A    between atoms: C_13  and  C_14
REMARK    9  A    between atoms: C_20  and  S_21
REMARK   10  A    between atoms: S_21  and  C_22
REMARK                            x       y       z     vdW  Elec       q    Type
REMARK                         _______ _______ _______ _____ _____    ______ ____
ROOT
ATOM      1  C   UNL     1      46.799   4.623  14.372  0.00  0.00    +0.000 A 
ATOM      2  C   UNL     1      45.739   4.049  13.674  0.00  0.00    +0.000 A 
ATOM      3  C   UNL     1      45.274   4.631  12.499  0.00  0.00    +0.000 A 
ATOM      4  N   UNL     1      45.867   5.728  11.965  0.00  0.00    +0.000 NA
ATOM      5  C   UNL     1      46.911   6.273  12.635  0.00  0.00    +0.000 A 
ATOM      6  C   UNL     1      47.373   5.782  13.853  0.00  0.00    +0.000 A 
ENDROOT
BRANCH   1   7
ATOM      7  C   UNL     1      47.310   3.957  15.625  0.00  0.00    +0.000 C 
BRANCH   7   8
ATOM      8  C   UNL     1      48.061   4.967  16.501  0.00  0.00    +0.000 C 
BRANCH   8  10
ATOM      9  C   UNL     1      48.136   3.063  18.128  0.00  0.00    +0.000 C 
ATOM     10  C   UNL     1      48.059   4.575  17.975  0.00  0.00    +0.000 C 
ENDBRANCH   8  10
ENDBRANCH   7   8
ENDBRANCH   1   7
BRANCH   3  11
ATOM     11  C   UNL     1      44.109   4.030  11.742  0.00  0.00    +0.000 C 
BRANCH  11  12
ATOM     12  C   UNL     1      43.971   4.554  10.303  0.00  0.00    +0.000 C 
BRANCH  12  13
ATOM     13  C   UNL     1      44.954   3.955   9.335  0.00  0.00    +0.000 A 
ATOM     14  C   UNL     1      45.061   2.565   9.212  0.00  0.00    +0.000 A 
ATOM     15  C   UNL     1      45.932   2.003   8.277  0.00  0.00    +0.000 A 
ATOM     16  C   UNL     1      46.695   2.829   7.448  0.00  0.00    +0.000 A 
ATOM     17  C   UNL     1      46.614   4.219   7.583  0.00  0.00    +0.000 A 
ATOM     18  C   UNL     1      45.745   4.781   8.527  0.00  0.00    +0.000 A 
BRANCH  16  19
ATOM     19  C   UNL     1      47.592   2.183   6.452  0.00  0.00    +0.000 C 
ATOM     20  N   UNL     1      47.813   2.845   5.275  0.00  0.00    +0.000 N 
ATOM     21  O   UNL     1      48.093   1.085   6.655  0.00  0.00    +0.000 OA
ATOM     22  H   UNL     1      47.237   3.613   4.968  0.00  0.00    +0.000 HD
ATOM     23  H   UNL     1      48.330   2.331   4.575  0.00  0.00    +0.000 HD
ENDBRANCH  16  19
ENDBRANCH  12  13
ENDBRANCH  11  12
ENDBRANCH   3  11
BRANCH   5  24
ATOM     24  S   UNL     1      47.640   7.761  11.973  0.00  0.00    +0.000 S 
BRANCH  24  25
ATOM     25  C   UNL     1      49.403   7.637  12.483  0.00  0.00    +0.000 C 
ATOM     26  C   UNL     1      49.835   8.539  13.631  0.00  0.00    +0.000 C 
ATOM     27  C   UNL     1      50.801   9.523  12.998  0.00  0.00    +0.000 C 
ATOM     28  N   UNL     1      51.464   8.778  11.921  0.00  0.00    +0.000 NA
ATOM     29  C   UNL     1      50.434   7.875  11.374  0.00  0.00    +0.000 C 
ATOM     30  H   UNL     1      52.217   8.221  12.324  0.00  0.00    +0.000 HD
ENDBRANCH  24  25
ENDBRANCH   5  24
TORSDOF 9
ENDMDL
MODEL 4
REMARK VINA RESULT:    -6.376      3.138      5.046
REMARK INTER + INTRA:         -11.084
REMARK INTER:                  -9.743
REMARK INTRA:                  -1.341
REMARK UNBOUND:                -1.354
REMARK  Name = 
REMARK  10 active torsions:
REMARK  status: ('A' for Active; 'I' for Inactive)
REMARK    1  A    between atoms: C_1  and  C_2
REMARK    2  A    between atoms: C_2  and  C_3
REMARK    3  A    between atoms: C_3  and  C_4
REMARK    4  A    between atoms: C_4  and  C_5
REMARK    5  A    between atoms: C_7  and  C_8
REMARK    6  A    between atoms: C_8  and  C_9
REMARK    7  A    between atoms: C_9  and  C_10
REMARK    8  A    between atoms: C_13  and  C_14
REMARK    9  A    between atoms: C_20  and  S_21
REMARK   10  A    between atoms: S_21  and  C_22
REMARK                            x       y       z     vdW  Elec       q    Type
REMARK                         _______ _______ _______ _____ _____    ______ ____
ROOT
ATOM      1  C   UNL     1      48.611   8.608  16.780  0.00  0.00    +0.000 A 
ATOM      2  C   UNL     1      48.432   8.352  15.422  0.00  0.00    +0.000 A 
ATOM      3  C   UNL     1      48.857   7.146  14.873  0.00  0.00    +0.000 A 
ATOM      4  N   UNL     1      49.398   6.167  15.639  0.00  0.00    +0.000 NA
ATOM      5  C   UNL     1      49.553   6.410  16.963  0.00  0.00    +0.000 A 
ATOM      6  C   UNL     1      49.218   7.623  17.557  0.00  0.00    +0.000 A 
ENDROOT
BRANCH   1   7
ATOM      7  C   UNL     1      48.112   9.906  17.362  0.00  0.00    +0.000 C 
BRANCH   7   8
ATOM      8  C   UNL     1      48.446   9.988  18.856  0.00  0.00    +0.000 C 
BRANCH   8  10
ATOM      9  C   UNL     1      47.282   8.847  20.759  0.00  0.00    +0.000 C 
ATOM     10  C   UNL     1      47.199   9.969  19.734  0.00  0.00    +0.000 C 
ENDBRANCH   8  10
ENDBRANCH   7   8
ENDBRANCH   1   7
BRANCH   3  11
ATOM     11  C   UNL     1      48.688   6.863  13.395  0.00  0.00    +0.000 C 
BRANCH  11  12
ATOM     12  C   UNL     1      47.310   7.266  12.843  0.00  0.00    +0.000 C 
BRANCH  12  13
ATOM     13  C   UNL     1      46.511   6.117  12.292  0.00  0.00    +0.000 A 
ATOM     14  C   UNL     1      46.265   4.989  13.082  0.00  0.00    +0.000 A 
ATOM     15  C   UNL     1      45.478   3.944  12.596  0.00  0.00    +0.000 A 
ATOM     16  C   UNL     1      44.919   4.026  11.318  0.00  0.00    +0.000 A 
ATOM     17  C   UNL     1      45.182   5.138  10.512  0.00  0.00    +0.000 A 
ATOM     18  C   UNL     1      45.978   6.182  10.999  0.00  0.00    +0.000 A 
BRANCH  16  19
ATOM     19  C   UNL     1      44.069   2.897  10.854  0.00  0.00    +0.000 C 
ATOM     20  N   UNL     1      44.543   2.125   9.829  0.00  0.00    +0.000 N 
ATOM     21  O   UNL     1      42.968   2.677  11.343  0.00  0.00    +0.000 OA
ATOM     22  H   UNL     1      45.311   2.414   9.243  0.00  0.00    +0.000 HD
ATOM     23  H   UNL     1      43.896   1.442   9.460  0.00  0.00    +0.000 HD
ENDBRANCH  16  19
ENDBRANCH  12  13
ENDBRANCH  11  12
ENDBRANCH   3  11
BRANCH   5  24
ATOM     24  S   UNL     1      50.336   5.151  17.955  0.00  0.00    +0.000 S 
BRANCH  24  25
ATOM     25  C   UNL     1      49.025   3.873  18.136  0.00  0.00    +0.000 C 
ATOM     26  C   UNL     1      48.996   2.785  17.072  0.00  0.00    +0.000 C 
ATOM     27  C   UNL     1      47.699   3.024  16.320  0.00  0.00    +0.000 C 
ATOM     28  N   UNL     1      46.767   3.566  17.317  0.00  0.00    +0.000 NA
ATOM     29  C   UNL     1      47.588   4.401  18.212  0.00  0.00    +0.000 C 
ATOM     30  H   UNL     1      46.373   2.791  17.850  0.00  0.00    +0.000 HD
ENDBRANCH  24  25
ENDBRANCH   5  24
TORSDOF 9
ENDMDL
MODEL 5
REMARK VINA RESULT:    -6.258      3.519      7.532
REMARK INTER + INTRA:         -10.905
REMARK INTER:                  -9.550
REMARK INTRA:                  -1.355
REMARK UNBOUND:                -1.354
REMARK  Name = 
REMARK  10 active torsions:
REMARK  status: ('A' for Active; 'I' for Inactive)
REMARK    1  A    between atoms: C_1  and  C_2
REMARK    2  A    between atoms: C_2  and  C_3
REMARK    3  A    between atoms: C_3  and  C_4
REMARK    4  A    between atoms: C_4  and  C_5
REMARK    5  A    between atoms: C_7  and  C_8
REMARK    6  A    between atoms: C_8  and  C_9
REMARK    7  A    between atoms: C_9  and  C_10
REMARK    8  A    between atoms: C_13  and  C_14
REMARK    9  A    between atoms: C_20  and  S_21
REMARK   10  A    between atoms: S_21  and  C_22
REMARK                            x       y       z     vdW  Elec       q    Type
REMARK                         _______ _______ _______ _____ _____    ______ ____
ROOT
ATOM      1  C   UNL     1      48.154   6.794  12.646  0.00  0.00    +0.000 A 
ATOM      2  C   UNL     1      48.123   5.908  13.722  0.00  0.00    +0.000 A 
ATOM      3  C   UNL     1      46.925   5.314  14.107  0.00  0.00    +0.000 A 
ATOM      4  N   UNL     1      45.773   5.526  13.422  0.00  0.00    +0.000 NA
ATOM      5  C   UNL     1      45.810   6.372  12.365  0.00  0.00    +0.000 A 
ATOM      6  C   UNL     1      46.960   7.054  11.978  0.00  0.00    +0.000 A 
ENDROOT
BRANCH   1   7
ATOM      7  C   UNL     1      49.469   7.399  12.224  0.00  0.00    +0.000 C 
BRANCH   7   8
ATOM      8  C   UNL     1      49.723   8.710  12.979  0.00  0.00    +0.000 C 
BRANCH   8  10
ATOM      9  C   UNL     1      51.017   7.768  14.906  0.00  0.00    +0.000 C 
ATOM     10  C   UNL     1      51.060   8.711  13.712  0.00  0.00    +0.000 C 
ENDBRANCH   8  10
ENDBRANCH   7   8
ENDBRANCH   1   7
BRANCH   3  11
ATOM     11  C   UNL     1      46.871   4.366  15.287  0.00  0.00    +0.000 C 
BRANCH  11  12
ATOM     12  C   UNL     1      47.671   4.854  16.507  0.00  0.00    +0.000 C 
BRANCH  12  13
ATOM     13  C   UNL     1      48.840   3.978  16.864  0.00  0.00    +0.000 A 
ATOM     14  C   UNL     1      48.770   2.595  16.661  0.00  0.00    +0.000 A 
ATOM     15  C   UNL     1      49.872   1.784  16.939  0.00  0.00    +0.000 A 
ATOM     16  C   UNL     1      51.058   2.353  17.410  0.00  0.00    +0.000 A 
ATOM     17  C   UNL     1      51.127   3.730  17.640  0.00  0.00    +0.000 A 
ATOM     18  C   UNL     1      50.019   4.542  17.368  0.00  0.00    +0.000 A 
BRANCH  16  19
ATOM     19  C   UNL     1      52.211   1.449  17.669  0.00  0.00    +0.000 C 
ATOM     20  N   UNL     1      51.944   0.214  18.192  0.00  0.00    +0.000 N 
ATOM     21  O   UNL     1      53.365   1.801  17.455  0.00  0.00    +0.000 OA
ATOM     22  H   UNL     1      51.055  -0.019  18.608  0.00  0.00    +0.000 HD
ATOM     23  H   UNL     1      52.751  -0.330  18.464  0.00  0.00    +0.000 HD
ENDBRANCH  16  19
ENDBRANCH  12  13
ENDBRANCH  11  12
ENDBRANCH   3  11
BRANCH   5  24
ATOM     24  S   UNL     1      44.279   6.710  11.514  0.00  0.00    +0.000 S 
BRANCH  24  25
ATOM     25  C   UNL     1      43.853   5.094  10.745  0.00  0.00    +0.000 C 
ATOM     26  C   UNL     1      42.943   4.183  11.556  0.00  0.00    +0.000 C 
ATOM     27  C   UNL     1      43.819   2.999  11.922  0.00  0.00    +0.000 C 
ATOM     28  N   UNL     1      44.753   2.847  10.800  0.00  0.00    +0.000 NA
ATOM     29  C   UNL     1      45.042   4.216  10.338  0.00  0.00    +0.000 C 
ATOM     30  H   UNL     1      44.286   2.334  10.053  0.00  0.00    +0.000 HD
ENDBRANCH  24  25
ENDBRANCH   5  24
TORSDOF 9
ENDMDL
MODEL 6
REMARK VINA RESULT:    -5.897      4.296      8.942
REMARK INTER + INTRA:         -10.354
REMARK INTER:                  -9.347
REMARK INTRA:                  -1.007
REMARK UNBOUND:                -1.354
REMARK  Name = 
REMARK  10 active torsions:
REMARK  status: ('A' for Active; 'I' for Inactive)
REMARK    1  A    between atoms: C_1  and  C_2
REMARK    2  A    between atoms: C_2  and  C_3
REMARK    3  A    between atoms: C_3  and  C_4
REMARK    4  A    between atoms: C_4  and  C_5
REMARK    5  A    between atoms: C_7  and  C_8
REMARK    6  A    between atoms: C_8  and  C_9
REMARK    7  A    between atoms: C_9  and  C_10
REMARK    8  A    between atoms: C_13  and  C_14
REMARK    9  A    between atoms: C_20  and  S_21
REMARK   10  A    between atoms: S_21  and  C_22
REMARK                            x       y       z     vdW  Elec       q    Type
REMARK                         _______ _______ _______ _____ _____    ______ ____
ROOT
ATOM      1  C   UNL     1      44.546   5.742  11.170  0.00  0.00    +0.000 A 
ATOM      2  C   UNL     1      45.544   5.317  12.045  0.00  0.00    +0.000 A 
ATOM      3  C   UNL     1      46.261   6.243  12.795  0.00  0.00    +0.000 A 
ATOM      4  N   UNL     1      45.978   7.569  12.748  0.00  0.00    +0.000 NA
ATOM      5  C   UNL     1      44.994   7.978  11.911  0.00  0.00    +0.000 A 
ATOM      6  C   UNL     1      44.293   7.109  11.080  0.00  0.00    +0.000 A 
ENDROOT
BRANCH   1   7
ATOM      7  C   UNL     1      43.757   4.718  10.392  0.00  0.00    +0.000 C 
BRANCH   7   8
ATOM      8  C   UNL     1      44.372   3.324  10.563  0.00  0.00    +0.000 C 
BRANCH   8  10
ATOM      9  C   UNL     1      45.164   3.536   8.195  0.00  0.00    +0.000 C 
ATOM     10  C   UNL     1      44.558   2.602   9.233  0.00  0.00    +0.000 C 
ENDBRANCH   8  10
ENDBRANCH   7   8
ENDBRANCH   1   7
BRANCH   3  11
ATOM     11  C   UNL     1      47.363   5.798  13.734  0.00  0.00    +0.000 C 
BRANCH  11  12
ATOM     12  C   UNL     1      47.005   4.547  14.555  0.00  0.00    +0.000 C 
BRANCH  12  13
ATOM     13  C   UNL     1      47.640   4.507  15.918  0.00  0.00    +0.000 A 
ATOM     14  C   UNL     1      48.414   5.584  16.365  0.00  0.00    +0.000 A 
ATOM     15  C   UNL     1      48.960   5.575  17.650  0.00  0.00    +0.000 A 
ATOM     16  C   UNL     1      48.726   4.493  18.502  0.00  0.00    +0.000 A 
ATOM     17  C   UNL     1      47.976   3.402  18.053  0.00  0.00    +0.000 A 
ATOM     18  C   UNL     1      47.435   3.408  16.762  0.00  0.00    +0.000 A 
BRANCH  16  19
ATOM     19  C   UNL     1      49.310   4.542  19.870  0.00  0.00    +0.000 C 
ATOM     20  N   UNL     1      48.535   4.101  20.907  0.00  0.00    +0.000 N 
ATOM     21  O   UNL     1      50.433   4.987  20.074  0.00  0.00    +0.000 OA
ATOM     22  H   UNL     1      47.540   3.964  20.820  0.00  0.00    +0.000 HD
ATOM     23  H   UNL     1      48.913   4.254  21.832  0.00  0.00    +0.000 HD
ENDBRANCH  16  19
ENDBRANCH  12  13
ENDBRANCH  11  12
ENDBRANCH   3  11
BRANCH   5  24
ATOM     24  S   UNL     1      44.676   9.729  11.793  0.00  0.00    +0.000 S 
BRANCH  24  25
ATOM     25  C   UNL     1      43.548   9.862  10.345  0.00  0.00    +0.000 C 
ATOM     26  C   UNL     1      43.890  10.937   9.324  0.00  0.00    +0.000 C 
ATOM     27  C   UNL     1      42.754  11.937   9.430  0.00  0.00    +0.000 C 
ATOM     28  N   UNL     1      41.572  11.145   9.788  0.00  0.00    +0.000 NA
ATOM     29  C   UNL     1      42.066  10.075  10.674  0.00  0.00    +0.000 C 
ATOM     30  H   UNL     1      41.190  10.727   8.940  0.00  0.00    +0.000 HD
ENDBRANCH  24  25
ENDBRANCH   5  24
TORSDOF 9
ENDMDL
MODEL 7
REMARK VINA RESULT:    -5.659      3.081      4.677
REMARK INTER + INTRA:          -9.991
REMARK INTER:                  -8.714
REMARK INTRA:                  -1.277
REMARK UNBOUND:                -1.354
REMARK  Name = 
REMARK  10 active torsions:
REMARK  status: ('A' for Active; 'I' for Inactive)
REMARK    1  A    between atoms: C_1  and  C_2
REMARK    2  A    between atoms: C_2  and  C_3
REMARK    3  A    between atoms: C_3  and  C_4
REMARK    4  A    between atoms: C_4  and  C_5
REMARK    5  A    between atoms: C_7  and  C_8
REMARK    6  A    between atoms: C_8  and  C_9
REMARK    7  A    between atoms: C_9  and  C_10
REMARK    8  A    between atoms: C_13  and  C_14
REMARK    9  A    between atoms: C_20  and  S_21
REMARK   10  A    between atoms: S_21  and  C_22
REMARK                            x       y       z     vdW  Elec       q    Type
REMARK                         _______ _______ _______ _____ _____    ______ ____
ROOT
ATOM      1  C   UNL     1      50.015   8.709  16.504  0.00  0.00    +0.000 A 
ATOM      2  C   UNL     1      49.464   8.449  15.250  0.00  0.00    +0.000 A 
ATOM      3  C   UNL     1      49.311   7.139  14.808  0.00  0.00    +0.000 A 
ATOM      4  N   UNL     1      49.632   6.081  15.594  0.00  0.00    +0.000 NA
ATOM      5  C   UNL     1      50.149   6.336  16.821  0.00  0.00    +0.000 A 
ATOM      6  C   UNL     1      50.396   7.623  17.289  0.00  0.00    +0.000 A 
ENDROOT
BRANCH   1   7
ATOM      7  C   UNL     1      50.140  10.135  16.977  0.00  0.00    +0.000 C 
BRANCH   7   8
ATOM      8  C   UNL     1      50.357  11.078  15.788  0.00  0.00    +0.000 C 
BRANCH   8  10
ATOM      9  C   UNL     1      52.119  10.900  14.015  0.00  0.00    +0.000 C 
ATOM     10  C   UNL     1      51.834  11.275  15.462  0.00  0.00    +0.000 C 
ENDBRANCH   8  10
ENDBRANCH   7   8
ENDBRANCH   1   7
BRANCH   3  11
ATOM     11  C   UNL     1      48.734   6.842  13.440  0.00  0.00    +0.000 C 
BRANCH  11  12
ATOM     12  C   UNL     1      47.268   7.281  13.281  0.00  0.00    +0.000 C 
BRANCH  12  13
ATOM     13  C   UNL     1      46.382   6.242  12.651  0.00  0.00    +0.000 A 
ATOM     14  C   UNL     1      46.094   6.299  11.283  0.00  0.00    +0.000 A 
ATOM     15  C   UNL     1      45.317   5.307  10.683  0.00  0.00    +0.000 A 
ATOM     16  C   UNL     1      44.833   4.241  11.445  0.00  0.00    +0.000 A 
ATOM     17  C   UNL     1      45.094   4.191  12.818  0.00  0.00    +0.000 A 
ATOM     18  C   UNL     1      45.867   5.191  13.420  0.00  0.00    +0.000 A 
BRANCH  16  19
ATOM     19  C   UNL     1      44.029   3.197  10.755  0.00  0.00    +0.000 C 
ATOM     20  N   UNL     1      44.338   2.916   9.452  0.00  0.00    +0.000 N 
ATOM     21  O   UNL     1      43.102   2.624  11.314  0.00  0.00    +0.000 OA
ATOM     22  H   UNL     1      44.913   3.523   8.888  0.00  0.00    +0.000 HD
ATOM     23  H   UNL     1      43.703   2.289   8.977  0.00  0.00    +0.000 HD
ENDBRANCH  16  19
ENDBRANCH  12  13
ENDBRANCH  11  12
ENDBRANCH   3  11
BRANCH   5  24
ATOM     24  S   UNL     1      50.643   4.944  17.822  0.00  0.00    +0.000 S 
BRANCH  24  25
ATOM     25  C   UNL     1      49.043   4.266  18.429  0.00  0.00    +0.000 C 
ATOM     26  C   UNL     1      48.386   3.210  17.553  0.00  0.00    +0.000 C 
ATOM     27  C   UNL     1      47.121   3.875  17.040  0.00  0.00    +0.000 C 
ATOM     28  N   UNL     1      46.699   4.784  18.113  0.00  0.00    +0.000 NA
ATOM     29  C   UNL     1      47.946   5.300  18.707  0.00  0.00    +0.000 C 
ATOM     30  H   UNL     1      46.191   4.247  18.815  0.00  0.00    +0.000 HD
ENDBRANCH  24  25
ENDBRANCH   5  24
TORSDOF 9
ENDMDL
MODEL 8
REMARK VINA RESULT:    -5.508      3.795      6.072
REMARK INTER + INTRA:          -9.760
REMARK INTER:                  -8.198
REMARK INTRA:                  -1.563
REMARK UNBOUND:                -1.354
REMARK  Name = 
REMARK  10 active torsions:
REMARK  status: ('A' for Active; 'I' for Inactive)
REMARK    1  A    between atoms: C_1  and  C_2
REMARK    2  A    between atoms: C_2  and  C_3
REMARK    3  A    between atoms: C_3  and  C_4
REMARK    4  A    between atoms: C_4  and  C_5
REMARK    5  A    between atoms: C_7  and  C_8
REMARK    6  A    between atoms: C_8  and  C_9
REMARK    7  A    between atoms: C_9  and  C_10
REMARK    8  A    between atoms: C_13  and  C_14
REMARK    9  A    between atoms: C_20  and  S_21
REMARK   10  A    between atoms: S_21  and  C_22
REMARK                            x       y       z     vdW  Elec       q    Type
REMARK                         _______ _______ _______ _____ _____    ______ ____
ROOT
ATOM      1  C   UNL     1      50.555   8.316  17.586  0.00  0.00    +0.000 A 
ATOM      2  C   UNL     1      50.249   8.468  16.235  0.00  0.00    +0.000 A 
ATOM      3  C   UNL     1      50.120   7.352  15.414  0.00  0.00    +0.000 A 
ATOM      4  N   UNL     1      50.224   6.092  15.905  0.00  0.00    +0.000 NA
ATOM      5  C   UNL     1      50.502   5.946  17.223  0.00  0.00    +0.000 A 
ATOM      6  C   UNL     1      50.717   7.023  18.078  0.00  0.00    +0.000 A 
ENDROOT
BRANCH   1   7
ATOM      7  C   UNL     1      50.656   9.537  18.465  0.00  0.00    +0.000 C 
BRANCH   7   8
ATOM      8  C   UNL     1      49.573   9.509  19.549  0.00  0.00    +0.000 C 
BRANCH   8  10
ATOM      9  C   UNL     1      47.267   8.575  19.249  0.00  0.00    +0.000 C 
ATOM     10  C   UNL     1      48.178   9.765  18.988  0.00  0.00    +0.000 C 
ENDBRANCH   8  10
ENDBRANCH   7   8
ENDBRANCH   1   7
BRANCH   3  11
ATOM     11  C   UNL     1      49.809   7.504  13.940  0.00  0.00    +0.000 C 
BRANCH  11  12
ATOM     12  C   UNL     1      48.540   8.326  13.658  0.00  0.00    +0.000 C 
BRANCH  12  13
ATOM     13  C   UNL     1      47.317   7.492  13.391  0.00  0.00    +0.000 A 
ATOM     14  C   UNL     1      46.148   8.093  12.909  0.00  0.00    +0.000 A 
ATOM     15  C   UNL     1      45.028   7.317  12.608  0.00  0.00    +0.000 A 
ATOM     16  C   UNL     1      45.072   5.930  12.775  0.00  0.00    +0.000 A 
ATOM     17  C   UNL     1      46.227   5.326  13.280  0.00  0.00    +0.000 A 
ATOM     18  C   UNL     1      47.348   6.106  13.589  0.00  0.00    +0.000 A 
BRANCH  16  19
ATOM     19  C   UNL     1      43.860   5.145  12.418  0.00  0.00    +0.000 C 
ATOM     20  N   UNL     1      42.713   5.394  13.121  0.00  0.00    +0.000 N 
ATOM     21  O   UNL     1      43.885   4.282  11.549  0.00  0.00    +0.000 OA
ATOM     22  H   UNL     1      42.710   5.903  13.991  0.00  0.00    +0.000 HD
ATOM     23  H   UNL     1      41.942   4.767  12.936  0.00  0.00    +0.000 HD
ENDBRANCH  16  19
ENDBRANCH  12  13
ENDBRANCH  11  12
ENDBRANCH   3  11
BRANCH   5  24
ATOM     24  S   UNL     1      50.716   4.290  17.850  0.00  0.00    +0.000 S 
BRANCH  24  25
ATOM     25  C   UNL     1      48.997   3.747  18.219  0.00  0.00    +0.000 C 
ATOM     26  C   UNL     1      48.273   3.009  17.103  0.00  0.00    +0.000 C 
ATOM     27  C   UNL     1      47.155   3.948  16.689  0.00  0.00    +0.000 C 
ATOM     28  N   UNL     1      46.777   4.664  17.913  0.00  0.00    +0.000 NA
ATOM     29  C   UNL     1      48.032   4.851  18.664  0.00  0.00    +0.000 C 
ATOM     30  H   UNL     1      46.148   4.074  18.456  0.00  0.00    +0.000 HD
ENDBRANCH  24  25
ENDBRANCH   5  24
TORSDOF 9
ENDMDL
MODEL 9
REMARK VINA RESULT:    -5.343      2.971      4.711
REMARK INTER + INTRA:          -9.509
REMARK INTER:                  -8.439
REMARK INTRA:                  -1.069
REMARK UNBOUND:                -1.354
REMARK  Name = 
REMARK  10 active torsions:
REMARK  status: ('A' for Active; 'I' for Inactive)
REMARK    1  A    between atoms: C_1  and  C_2
REMARK    2  A    between atoms: C_2  and  C_3
REMARK    3  A    between atoms: C_3  and  C_4
REMARK    4  A    between atoms: C_4  and  C_5
REMARK    5  A    between atoms: C_7  and  C_8
REMARK    6  A    between atoms: C_8  and  C_9
REMARK    7  A    between atoms: C_9  and  C_10
REMARK    8  A    between atoms: C_13  and  C_14
REMARK    9  A    between atoms: C_20  and  S_21
REMARK   10  A    between atoms: S_21  and  C_22
REMARK                            x       y       z     vdW  Elec       q    Type
REMARK                         _______ _______ _______ _____ _____    ______ ____
ROOT
ATOM      1  C   UNL     1      50.104   8.485  15.822  0.00  0.00    +0.000 A 
ATOM      2  C   UNL     1      49.747   8.346  14.482  0.00  0.00    +0.000 A 
ATOM      3  C   UNL     1      49.161   7.168  14.031  0.00  0.00    +0.000 A 
ATOM      4  N   UNL     1      48.864   6.150  14.877  0.00  0.00    +0.000 NA
ATOM      5  C   UNL     1      49.195   6.295  16.183  0.00  0.00    +0.000 A 
ATOM      6  C   UNL     1      49.851   7.417  16.681  0.00  0.00    +0.000 A 
ENDROOT
BRANCH   1   7
ATOM      7  C   UNL     1      50.707   9.783  16.298  0.00  0.00    +0.000 C 
BRANCH   7   8
ATOM      8  C   UNL     1      49.898  10.351  17.471  0.00  0.00    +0.000 C 
BRANCH   8  10
ATOM      9  C   UNL     1      47.705  11.274  18.256  0.00  0.00    +0.000 C 
ATOM     10  C   UNL     1      48.519  10.840  17.045  0.00  0.00    +0.000 C 
ENDBRANCH   8  10
ENDBRANCH   7   8
ENDBRANCH   1   7
BRANCH   3  11
ATOM     11  C   UNL     1      48.786   6.995  12.573  0.00  0.00    +0.000 C 
BRANCH  11  12
ATOM     12  C   UNL     1      47.336   7.397  12.257  0.00  0.00    +0.000 C 
BRANCH  12  13
ATOM     13  C   UNL     1      46.443   6.240  11.901  0.00  0.00    +0.000 A 
ATOM     14  C   UNL     1      45.950   6.107  10.598  0.00  0.00    +0.000 A 
ATOM     15  C   UNL     1      45.166   5.007  10.248  0.00  0.00    +0.000 A 
ATOM     16  C   UNL     1      44.880   4.022  11.197  0.00  0.00    +0.000 A 
ATOM     17  C   UNL     1      45.347   4.160  12.508  0.00  0.00    +0.000 A 
ATOM     18  C   UNL     1      46.127   5.269  12.859  0.00  0.00    +0.000 A 
BRANCH  16  19
ATOM     19  C   UNL     1      44.060   2.857  10.769  0.00  0.00    +0.000 C 
ATOM     20  N   UNL     1      43.351   2.192  11.732  0.00  0.00    +0.000 N 
ATOM     21  O   UNL     1      44.038   2.478   9.605  0.00  0.00    +0.000 OA
ATOM     22  H   UNL     1      43.531   2.311  12.717  0.00  0.00    +0.000 HD
ATOM     23  H   UNL     1      42.898   1.340  11.432  0.00  0.00    +0.000 HD
ENDBRANCH  16  19
ENDBRANCH  12  13
ENDBRANCH  11  12
ENDBRANCH   3  11
BRANCH   5  24
ATOM     24  S   UNL     1      48.876   4.925  17.280  0.00  0.00    +0.000 S 
BRANCH  24  25
ATOM     25  C   UNL     1      48.908   5.697  18.949  0.00  0.00    +0.000 C 
ATOM     26  C   UNL     1      49.629   4.915  20.037  0.00  0.00    +0.000 C 
ATOM     27  C   UNL     1      48.532   4.506  21.002  0.00  0.00    +0.000 C 
ATOM     28  N   UNL     1      47.542   5.588  20.946  0.00  0.00    +0.000 NA
ATOM     29  C   UNL     1      47.540   6.049  19.546  0.00  0.00    +0.000 C 
ATOM     30  H   UNL     1      47.856   6.349  21.548  0.00  0.00    +0.000 HD
ENDBRANCH  24  25
ENDBRANCH   5  24
TORSDOF 9
ENDMDL
