MODEL 1
REMARK VINA RESULT:    -8.389      0.000      0.000
REMARK INTER + INTRA:         -12.176
REMARK INTER:                 -11.332
REMARK INTRA:                  -0.844
REMARK UNBOUND:                -0.844
REMARK  Name = 
REMARK  6 active torsions:
REMARK  status: ('A' for Active; 'I' for Inactive)
REMARK    1  A    between atoms: C_2  and  C_4
REMARK    2  A    between atoms: C_7  and  O_8
REMARK    3  A    between atoms: O_8  and  C_9
REMARK    4  A    between atoms: C_9  and  C_10
REMARK    5  A    between atoms: C_10  and  C_11
REMARK    6  A    between atoms: C_15  and  C_16
REMARK                            x       y       z     vdW  Elec       q    Type
REMARK                         _______ _______ _______ _____ _____    ______ ____
ROOT
ATOM      1  C   UNL     1      43.295   5.027  12.181  0.00  0.00    +0.000 C 
ENDROOT
BRANCH   1   2
ATOM      2  C   UNL     1      44.707   5.090  12.704  0.00  0.00    +0.000 A 
ATOM      3  C   UNL     1      45.379   3.905  13.018  0.00  0.00    +0.000 A 
ATOM      4  C   UNL     1      46.672   3.947  13.520  0.00  0.00    +0.000 A 
ATOM      5  C   UNL     1      47.305   5.177  13.706  0.00  0.00    +0.000 A 
ATOM      6  C   UNL     1      46.672   6.388  13.395  0.00  0.00    +0.000 A 
ATOM      7  C   UNL     1      45.350   6.325  12.913  0.00  0.00    +0.000 A 
BRANCH   6   8
ATOM      8  C   UNL     1      47.359   7.747  13.579  0.00  0.00    +0.000 C 
ATOM      9  C   UNL     1      47.587   8.494  12.250  0.00  0.00    +0.000 C 
ATOM     10  C   UNL     1      48.716   7.861  11.438  0.00  0.00    +0.000 C 
ATOM     11  C   UNL     1      49.994   7.679  12.258  0.00  0.00    +0.000 C 
ATOM     12  N   UNL     1      49.772   7.046  13.555  0.00  0.00    +0.000 NA
ATOM     13  C   UNL     1      48.715   7.713  14.328  0.00  0.00    +0.000 C 
ATOM     14  H   UNL     1      50.639   7.032  14.089  0.00  0.00    +0.000 HD
ENDBRANCH   6   8
ENDBRANCH   1   2
BRANCH   1  15
ATOM     15  C   UNL     1      43.269   4.912  10.660  0.00  0.00    +0.000 C 
BRANCH  15  16
ATOM     16  O   UNL     1      43.509   3.551  10.295  0.00  0.00    +0.000 OA
BRANCH  16  20
ATOM     17  C   UNL     1      46.533   2.646   7.568  0.00  0.00    +0.000 A 
ATOM     18  C   UNL     1      46.143   3.982   7.713  0.00  0.00    +0.000 A 
ATOM     19  C   UNL     1      45.131   4.323   8.616  0.00  0.00    +0.000 A 
ATOM     20  C   UNL     1      44.501   3.337   9.376  0.00  0.00    +0.000 A 
ATOM     21  C   UNL     1      44.880   2.001   9.216  0.00  0.00    +0.000 A 
ATOM     22  C   UNL     1      45.887   1.653   8.309  0.00  0.00    +0.000 A 
BRANCH  17  24
ATOM     23  N   UNL     1      47.734   2.992   5.480  0.00  0.00    +0.000 N 
ATOM     24  C   UNL     1      47.607   2.250   6.622  0.00  0.00    +0.000 C 
ATOM     25  O   UNL     1      48.373   1.327   6.866  0.00  0.00    +0.000 OA
ATOM     26  H   UNL     1      48.537   2.784   4.901  0.00  0.00    +0.000 HD
ATOM     27  H   UNL     1      47.305   3.900   5.377  0.00  0.00    +0.000 HD
ENDBRANCH  17  24
ENDBRANCH  16  20
ENDBRANCH  15  16
ENDBRANCH   1  15
TORSDOF 6
ENDMDL
MODEL 2
REMARK VINA RESULT:    -8.110      1.017      1.713
REMARK INTER + INTRA:         -11.798
REMARK INTER:                 -10.911
REMARK INTRA:                  -0.887
REMARK UNBOUND:                -0.844
REMARK  Name = 
REMARK  6 active torsions:
REMARK  status: ('A' for Active; 'I' for Inactive)
REMARK    1  A    between atoms: C_2  and  C_4
REMARK    2  A    between atoms: C_7  and  O_8
REMARK    3  A    between atoms: O_8  and  C_9
REMARK    4  A    between atoms: C_9  and  C_10
REMARK    5  A    between atoms: C_10  and  C_11
REMARK    6  A    between atoms: C_15  and  C_16
REMARK                            x       y       z     vdW  Elec       q    Type
REMARK                         _______ _______ _______ _____ _____    ______ ____
ROOT
ATOM      1  C   UNL     1      44.576   4.530  12.034  0.00  0.00    +0.000 C 
ENDROOT
BRANCH   1   2
ATOM      2  C   UNL     1      44.992   5.977  12.115  0.00  0.00    +0.000 A 
ATOM      3  C   UNL     1      44.256   6.945  11.425  0.00  0.00    +0.000 A 
ATOM      4  C   UNL     1      44.638   8.278  11.473  0.00  0.00    +0.000 A 
ATOM      5  C   UNL     1      45.757   8.654  12.218  0.00  0.00    +0.000 A 
ATOM      6  C   UNL     1      46.517   7.717  12.931  0.00  0.00    +0.000 A 
ATOM      7  C   UNL     1      46.129   6.366  12.848  0.00  0.00    +0.000 A 
BRANCH   6   8
ATOM      8  C   UNL     1      47.740   8.115  13.767  0.00  0.00    +0.000 C 
ATOM      9  C   UNL     1      48.475   9.353  13.213  0.00  0.00    +0.000 C 
ATOM     10  C   UNL     1      49.259   9.017  11.945  0.00  0.00    +0.000 C 
ATOM     11  C   UNL     1      50.170   7.802  12.125  0.00  0.00    +0.000 C 
ATOM     12  N   UNL     1      49.499   6.653  12.727  0.00  0.00    +0.000 NA
ATOM     13  C   UNL     1      48.800   7.003  13.970  0.00  0.00    +0.000 C 
ATOM     14  H   UNL     1      50.173   5.909  12.903  0.00  0.00    +0.000 HD
ENDBRANCH   6   8
ENDBRANCH   1   2
BRANCH   1  15
ATOM     15  C   UNL     1      43.421   4.337  11.056  0.00  0.00    +0.000 C 
BRANCH  15  16
ATOM     16  O   UNL     1      43.573   3.074  10.405  0.00  0.00    +0.000 OA
BRANCH  16  20
ATOM     17  C   UNL     1      46.492   2.635   7.457  0.00  0.00    +0.000 A 
ATOM     18  C   UNL     1      45.947   3.906   7.673  0.00  0.00    +0.000 A 
ATOM     19  C   UNL     1      44.965   4.090   8.651  0.00  0.00    +0.000 A 
ATOM     20  C   UNL     1      44.519   3.012   9.417  0.00  0.00    +0.000 A 
ATOM     21  C   UNL     1      45.051   1.741   9.186  0.00  0.00    +0.000 A 
ATOM     22  C   UNL     1      46.029   1.549   8.204  0.00  0.00    +0.000 A 
BRANCH  17  24
ATOM     23  N   UNL     1      47.404   3.072   5.243  0.00  0.00    +0.000 N 
ATOM     24  C   UNL     1      47.539   2.404   6.430  0.00  0.00    +0.000 C 
ATOM     25  O   UNL     1      48.503   1.682   6.643  0.00  0.00    +0.000 OA
ATOM     26  H   UNL     1      48.179   2.995   4.598  0.00  0.00    +0.000 HD
ATOM     27  H   UNL     1      46.782   3.861   5.137  0.00  0.00    +0.000 HD
ENDBRANCH  17  24
ENDBRANCH  16  20
ENDBRANCH  15  16
ENDBRANCH   1  15
TORSDOF 6
ENDMDL
MODEL 3
REMARK VINA RESULT:    -7.712      2.476      3.429
REMARK INTER + INTRA:         -11.262
REMARK INTER:                 -10.748
REMARK INTRA:                  -0.514
REMARK UNBOUND:                -0.844
REMARK  Name = 
REMARK  6 active torsions:
REMARK  status: ('A' for Active; 'I' for Inactive)
REMARK    1  A    between atoms: C_2  and  C_4
REMARK    2  A    between atoms: C_7  and  O_8
REMARK    3  A    between atoms: O_8  and  C_9
REMARK    4  A    between atoms: C_9  and  C_10
REMARK    5  A    between atoms: C_10  and  C_11
REMARK    6  A    between atoms: C_15  and  C_16
REMARK                            x       y       z     vdW  Elec       q    Type
REMARK                         _______ _______ _______ _____ _____    ______ ____
ROOT
ATOM      1  C   UNL     1      45.469   4.272  12.485  0.00  0.00    +0.000 C 
ENDROOT
BRANCH   1   2
ATOM      2  C   UNL     1      46.446   4.904  13.444  0.00  0.00    +0.000 A 
ATOM      3  C   UNL     1      47.222   5.987  13.021  0.00  0.00    +0.000 A 
ATOM      4  C   UNL     1      48.141   6.567  13.884  0.00  0.00    +0.000 A 
ATOM      5  C   UNL     1      48.284   6.072  15.181  0.00  0.00    +0.000 A 
ATOM      6  C   UNL     1      47.519   4.994  15.648  0.00  0.00    +0.000 A 
ATOM      7  C   UNL     1      46.613   4.402  14.748  0.00  0.00    +0.000 A 
BRANCH   6   8
ATOM      8  C   UNL     1      47.654   4.447  17.075  0.00  0.00    +0.000 C 
ATOM      9  C   UNL     1      48.780   5.126  17.880  0.00  0.00    +0.000 C 
ATOM     10  C   UNL     1      50.160   4.666  17.410  0.00  0.00    +0.000 C 
ATOM     11  C   UNL     1      50.282   3.142  17.362  0.00  0.00    +0.000 C 
ATOM     12  N   UNL     1      49.174   2.488  16.672  0.00  0.00    +0.000 NA
ATOM     13  C   UNL     1      47.866   2.916  17.185  0.00  0.00    +0.000 C 
ATOM     14  H   UNL     1      49.265   1.476  16.748  0.00  0.00    +0.000 HD
ENDBRANCH   6   8
ENDBRANCH   1   2
BRANCH   1  15
ATOM     15  C   UNL     1      44.941   5.288  11.478  0.00  0.00    +0.000 C 
BRANCH  15  16
ATOM     16  O   UNL     1      44.242   4.592  10.443  0.00  0.00    +0.000 OA
BRANCH  16  20
ATOM     17  C   UNL     1      46.543   2.517   7.650  0.00  0.00    +0.000 A 
ATOM     18  C   UNL     1      46.567   3.916   7.626  0.00  0.00    +0.000 A 
ATOM     19  C   UNL     1      45.806   4.645   8.546  0.00  0.00    +0.000 A 
ATOM     20  C   UNL     1      45.017   3.987   9.491  0.00  0.00    +0.000 A 
ATOM     21  C   UNL     1      44.982   2.590   9.500  0.00  0.00    +0.000 A 
ATOM     22  C   UNL     1      45.735   1.855   8.579  0.00  0.00    +0.000 A 
BRANCH  17  24
ATOM     23  N   UNL     1      48.324   2.365   5.998  0.00  0.00    +0.000 N 
ATOM     24  C   UNL     1      47.342   1.711   6.692  0.00  0.00    +0.000 C 
ATOM     25  O   UNL     1      47.163   0.509   6.554  0.00  0.00    +0.000 OA
ATOM     26  H   UNL     1      48.933   1.785   5.435  0.00  0.00    +0.000 HD
ATOM     27  H   UNL     1      48.667   3.273   6.277  0.00  0.00    +0.000 HD
ENDBRANCH  17  24
ENDBRANCH  16  20
ENDBRANCH  15  16
ENDBRANCH   1  15
TORSDOF 6
ENDMDL
MODEL 4
REMARK VINA RESULT:    -7.489      2.797      3.698
REMARK INTER + INTRA:         -10.960
REMARK INTER:                 -10.335
REMARK INTRA:                  -0.625
REMARK UNBOUND:                -0.844
REMARK  Name = 
REMARK  6 active torsions:
REMARK  status: ('A' for Active; 'I' for Inactive)
REMARK    1  A    between atoms: C_2  and  C_4
REMARK    2  A    between atoms: C_7  and  O_8
REMARK    3  A    between atoms: O_8  and  C_9
REMARK    4  A    between atoms: C_9  and  C_10
REMARK    5  A    between atoms: C_10  and  C_11
REMARK    6  A    between atoms: C_15  and  C_16
REMARK                            x       y       z     vdW  Elec       q    Type
REMARK                         _______ _______ _______ _____ _____    ______ ____
ROOT
ATOM      1  C   UNL     1      45.256   5.212  11.439  0.00  0.00    +0.000 C 
ENDROOT
BRANCH   1   2
ATOM      2  C   UNL     1      45.752   6.621  11.638  0.00  0.00    +0.000 A 
ATOM      3  C   UNL     1      47.119   6.851  11.816  0.00  0.00    +0.000 A 
ATOM      4  C   UNL     1      47.590   8.140  12.021  0.00  0.00    +0.000 A 
ATOM      5  C   UNL     1      46.695   9.211  12.043  0.00  0.00    +0.000 A 
ATOM      6  C   UNL     1      45.318   9.026  11.860  0.00  0.00    +0.000 A 
ATOM      7  C   UNL     1      44.857   7.707  11.681  0.00  0.00    +0.000 A 
BRANCH   6   8
ATOM      8  C   UNL     1      44.323  10.194  11.866  0.00  0.00    +0.000 C 
ATOM      9  C   UNL     1      43.221  10.055  10.796  0.00  0.00    +0.000 C 
ATOM     10  C   UNL     1      43.764  10.326   9.394  0.00  0.00    +0.000 C 
ATOM     11  C   UNL     1      44.529  11.648   9.309  0.00  0.00    +0.000 C 
ATOM     12  N   UNL     1      45.517  11.821  10.370  0.00  0.00    +0.000 NA
ATOM     13  C   UNL     1      44.947  11.603  11.705  0.00  0.00    +0.000 C 
ATOM     14  H   UNL     1      45.930  12.751  10.313  0.00  0.00    +0.000 HD
ENDBRANCH   6   8
ENDBRANCH   1   2
BRANCH   1  15
ATOM     15  C   UNL     1      43.769   5.188  11.099  0.00  0.00    +0.000 C 
BRANCH  15  16
ATOM     16  O   UNL     1      43.619   4.945   9.698  0.00  0.00    +0.000 OA
BRANCH  16  20
ATOM     17  C   UNL     1      46.289   2.307   7.879  0.00  0.00    +0.000 A 
ATOM     18  C   UNL     1      45.368   1.794   8.799  0.00  0.00    +0.000 A 
ATOM     19  C   UNL     1      44.458   2.650   9.430  0.00  0.00    +0.000 A 
ATOM     20  C   UNL     1      44.464   4.017   9.152  0.00  0.00    +0.000 A 
ATOM     21  C   UNL     1      45.399   4.528   8.247  0.00  0.00    +0.000 A 
ATOM     22  C   UNL     1      46.315   3.679   7.617  0.00  0.00    +0.000 A 
BRANCH  17  24
ATOM     23  N   UNL     1      48.364   2.031   6.638  0.00  0.00    +0.000 N 
ATOM     24  C   UNL     1      47.266   1.427   7.187  0.00  0.00    +0.000 C 
ATOM     25  O   UNL     1      47.121   0.214   7.141  0.00  0.00    +0.000 OA
ATOM     26  H   UNL     1      49.075   1.412   6.271  0.00  0.00    +0.000 HD
ATOM     27  H   UNL     1      48.642   2.970   6.884  0.00  0.00    +0.000 HD
ENDBRANCH  17  24
ENDBRANCH  16  20
ENDBRANCH  15  16
ENDBRANCH   1  15
TORSDOF 6
ENDMDL
MODEL 5
REMARK VINA RESULT:    -7.164      1.403      2.515
REMARK INTER + INTRA:         -10.521
REMARK INTER:                  -9.651
REMARK INTRA:                  -0.869
REMARK UNBOUND:                -0.844
REMARK  Name = 
REMARK  6 active torsions:
REMARK  status: ('A' for Active; 'I' for Inactive)
REMARK    1  A    between atoms: C_2  and  C_4
REMARK    2  A    between atoms: C_7  and  O_8
REMARK    3  A    between atoms: O_8  and  C_9
REMARK    4  A    between atoms: C_9  and  C_10
REMARK    5  A    between atoms: C_10  and  C_11
REMARK    6  A    between atoms: C_15  and  C_16
REMARK                            x       y       z     vdW  Elec       q    Type
REMARK                         _______ _______ _______ _____ _____    ______ ____
ROOT
ATOM      1  C   UNL     1      45.512   5.086  12.415  0.00  0.00    +0.000 C 
ENDROOT
BRANCH   1   2
ATOM      2  C   UNL     1      46.745   5.945  12.534  0.00  0.00    +0.000 A 
ATOM      3  C   UNL     1      47.165   6.703  11.437  0.00  0.00    +0.000 A 
ATOM      4  C   UNL     1      48.310   7.482  11.524  0.00  0.00    +0.000 A 
ATOM      5  C   UNL     1      49.040   7.514  12.713  0.00  0.00    +0.000 A 
ATOM      6  C   UNL     1      48.650   6.777  13.839  0.00  0.00    +0.000 A 
ATOM      7  C   UNL     1      47.501   5.971  13.722  0.00  0.00    +0.000 A 
BRANCH   6   8
ATOM      8  C   UNL     1      49.432   6.813  15.158  0.00  0.00    +0.000 C 
ATOM      9  C   UNL     1      48.583   7.289  16.353  0.00  0.00    +0.000 C 
ATOM     10  C   UNL     1      48.322   8.794  16.290  0.00  0.00    +0.000 C 
ATOM     11  C   UNL     1      49.606   9.602  16.099  0.00  0.00    +0.000 C 
ATOM     12  N   UNL     1      50.456   9.104  15.021  0.00  0.00    +0.000 NA
ATOM     13  C   UNL     1      50.727   7.665  15.143  0.00  0.00    +0.000 C 
ATOM     14  H   UNL     1      51.331   9.623  14.999  0.00  0.00    +0.000 HD
ENDBRANCH   6   8
ENDBRANCH   1   2
BRANCH   1  15
ATOM     15  C   UNL     1      44.606   5.567  11.286  0.00  0.00    +0.000 C 
BRANCH  15  16
ATOM     16  O   UNL     1      44.084   4.428  10.597  0.00  0.00    +0.000 OA
BRANCH  16  20
ATOM     17  C   UNL     1      46.478   2.548   7.744  0.00  0.00    +0.000 A 
ATOM     18  C   UNL     1      46.414   3.946   7.745  0.00  0.00    +0.000 A 
ATOM     19  C   UNL     1      45.620   4.611   8.685  0.00  0.00    +0.000 A 
ATOM     20  C   UNL     1      44.885   3.889   9.626  0.00  0.00    +0.000 A 
ATOM     21  C   UNL     1      44.936   2.492   9.611  0.00  0.00    +0.000 A 
ATOM     22  C   UNL     1      45.723   1.821   8.669  0.00  0.00    +0.000 A 
BRANCH  17  24
ATOM     23  N   UNL     1      48.242   2.536   6.068  0.00  0.00    +0.000 N 
ATOM     24  C   UNL     1      47.314   1.810   6.764  0.00  0.00    +0.000 C 
ATOM     25  O   UNL     1      47.211   0.601   6.610  0.00  0.00    +0.000 OA
ATOM     26  H   UNL     1      48.879   2.005   5.489  0.00  0.00    +0.000 HD
ATOM     27  H   UNL     1      48.529   3.460   6.356  0.00  0.00    +0.000 HD
ENDBRANCH  17  24
ENDBRANCH  16  20
ENDBRANCH  15  16
ENDBRANCH   1  15
TORSDOF 6
ENDMDL
MODEL 6
REMARK VINA RESULT:    -6.783      3.182      5.653
REMARK INTER + INTRA:         -10.006
REMARK INTER:                  -8.993
REMARK INTRA:                  -1.014
REMARK UNBOUND:                -0.844
REMARK  Name = 
REMARK  6 active torsions:
REMARK  status: ('A' for Active; 'I' for Inactive)
REMARK    1  A    between atoms: C_2  and  C_4
REMARK    2  A    between atoms: C_7  and  O_8
REMARK    3  A    between atoms: O_8  and  C_9
REMARK    4  A    between atoms: C_9  and  C_10
REMARK    5  A    between atoms: C_10  and  C_11
REMARK    6  A    between atoms: C_15  and  C_16
REMARK                            x       y       z     vdW  Elec       q    Type
REMARK                         _______ _______ _______ _____ _____    ______ ____
ROOT
ATOM      1  C   UNL     1      49.112   8.096  13.554  0.00  0.00    +0.000 C 
ENDROOT
BRANCH   1   2
ATOM      2  C   UNL     1      49.618   7.393  14.788  0.00  0.00    +0.000 A 
ATOM      3  C   UNL     1      50.943   7.580  15.193  0.00  0.00    +0.000 A 
ATOM      4  C   UNL     1      51.431   6.924  16.314  0.00  0.00    +0.000 A 
ATOM      5  C   UNL     1      50.593   6.078  17.043  0.00  0.00    +0.000 A 
ATOM      6  C   UNL     1      49.256   5.869  16.677  0.00  0.00    +0.000 A 
ATOM      7  C   UNL     1      48.789   6.523  15.520  0.00  0.00    +0.000 A 
BRANCH   6   8
ATOM      8  C   UNL     1      48.318   4.955  17.475  0.00  0.00    +0.000 C 
ATOM      9  C   UNL     1      49.068   3.888  18.298  0.00  0.00    +0.000 C 
ATOM     10  C   UNL     1      49.629   2.784  17.402  0.00  0.00    +0.000 C 
ATOM     11  C   UNL     1      48.572   2.197  16.466  0.00  0.00    +0.000 C 
ATOM     12  N   UNL     1      47.802   3.207  15.746  0.00  0.00    +0.000 NA
ATOM     13  C   UNL     1      47.235   4.222  16.644  0.00  0.00    +0.000 C 
ATOM     14  H   UNL     1      47.059   2.762  15.209  0.00  0.00    +0.000 HD
ENDBRANCH   6   8
ENDBRANCH   1   2
BRANCH   1  15
ATOM     15  C   UNL     1      48.576   7.103  12.528  0.00  0.00    +0.000 C 
BRANCH  15  16
ATOM     16  O   UNL     1      47.163   7.282  12.407  0.00  0.00    +0.000 OA
BRANCH  16  20
ATOM     17  C   UNL     1      44.866   3.972  11.323  0.00  0.00    +0.000 A 
ATOM     18  C   UNL     1      45.469   3.981  12.585  0.00  0.00    +0.000 A 
ATOM     19  C   UNL     1      46.248   5.073  12.982  0.00  0.00    +0.000 A 
ATOM     20  C   UNL     1      46.433   6.158  12.125  0.00  0.00    +0.000 A 
ATOM     21  C   UNL     1      45.844   6.138  10.857  0.00  0.00    +0.000 A 
ATOM     22  C   UNL     1      45.070   5.046  10.452  0.00  0.00    +0.000 A 
BRANCH  17  24
ATOM     23  N   UNL     1      44.515   2.076   9.838  0.00  0.00    +0.000 N 
ATOM     24  C   UNL     1      44.029   2.832  10.870  0.00  0.00    +0.000 C 
ATOM     25  O   UNL     1      42.972   2.551  11.417  0.00  0.00    +0.000 OA
ATOM     26  H   UNL     1      43.992   1.239   9.615  0.00  0.00    +0.000 HD
ATOM     27  H   UNL     1      45.482   2.116   9.550  0.00  0.00    +0.000 HD
ENDBRANCH  17  24
ENDBRANCH  16  20
ENDBRANCH  15  16
ENDBRANCH   1  15
TORSDOF 6
ENDMDL
MODEL 7
REMARK VINA RESULT:    -6.723      4.112      7.574
REMARK INTER + INTRA:          -9.926
REMARK INTER:                  -8.863
REMARK INTRA:                  -1.062
REMARK UNBOUND:                -0.844
REMARK  Name = 
REMARK  6 active torsions:
REMARK  status: ('A' for Active; 'I' for Inactive)
REMARK    1  A    between atoms: C_2  and  C_4
REMARK    2  A    between atoms: C_7  and  O_8
REMARK    3  A    between atoms: O_8  and  C_9
REMARK    4  A    between atoms: C_9  and  C_10
REMARK    5  A    between atoms: C_10  and  C_11
REMARK    6  A    between atoms: C_15  and  C_16
REMARK                            x       y       z     vdW  Elec       q    Type
REMARK                         _______ _______ _______ _____ _____    ______ ____
ROOT
ATOM      1  C   UNL     1      48.950   8.355  12.222  0.00  0.00    +0.000 C 
ENDROOT
BRANCH   1   2
ATOM      2  C   UNL     1      47.480   8.089  12.022  0.00  0.00    +0.000 A 
ATOM      3  C   UNL     1      46.562   9.129  12.197  0.00  0.00    +0.000 A 
ATOM      4  C   UNL     1      45.203   8.896  12.037  0.00  0.00    +0.000 A 
ATOM      5  C   UNL     1      44.753   7.621  11.693  0.00  0.00    +0.000 A 
ATOM      6  C   UNL     1      45.639   6.553  11.498  0.00  0.00    +0.000 A 
ATOM      7  C   UNL     1      47.012   6.803  11.693  0.00  0.00    +0.000 A 
BRANCH   6   8
ATOM      8  C   UNL     1      45.162   5.149  11.105  0.00  0.00    +0.000 C 
ATOM      9  C   UNL     1      43.650   5.083  10.814  0.00  0.00    +0.000 C 
ATOM     10  C   UNL     1      42.828   5.168  12.100  0.00  0.00    +0.000 C 
ATOM     11  C   UNL     1      43.287   4.160  13.155  0.00  0.00    +0.000 C 
ATOM     12  N   UNL     1      44.731   4.161  13.375  0.00  0.00    +0.000 NA
ATOM     13  C   UNL     1      45.486   4.025  12.122  0.00  0.00    +0.000 C 
ATOM     14  H   UNL     1      44.985   3.413  14.018  0.00  0.00    +0.000 HD
ENDBRANCH   6   8
ENDBRANCH   1   2
BRANCH   1  15
ATOM     15  C   UNL     1      49.545   7.423  13.273  0.00  0.00    +0.000 C 
BRANCH  15  16
ATOM     16  O   UNL     1      49.064   7.812  14.562  0.00  0.00    +0.000 OA
BRANCH  16  20
ATOM     17  C   UNL     1      47.937   4.615  16.992  0.00  0.00    +0.000 A 
ATOM     18  C   UNL     1      48.746   5.617  17.540  0.00  0.00    +0.000 A 
ATOM     19  C   UNL     1      49.145   6.703  16.755  0.00  0.00    +0.000 A 
ATOM     20  C   UNL     1      48.744   6.795  15.421  0.00  0.00    +0.000 A 
ATOM     21  C   UNL     1      47.952   5.784  14.872  0.00  0.00    +0.000 A 
ATOM     22  C   UNL     1      47.555   4.692  15.650  0.00  0.00    +0.000 A 
BRANCH  17  24
ATOM     23  N   UNL     1      48.235   3.138  18.903  0.00  0.00    +0.000 N 
ATOM     24  C   UNL     1      47.491   3.450  17.799  0.00  0.00    +0.000 C 
ATOM     25  O   UNL     1      46.482   2.819  17.517  0.00  0.00    +0.000 OA
ATOM     26  H   UNL     1      47.859   2.417  19.505  0.00  0.00    +0.000 HD
ATOM     27  H   UNL     1      48.900   3.783  19.305  0.00  0.00    +0.000 HD
ENDBRANCH  17  24
ENDBRANCH  16  20
ENDBRANCH  15  16
ENDBRANCH   1  15
TORSDOF 6
ENDMDL
MODEL 8
REMARK VINA RESULT:    -6.655      5.161      8.224
REMARK INTER + INTRA:          -9.834
REMARK INTER:                  -9.278
REMARK INTRA:                  -0.556
REMARK UNBOUND:                -0.844
REMARK  Name = 
REMARK  6 active torsions:
REMARK  status: ('A' for Active; 'I' for Inactive)
REMARK    1  A    between atoms: C_2  and  C_4
REMARK    2  A    between atoms: C_7  and  O_8
REMARK    3  A    between atoms: O_8  and  C_9
REMARK    4  A    between atoms: C_9  and  C_10
REMARK    5  A    between atoms: C_10  and  C_11
REMARK    6  A    between atoms: C_15  and  C_16
REMARK                            x       y       z     vdW  Elec       q    Type
REMARK                         _______ _______ _______ _____ _____    ______ ____
ROOT
ATOM      1  C   UNL     1      48.256   5.792  15.529  0.00  0.00    +0.000 C 
ENDROOT
BRANCH   1   2
ATOM      2  C   UNL     1      47.597   5.832  14.174  0.00  0.00    +0.000 A 
ATOM      3  C   UNL     1      48.047   6.745  13.216  0.00  0.00    +0.000 A 
ATOM      4  C   UNL     1      47.437   6.809  11.971  0.00  0.00    +0.000 A 
ATOM      5  C   UNL     1      46.374   5.954  11.674  0.00  0.00    +0.000 A 
ATOM      6  C   UNL     1      45.898   5.018  12.601  0.00  0.00    +0.000 A 
ATOM      7  C   UNL     1      46.513   4.988  13.868  0.00  0.00    +0.000 A 
BRANCH   6   8
ATOM      8  C   UNL     1      44.742   4.060  12.285  0.00  0.00    +0.000 C 
ATOM      9  C   UNL     1      44.174   4.246  10.863  0.00  0.00    +0.000 C 
ATOM     10  C   UNL     1      43.346   5.526  10.754  0.00  0.00    +0.000 C 
ATOM     11  C   UNL     1      42.285   5.630  11.850  0.00  0.00    +0.000 C 
ATOM     12  N   UNL     1      42.801   5.373  13.191  0.00  0.00    +0.000 NA
ATOM     13  C   UNL     1      43.547   4.110  13.270  0.00  0.00    +0.000 C 
ATOM     14  H   UNL     1      42.036   5.370  13.864  0.00  0.00    +0.000 HD
ENDBRANCH   6   8
ENDBRANCH   1   2
BRANCH   1  15
ATOM     15  C   UNL     1      47.752   4.614  16.359  0.00  0.00    +0.000 C 
BRANCH  15  16
ATOM     16  O   UNL     1      48.451   4.595  17.606  0.00  0.00    +0.000 OA
BRANCH  16  20
ATOM     17  C   UNL     1      51.874   2.212  17.639  0.00  0.00    +0.000 A 
ATOM     18  C   UNL     1      52.000   3.565  17.972  0.00  0.00    +0.000 A 
ATOM     19  C   UNL     1      50.875   4.395  17.969  0.00  0.00    +0.000 A 
ATOM     20  C   UNL     1      49.620   3.884  17.633  0.00  0.00    +0.000 A 
ATOM     21  C   UNL     1      49.501   2.536  17.283  0.00  0.00    +0.000 A 
ATOM     22  C   UNL     1      50.623   1.702  17.278  0.00  0.00    +0.000 A 
BRANCH  17  24
ATOM     23  N   UNL     1      52.833   0.012  18.044  0.00  0.00    +0.000 N 
ATOM     24  C   UNL     1      53.047   1.300  17.636  0.00  0.00    +0.000 C 
ATOM     25  O   UNL     1      54.147   1.667  17.250  0.00  0.00    +0.000 OA
ATOM     26  H   UNL     1      53.610  -0.626  17.930  0.00  0.00    +0.000 HD
ATOM     27  H   UNL     1      51.906  -0.385  18.112  0.00  0.00    +0.000 HD
ENDBRANCH  17  24
ENDBRANCH  16  20
ENDBRANCH  15  16
ENDBRANCH   1  15
TORSDOF 6
ENDMDL
MODEL 9
REMARK VINA RESULT:    -6.518      4.134      6.560
REMARK INTER + INTRA:          -9.649
REMARK INTER:                  -8.495
REMARK INTRA:                  -1.154
REMARK UNBOUND:                -0.844
REMARK  Name = 
REMARK  6 active torsions:
REMARK  status: ('A' for Active; 'I' for Inactive)
REMARK    1  A    between atoms: C_2  and  C_4
REMARK    2  A    between atoms: C_7  and  O_8
REMARK    3  A    between atoms: O_8  and  C_9
REMARK    4  A    between atoms: C_9  and  C_10
REMARK    5  A    between atoms: C_10  and  C_11
REMARK    6  A    between atoms: C_15  and  C_16
REMARK                            x       y       z     vdW  Elec       q    Type
REMARK                         _______ _______ _______ _____ _____    ______ ____
ROOT
ATOM      1  C   UNL     1      49.070   8.286  14.591  0.00  0.00    +0.000 C 
ENDROOT
BRANCH   1   2
ATOM      2  C   UNL     1      49.925   7.440  15.501  0.00  0.00    +0.000 A 
ATOM      3  C   UNL     1      51.315   7.459  15.354  0.00  0.00    +0.000 A 
ATOM      4  C   UNL     1      52.114   6.671  16.170  0.00  0.00    +0.000 A 
ATOM      5  C   UNL     1      51.528   5.861  17.144  0.00  0.00    +0.000 A 
ATOM      6  C   UNL     1      50.140   5.818  17.330  0.00  0.00    +0.000 A 
ATOM      7  C   UNL     1      49.344   6.605  16.474  0.00  0.00    +0.000 A 
BRANCH   6   8
ATOM      8  C   UNL     1      49.480   4.946  18.405  0.00  0.00    +0.000 C 
ATOM      9  C   UNL     1      49.572   3.437  18.100  0.00  0.00    +0.000 C 
ATOM     10  C   UNL     1      48.621   3.035  16.973  0.00  0.00    +0.000 C 
ATOM     11  C   UNL     1      47.191   3.519  17.215  0.00  0.00    +0.000 C 
ATOM     12  N   UNL     1      47.105   4.928  17.586  0.00  0.00    +0.000 NA
ATOM     13  C   UNL     1      47.994   5.266  18.705  0.00  0.00    +0.000 C 
ATOM     14  H   UNL     1      46.143   5.169  17.819  0.00  0.00    +0.000 HD
ENDBRANCH   6   8
ENDBRANCH   1   2
BRANCH   1  15
ATOM     15  C   UNL     1      49.234   7.872  13.132  0.00  0.00    +0.000 C 
BRANCH  15  16
ATOM     16  O   UNL     1      48.996   6.467  13.020  0.00  0.00    +0.000 OA
BRANCH  16  20
ATOM     17  C   UNL     1      45.058   5.091  12.993  0.00  0.00    +0.000 A 
ATOM     18  C   UNL     1      45.405   6.137  12.131  0.00  0.00    +0.000 A 
ATOM     19  C   UNL     1      46.715   6.626  12.114  0.00  0.00    +0.000 A 
ATOM     20  C   UNL     1      47.684   6.079  12.956  0.00  0.00    +0.000 A 
ATOM     21  C   UNL     1      47.330   5.047  13.829  0.00  0.00    +0.000 A 
ATOM     22  C   UNL     1      46.020   4.558  13.856  0.00  0.00    +0.000 A 
BRANCH  17  24
ATOM     23  N   UNL     1      42.651   5.449  13.028  0.00  0.00    +0.000 N 
ATOM     24  C   UNL     1      43.678   4.544  13.034  0.00  0.00    +0.000 C 
ATOM     25  O   UNL     1      43.460   3.341  13.033  0.00  0.00    +0.000 OA
ATOM     26  H   UNL     1      41.719   5.065  12.942  0.00  0.00    +0.000 HD
ATOM     27  H   UNL     1      42.786   6.415  12.766  0.00  0.00    +0.000 HD
ENDBRANCH  17  24
ENDBRANCH  16  20
ENDBRANCH  15  16
ENDBRANCH   1  15
TORSDOF 6
ENDMDL
