MODEL 1
REMARK VINA RESULT:    -8.432      0.000      0.000
REMARK INTER + INTRA:         -11.693
REMARK INTER:                 -10.896
REMARK INTRA:                  -0.797
REMARK UNBOUND:                -0.797
REMARK  Name = 
REMARK  5 active torsions:
REMARK  status: ('A' for Active; 'I' for Inactive)
REMARK    1  A    between atoms: C_2  and  C_4
REMARK    2  A    between atoms: C_8  and  C_9
REMARK    3  A    between atoms: C_9  and  O_10
REMARK    4  A    between atoms: O_10  and  C_11
REMARK    5  A    between atoms: C_15  and  C_16
REMARK                            x       y       z     vdW  Elec       q    Type
REMARK                         _______ _______ _______ _____ _____    ______ ____
ROOT
ATOM      1  O   UNL     1      43.383   6.085  10.861  0.00  0.00    +0.000 OA
ENDROOT
BRANCH   1   2
ATOM      2  C   UNL     1      43.718   4.788  10.586  0.00  0.00    +0.000 A 
ATOM      3  C   UNL     1      43.130   3.818  11.392  0.00  0.00    +0.000 A 
ATOM      4  C   UNL     1      43.442   2.475  11.201  0.00  0.00    +0.000 A 
ATOM      5  C   UNL     1      44.324   2.098  10.183  0.00  0.00    +0.000 A 
ATOM      6  C   UNL     1      44.882   3.052   9.312  0.00  0.00    +0.000 A 
ATOM      7  C   UNL     1      44.561   4.401   9.541  0.00  0.00    +0.000 A 
BRANCH   6   8
ATOM      8  C   UNL     1      45.714   2.671   8.147  0.00  0.00    +0.000 A 
ATOM      9  C   UNL     1      45.980   3.589   7.116  0.00  0.00    +0.000 A 
ATOM     10  C   UNL     1      46.851   3.276   6.070  0.00  0.00    +0.000 A 
ATOM     11  C   UNL     1      47.485   2.038   6.033  0.00  0.00    +0.000 A 
ATOM     12  C   UNL     1      47.226   1.103   7.030  0.00  0.00    +0.000 A 
ATOM     13  C   UNL     1      46.340   1.411   8.064  0.00  0.00    +0.000 A 
ENDBRANCH   6   8
ENDBRANCH   1   2
BRANCH   1  14
ATOM     14  C   UNL     1      43.665   6.508  12.203  0.00  0.00    +0.000 C 
BRANCH  14  19
ATOM     15  C   UNL     1      46.839   5.428  13.754  0.00  0.00    +0.000 A 
ATOM     16  C   UNL     1      47.805   6.254  13.194  0.00  0.00    +0.000 A 
ATOM     17  C   UNL     1      47.398   7.195  12.259  0.00  0.00    +0.000 A 
ATOM     18  C   UNL     1      46.053   7.282  11.920  0.00  0.00    +0.000 A 
ATOM     19  C   UNL     1      45.140   6.403  12.510  0.00  0.00    +0.000 A 
ATOM     20  N   UNL     1      45.515   5.479  13.434  0.00  0.00    +0.000 NA
BRANCH  15  22
ATOM     21  N   UNL     1      47.461   4.908  16.042  0.00  0.00    +0.000 N 
ATOM     22  C   UNL     1      47.244   4.418  14.785  0.00  0.00    +0.000 C 
ATOM     23  O   UNL     1      47.377   3.227  14.528  0.00  0.00    +0.000 OA
ATOM     24  H   UNL     1      47.732   4.277  16.781  0.00  0.00    +0.000 HD
ATOM     25  H   UNL     1      47.333   5.898  16.224  0.00  0.00    +0.000 HD
ENDBRANCH  15  22
ENDBRANCH  14  19
ENDBRANCH   1  14
TORSDOF 5
ENDMDL
MODEL 2
REMARK VINA RESULT:    -7.707      1.730      2.501
REMARK INTER + INTRA:         -10.756
REMARK INTER:                 -10.015
REMARK INTRA:                  -0.741
REMARK UNBOUND:                -0.797
REMARK  Name = 
REMARK  5 active torsions:
REMARK  status: ('A' for Active; 'I' for Inactive)
REMARK    1  A    between atoms: C_2  and  C_4
REMARK    2  A    between atoms: C_8  and  C_9
REMARK    3  A    between atoms: C_9  and  O_10
REMARK    4  A    between atoms: O_10  and  C_11
REMARK    5  A    between atoms: C_15  and  C_16
REMARK                            x       y       z     vdW  Elec       q    Type
REMARK                         _______ _______ _______ _____ _____    ______ ____
ROOT
ATOM      1  O   UNL     1      45.712   6.615  12.903  0.00  0.00    +0.000 OA
ENDROOT
BRANCH   1   2
ATOM      2  C   UNL     1      45.011   5.731  12.130  0.00  0.00    +0.000 A 
ATOM      3  C   UNL     1      43.662   5.584  12.438  0.00  0.00    +0.000 A 
ATOM      4  C   UNL     1      42.881   4.680  11.722  0.00  0.00    +0.000 A 
ATOM      5  C   UNL     1      43.446   3.942  10.676  0.00  0.00    +0.000 A 
ATOM      6  C   UNL     1      44.790   4.119  10.302  0.00  0.00    +0.000 A 
ATOM      7  C   UNL     1      45.556   5.026  11.055  0.00  0.00    +0.000 A 
BRANCH   6   8
ATOM      8  C   UNL     1      45.379   3.449   9.120  0.00  0.00    +0.000 A 
ATOM      9  C   UNL     1      45.877   4.195   8.037  0.00  0.00    +0.000 A 
ATOM     10  C   UNL     1      46.532   3.579   6.969  0.00  0.00    +0.000 A 
ATOM     11  C   UNL     1      46.712   2.199   6.959  0.00  0.00    +0.000 A 
ATOM     12  C   UNL     1      46.211   1.433   8.007  0.00  0.00    +0.000 A 
ATOM     13  C   UNL     1      45.540   2.050   9.065  0.00  0.00    +0.000 A 
ENDBRANCH   6   8
ENDBRANCH   1   2
BRANCH   1  14
ATOM     14  C   UNL     1      47.139   6.494  12.813  0.00  0.00    +0.000 C 
BRANCH  14  19
ATOM     15  C   UNL     1      47.929   4.777  15.988  0.00  0.00    +0.000 A 
ATOM     16  C   UNL     1      48.737   5.670  16.681  0.00  0.00    +0.000 A 
ATOM     17  C   UNL     1      49.045   6.879  16.074  0.00  0.00    +0.000 A 
ATOM     18  C   UNL     1      48.539   7.156  14.809  0.00  0.00    +0.000 A 
ATOM     19  C   UNL     1      47.748   6.201  14.164  0.00  0.00    +0.000 A 
ATOM     20  N   UNL     1      47.427   5.013  14.743  0.00  0.00    +0.000 NA
BRANCH  15  22
ATOM     21  N   UNL     1      48.440   2.448  16.441  0.00  0.00    +0.000 N 
ATOM     22  C   UNL     1      47.557   3.474  16.628  0.00  0.00    +0.000 C 
ATOM     23  O   UNL     1      46.529   3.326  17.280  0.00  0.00    +0.000 OA
ATOM     24  H   UNL     1      48.248   1.546  16.850  0.00  0.00    +0.000 HD
ATOM     25  H   UNL     1      49.287   2.605  15.904  0.00  0.00    +0.000 HD
ENDBRANCH  15  22
ENDBRANCH  14  19
ENDBRANCH   1  14
TORSDOF 5
ENDMDL
MODEL 3
REMARK VINA RESULT:    -7.555      2.594      3.934
REMARK INTER + INTRA:         -10.561
REMARK INTER:                  -9.911
REMARK INTRA:                  -0.650
REMARK UNBOUND:                -0.797
REMARK  Name = 
REMARK  5 active torsions:
REMARK  status: ('A' for Active; 'I' for Inactive)
REMARK    1  A    between atoms: C_2  and  C_4
REMARK    2  A    between atoms: C_8  and  C_9
REMARK    3  A    between atoms: C_9  and  O_10
REMARK    4  A    between atoms: O_10  and  C_11
REMARK    5  A    between atoms: C_15  and  C_16
REMARK                            x       y       z     vdW  Elec       q    Type
REMARK                         _______ _______ _______ _____ _____    ______ ____
ROOT
ATOM      1  O   UNL     1      44.263   6.356  11.629  0.00  0.00    +0.000 OA
ENDROOT
BRANCH   1   2
ATOM      2  C   UNL     1      44.227   5.066  11.174  0.00  0.00    +0.000 A 
ATOM      3  C   UNL     1      43.350   4.209  11.832  0.00  0.00    +0.000 A 
ATOM      4  C   UNL     1      43.274   2.870  11.454  0.00  0.00    +0.000 A 
ATOM      5  C   UNL     1      44.058   2.396  10.397  0.00  0.00    +0.000 A 
ATOM      6  C   UNL     1      44.904   3.255   9.674  0.00  0.00    +0.000 A 
ATOM      7  C   UNL     1      44.971   4.596  10.090  0.00  0.00    +0.000 A 
BRANCH   6   8
ATOM      8  C   UNL     1      45.646   2.810   8.471  0.00  0.00    +0.000 A 
ATOM      9  C   UNL     1      45.983   3.717   7.451  0.00  0.00    +0.000 A 
ATOM     10  C   UNL     1      46.775   3.332   6.367  0.00  0.00    +0.000 A 
ATOM     11  C   UNL     1      47.257   2.030   6.280  0.00  0.00    +0.000 A 
ATOM     12  C   UNL     1      46.923   1.105   7.264  0.00  0.00    +0.000 A 
ATOM     13  C   UNL     1      46.115   1.488   8.338  0.00  0.00    +0.000 A 
ENDBRANCH   6   8
ENDBRANCH   1   2
BRANCH   1  14
ATOM     14  C   UNL     1      45.516   6.759  12.199  0.00  0.00    +0.000 C 
BRANCH  14  19
ATOM     15  C   UNL     1      44.821  10.337  11.597  0.00  0.00    +0.000 A 
ATOM     16  C   UNL     1      46.056  10.961  11.715  0.00  0.00    +0.000 A 
ATOM     17  C   UNL     1      47.159  10.176  12.017  0.00  0.00    +0.000 A 
ATOM     18  C   UNL     1      46.995   8.806  12.187  0.00  0.00    +0.000 A 
ATOM     19  C   UNL     1      45.718   8.250  12.073  0.00  0.00    +0.000 A 
ATOM     20  N   UNL     1      44.624   8.999  11.770  0.00  0.00    +0.000 NA
BRANCH  15  22
ATOM     21  N   UNL     1      42.582  11.103  12.140  0.00  0.00    +0.000 N 
ATOM     22  C   UNL     1      43.615  11.154  11.246  0.00  0.00    +0.000 C 
ATOM     23  O   UNL     1      43.547  11.830  10.225  0.00  0.00    +0.000 OA
ATOM     24  H   UNL     1      41.743  11.635  11.961  0.00  0.00    +0.000 HD
ATOM     25  H   UNL     1      42.673  10.542  12.981  0.00  0.00    +0.000 HD
ENDBRANCH  15  22
ENDBRANCH  14  19
ENDBRANCH   1  14
TORSDOF 5
ENDMDL
MODEL 4
REMARK VINA RESULT:    -7.395      2.188      3.233
REMARK INTER + INTRA:         -10.354
REMARK INTER:                  -9.741
REMARK INTRA:                  -0.613
REMARK UNBOUND:                -0.797
REMARK  Name = 
REMARK  5 active torsions:
REMARK  status: ('A' for Active; 'I' for Inactive)
REMARK    1  A    between atoms: C_2  and  C_4
REMARK    2  A    between atoms: C_8  and  C_9
REMARK    3  A    between atoms: C_9  and  O_10
REMARK    4  A    between atoms: O_10  and  C_11
REMARK    5  A    between atoms: C_15  and  C_16
REMARK                            x       y       z     vdW  Elec       q    Type
REMARK                         _______ _______ _______ _____ _____    ______ ____
ROOT
ATOM      1  O   UNL     1      45.339   3.951  13.678  0.00  0.00    +0.000 OA
ENDROOT
BRANCH   1   2
ATOM      2  C   UNL     1      44.845   4.105  12.412  0.00  0.00    +0.000 A 
ATOM      3  C   UNL     1      43.753   4.958  12.279  0.00  0.00    +0.000 A 
ATOM      4  C   UNL     1      43.168   5.146  11.029  0.00  0.00    +0.000 A 
ATOM      5  C   UNL     1      43.694   4.501   9.905  0.00  0.00    +0.000 A 
ATOM      6  C   UNL     1      44.836   3.686  10.001  0.00  0.00    +0.000 A 
ATOM      7  C   UNL     1      45.394   3.502  11.278  0.00  0.00    +0.000 A 
BRANCH   6   8
ATOM      8  C   UNL     1      45.491   3.096   8.810  0.00  0.00    +0.000 A 
ATOM      9  C   UNL     1      45.907   3.903   7.737  0.00  0.00    +0.000 A 
ATOM     10  C   UNL     1      46.622   3.372   6.661  0.00  0.00    +0.000 A 
ATOM     11  C   UNL     1      46.945   2.019   6.635  0.00  0.00    +0.000 A 
ATOM     12  C   UNL     1      46.529   1.192   7.673  0.00  0.00    +0.000 A 
ATOM     13  C   UNL     1      45.798   1.722   8.739  0.00  0.00    +0.000 A 
ENDBRANCH   6   8
ENDBRANCH   1   2
BRANCH   1  14
ATOM     14  C   UNL     1      46.761   3.774  13.753  0.00  0.00    +0.000 C 
BRANCH  14  19
ATOM     15  C   UNL     1      48.626   6.262  15.747  0.00  0.00    +0.000 A 
ATOM     16  C   UNL     1      48.520   5.815  17.058  0.00  0.00    +0.000 A 
ATOM     17  C   UNL     1      47.796   4.656  17.297  0.00  0.00    +0.000 A 
ATOM     18  C   UNL     1      47.209   3.986  16.230  0.00  0.00    +0.000 A 
ATOM     19  C   UNL     1      47.340   4.506  14.939  0.00  0.00    +0.000 A 
ATOM     20  N   UNL     1      48.052   5.636  14.680  0.00  0.00    +0.000 NA
BRANCH  15  22
ATOM     21  N   UNL     1      50.489   7.330  14.617  0.00  0.00    +0.000 N 
ATOM     22  C   UNL     1      49.423   7.497  15.454  0.00  0.00    +0.000 C 
ATOM     23  O   UNL     1      49.145   8.593  15.930  0.00  0.00    +0.000 OA
ATOM     24  H   UNL     1      51.063   8.126  14.378  0.00  0.00    +0.000 HD
ATOM     25  H   UNL     1      50.687   6.413  14.231  0.00  0.00    +0.000 HD
ENDBRANCH  15  22
ENDBRANCH  14  19
ENDBRANCH   1  14
TORSDOF 5
ENDMDL
MODEL 5
REMARK VINA RESULT:    -7.321      3.088      6.468
REMARK INTER + INTRA:         -10.257
REMARK INTER:                  -9.548
REMARK INTRA:                  -0.710
REMARK UNBOUND:                -0.797
REMARK  Name = 
REMARK  5 active torsions:
REMARK  status: ('A' for Active; 'I' for Inactive)
REMARK    1  A    between atoms: C_2  and  C_4
REMARK    2  A    between atoms: C_8  and  C_9
REMARK    3  A    between atoms: C_9  and  O_10
REMARK    4  A    between atoms: O_10  and  C_11
REMARK    5  A    between atoms: C_15  and  C_16
REMARK                            x       y       z     vdW  Elec       q    Type
REMARK                         _______ _______ _______ _____ _____    ______ ____
ROOT
ATOM      1  O   UNL     1      44.907   3.012  11.955  0.00  0.00    +0.000 OA
ENDROOT
BRANCH   1   2
ATOM      2  C   UNL     1      45.117   4.333  12.240  0.00  0.00    +0.000 A 
ATOM      3  C   UNL     1      43.981   5.093  12.499  0.00  0.00    +0.000 A 
ATOM      4  C   UNL     1      44.102   6.454  12.766  0.00  0.00    +0.000 A 
ATOM      5  C   UNL     1      45.367   7.051  12.800  0.00  0.00    +0.000 A 
ATOM      6  C   UNL     1      46.535   6.294  12.606  0.00  0.00    +0.000 A 
ATOM      7  C   UNL     1      46.380   4.926  12.322  0.00  0.00    +0.000 A 
BRANCH   6   8
ATOM      8  C   UNL     1      47.890   6.871  12.766  0.00  0.00    +0.000 A 
ATOM      9  C   UNL     1      48.527   7.530  11.699  0.00  0.00    +0.000 A 
ATOM     10  C   UNL     1      49.756   8.172  11.870  0.00  0.00    +0.000 A 
ATOM     11  C   UNL     1      50.375   8.178  13.115  0.00  0.00    +0.000 A 
ATOM     12  C   UNL     1      49.778   7.518  14.184  0.00  0.00    +0.000 A 
ATOM     13  C   UNL     1      48.559   6.861  14.006  0.00  0.00    +0.000 A 
ENDBRANCH   6   8
ENDBRANCH   1   2
BRANCH   1  14
ATOM     14  C   UNL     1      44.132   2.767  10.773  0.00  0.00    +0.000 C 
BRANCH  14  19
ATOM     15  C   UNL     1      46.378   2.214   7.892  0.00  0.00    +0.000 A 
ATOM     16  C   UNL     1      46.533   3.470   7.319  0.00  0.00    +0.000 A 
ATOM     17  C   UNL     1      45.861   4.538   7.895  0.00  0.00    +0.000 A 
ATOM     18  C   UNL     1      45.068   4.321   9.015  0.00  0.00    +0.000 A 
ATOM     19  C   UNL     1      44.943   3.026   9.525  0.00  0.00    +0.000 A 
ATOM     20  N   UNL     1      45.598   1.966   8.982  0.00  0.00    +0.000 NA
BRANCH  15  22
ATOM     21  N   UNL     1      46.651  -0.188   7.675  0.00  0.00    +0.000 N 
ATOM     22  C   UNL     1      47.111   1.045   7.308  0.00  0.00    +0.000 C 
ATOM     23  O   UNL     1      48.065   1.174   6.547  0.00  0.00    +0.000 OA
ATOM     24  H   UNL     1      47.101  -1.015   7.312  0.00  0.00    +0.000 HD
ATOM     25  H   UNL     1      45.854  -0.262   8.299  0.00  0.00    +0.000 HD
ENDBRANCH  15  22
ENDBRANCH  14  19
ENDBRANCH   1  14
TORSDOF 5
ENDMDL
MODEL 6
REMARK VINA RESULT:    -7.307      3.075      6.761
REMARK INTER + INTRA:         -10.240
REMARK INTER:                  -9.375
REMARK INTRA:                  -0.864
REMARK UNBOUND:                -0.797
REMARK  Name = 
REMARK  5 active torsions:
REMARK  status: ('A' for Active; 'I' for Inactive)
REMARK    1  A    between atoms: C_2  and  C_4
REMARK    2  A    between atoms: C_8  and  C_9
REMARK    3  A    between atoms: C_9  and  O_10
REMARK    4  A    between atoms: O_10  and  C_11
REMARK    5  A    between atoms: C_15  and  C_16
REMARK                            x       y       z     vdW  Elec       q    Type
REMARK                         _______ _______ _______ _____ _____    ______ ____
ROOT
ATOM      1  O   UNL     1      44.168   4.755  10.818  0.00  0.00    +0.000 OA
ENDROOT
BRANCH   1   2
ATOM      2  C   UNL     1      45.218   5.118  11.616  0.00  0.00    +0.000 A 
ATOM      3  C   UNL     1      45.500   4.269  12.681  0.00  0.00    +0.000 A 
ATOM      4  C   UNL     1      46.533   4.581  13.562  0.00  0.00    +0.000 A 
ATOM      5  C   UNL     1      47.302   5.731  13.361  0.00  0.00    +0.000 A 
ATOM      6  C   UNL     1      47.080   6.572  12.256  0.00  0.00    +0.000 A 
ATOM      7  C   UNL     1      46.020   6.240  11.394  0.00  0.00    +0.000 A 
BRANCH   6   8
ATOM      8  C   UNL     1      47.959   7.723  11.946  0.00  0.00    +0.000 A 
ATOM      9  C   UNL     1      47.485   9.043  12.038  0.00  0.00    +0.000 A 
ATOM     10  C   UNL     1      48.334  10.137  11.854  0.00  0.00    +0.000 A 
ATOM     11  C   UNL     1      49.683   9.937  11.581  0.00  0.00    +0.000 A 
ATOM     12  C   UNL     1      50.178   8.642  11.465  0.00  0.00    +0.000 A 
ATOM     13  C   UNL     1      49.322   7.550  11.630  0.00  0.00    +0.000 A 
ENDBRANCH   6   8
ENDBRANCH   1   2
BRANCH   1  14
ATOM     14  C   UNL     1      44.413   4.875   9.409  0.00  0.00    +0.000 C 
BRANCH  14  19
ATOM     15  C   UNL     1      46.462   2.654   7.283  0.00  0.00    +0.000 A 
ATOM     16  C   UNL     1      46.192   1.373   7.748  0.00  0.00    +0.000 A 
ATOM     17  C   UNL     1      45.311   1.235   8.811  0.00  0.00    +0.000 A 
ATOM     18  C   UNL     1      44.732   2.369   9.368  0.00  0.00    +0.000 A 
ATOM     19  C   UNL     1      45.066   3.628   8.861  0.00  0.00    +0.000 A 
ATOM     20  N   UNL     1      45.920   3.786   7.815  0.00  0.00    +0.000 NA
BRANCH  15  22
ATOM     21  N   UNL     1      48.719   2.673   6.391  0.00  0.00    +0.000 N 
ATOM     22  C   UNL     1      47.389   2.833   6.120  0.00  0.00    +0.000 C 
ATOM     23  O   UNL     1      46.992   3.106   4.992  0.00  0.00    +0.000 OA
ATOM     24  H   UNL     1      49.394   2.778   5.647  0.00  0.00    +0.000 HD
ATOM     25  H   UNL     1      49.016   2.438   7.332  0.00  0.00    +0.000 HD
ENDBRANCH  15  22
ENDBRANCH  14  19
ENDBRANCH   1  14
TORSDOF 5
ENDMDL
MODEL 7
REMARK VINA RESULT:    -7.270      2.011      3.376
REMARK INTER + INTRA:         -10.192
REMARK INTER:                  -9.738
REMARK INTRA:                  -0.455
REMARK UNBOUND:                -0.797
REMARK  Name = 
REMARK  5 active torsions:
REMARK  status: ('A' for Active; 'I' for Inactive)
REMARK    1  A    between atoms: C_2  and  C_4
REMARK    2  A    between atoms: C_8  and  C_9
REMARK    3  A    between atoms: C_9  and  O_10
REMARK    4  A    between atoms: O_10  and  C_11
REMARK    5  A    between atoms: C_15  and  C_16
REMARK                            x       y       z     vdW  Elec       q    Type
REMARK                         _______ _______ _______ _____ _____    ______ ____
ROOT
ATOM      1  O   UNL     1      45.648   5.185  13.952  0.00  0.00    +0.000 OA
ENDROOT
BRANCH   1   2
ATOM      2  C   UNL     1      44.917   4.893  12.833  0.00  0.00    +0.000 A 
ATOM      3  C   UNL     1      43.577   5.269  12.861  0.00  0.00    +0.000 A 
ATOM      4  C   UNL     1      42.753   4.980  11.776  0.00  0.00    +0.000 A 
ATOM      5  C   UNL     1      43.277   4.338  10.650  0.00  0.00    +0.000 A 
ATOM      6  C   UNL     1      44.641   4.005  10.569  0.00  0.00    +0.000 A 
ATOM      7  C   UNL     1      45.444   4.294  11.686  0.00  0.00    +0.000 A 
BRANCH   6   8
ATOM      8  C   UNL     1      45.249   3.444   9.341  0.00  0.00    +0.000 A 
ATOM      9  C   UNL     1      45.786   4.283   8.349  0.00  0.00    +0.000 A 
ATOM     10  C   UNL     1      46.459   3.763   7.241  0.00  0.00    +0.000 A 
ATOM     11  C   UNL     1      46.617   2.388   7.100  0.00  0.00    +0.000 A 
ATOM     12  C   UNL     1      46.079   1.532   8.055  0.00  0.00    +0.000 A 
ATOM     13  C   UNL     1      45.391   2.054   9.153  0.00  0.00    +0.000 A 
ENDBRANCH   6   8
ENDBRANCH   1   2
BRANCH   1  14
ATOM     14  C   UNL     1      47.069   5.201  13.755  0.00  0.00    +0.000 C 
BRANCH  14  19
ATOM     15  C   UNL     1      46.976   8.641  12.411  0.00  0.00    +0.000 A 
ATOM     16  C   UNL     1      48.283   8.903  12.020  0.00  0.00    +0.000 A 
ATOM     17  C   UNL     1      49.235   7.913  12.218  0.00  0.00    +0.000 A 
ATOM     18  C   UNL     1      48.855   6.706  12.792  0.00  0.00    +0.000 A 
ATOM     19  C   UNL     1      47.525   6.521  13.179  0.00  0.00    +0.000 A 
ATOM     20  N   UNL     1      46.573   7.473  12.987  0.00  0.00    +0.000 NA
BRANCH  15  22
ATOM     21  N   UNL     1      44.778   9.536  12.923  0.00  0.00    +0.000 N 
ATOM     22  C   UNL     1      45.920   9.681  12.186  0.00  0.00    +0.000 C 
ATOM     23  O   UNL     1      46.061  10.606  11.395  0.00  0.00    +0.000 OA
ATOM     24  H   UNL     1      44.032  10.207  12.819  0.00  0.00    +0.000 HD
ATOM     25  H   UNL     1      44.697   8.764  13.577  0.00  0.00    +0.000 HD
ENDBRANCH  15  22
ENDBRANCH  14  19
ENDBRANCH   1  14
TORSDOF 5
ENDMDL
MODEL 8
REMARK VINA RESULT:    -7.087      2.948      5.602
REMARK INTER + INTRA:          -9.955
REMARK INTER:                  -9.174
REMARK INTRA:                  -0.782
REMARK UNBOUND:                -0.797
REMARK  Name = 
REMARK  5 active torsions:
REMARK  status: ('A' for Active; 'I' for Inactive)
REMARK    1  A    between atoms: C_2  and  C_4
REMARK    2  A    between atoms: C_8  and  C_9
REMARK    3  A    between atoms: C_9  and  O_10
REMARK    4  A    between atoms: O_10  and  C_11
REMARK    5  A    between atoms: C_15  and  C_16
REMARK                            x       y       z     vdW  Elec       q    Type
REMARK                         _______ _______ _______ _____ _____    ______ ____
ROOT
ATOM      1  O   UNL     1      49.171   6.493  14.717  0.00  0.00    +0.000 OA
ENDROOT
BRANCH   1   2
ATOM      2  C   UNL     1      48.064   6.813  13.981  0.00  0.00    +0.000 A 
ATOM      3  C   UNL     1      47.704   8.158  13.969  0.00  0.00    +0.000 A 
ATOM      4  C   UNL     1      46.570   8.566  13.271  0.00  0.00    +0.000 A 
ATOM      5  C   UNL     1      45.811   7.630  12.560  0.00  0.00    +0.000 A 
ATOM      6  C   UNL     1      46.189   6.277  12.502  0.00  0.00    +0.000 A 
ATOM      7  C   UNL     1      47.328   5.893  13.231  0.00  0.00    +0.000 A 
BRANCH   6   8
ATOM      8  C   UNL     1      45.480   5.291  11.654  0.00  0.00    +0.000 A 
ATOM      9  C   UNL     1      45.480   5.407  10.253  0.00  0.00    +0.000 A 
ATOM     10  C   UNL     1      44.909   4.425   9.441  0.00  0.00    +0.000 A 
ATOM     11  C   UNL     1      44.328   3.296  10.011  0.00  0.00    +0.000 A 
ATOM     12  C   UNL     1      44.296   3.164  11.395  0.00  0.00    +0.000 A 
ATOM     13  C   UNL     1      44.851   4.157  12.206  0.00  0.00    +0.000 A 
ENDBRANCH   6   8
ENDBRANCH   1   2
BRANCH   1  14
ATOM     14  C   UNL     1      49.138   6.940  16.080  0.00  0.00    +0.000 C 
BRANCH  14  19
ATOM     15  C   UNL     1      49.374   3.525  17.472  0.00  0.00    +0.000 A 
ATOM     16  C   UNL     1      48.694   3.589  18.681  0.00  0.00    +0.000 A 
ATOM     17  C   UNL     1      48.147   4.806  19.060  0.00  0.00    +0.000 A 
ATOM     18  C   UNL     1      48.293   5.909  18.226  0.00  0.00    +0.000 A 
ATOM     19  C   UNL     1      49.008   5.775  17.033  0.00  0.00    +0.000 A 
ATOM     20  N   UNL     1      49.546   4.590  16.638  0.00  0.00    +0.000 NA
BRANCH  15  22
ATOM     21  N   UNL     1      50.890   1.668  17.853  0.00  0.00    +0.000 N 
ATOM     22  C   UNL     1      49.954   2.218  17.023  0.00  0.00    +0.000 C 
ATOM     23  O   UNL     1      49.617   1.668  15.980  0.00  0.00    +0.000 OA
ATOM     24  H   UNL     1      51.315   0.786  17.607  0.00  0.00    +0.000 HD
ATOM     25  H   UNL     1      51.140   2.143  18.714  0.00  0.00    +0.000 HD
ENDBRANCH  15  22
ENDBRANCH  14  19
ENDBRANCH   1  14
TORSDOF 5
ENDMDL
MODEL 9
REMARK VINA RESULT:    -6.851      4.112      8.387
REMARK INTER + INTRA:          -9.650
REMARK INTER:                  -9.044
REMARK INTRA:                  -0.606
REMARK UNBOUND:                -0.797
REMARK  Name = 
REMARK  5 active torsions:
REMARK  status: ('A' for Active; 'I' for Inactive)
REMARK    1  A    between atoms: C_2  and  C_4
REMARK    2  A    between atoms: C_8  and  C_9
REMARK    3  A    between atoms: C_9  and  O_10
REMARK    4  A    between atoms: O_10  and  C_11
REMARK    5  A    between atoms: C_15  and  C_16
REMARK                            x       y       z     vdW  Elec       q    Type
REMARK                         _______ _______ _______ _____ _____    ______ ____
ROOT
ATOM      1  O   UNL     1      46.668   4.156  15.922  0.00  0.00    +0.000 OA
ENDROOT
BRANCH   1   2
ATOM      2  C   UNL     1      47.613   4.230  16.909  0.00  0.00    +0.000 A 
ATOM      3  C   UNL     1      47.260   4.955  18.043  0.00  0.00    +0.000 A 
ATOM      4  C   UNL     1      48.175   5.107  19.082  0.00  0.00    +0.000 A 
ATOM      5  C   UNL     1      49.436   4.508  18.997  0.00  0.00    +0.000 A 
ATOM      6  C   UNL     1      49.794   3.717  17.892  0.00  0.00    +0.000 A 
ATOM      7  C   UNL     1      48.856   3.596  16.852  0.00  0.00    +0.000 A 
BRANCH   6   8
ATOM      8  C   UNL     1      51.071   2.967  17.834  0.00  0.00    +0.000 A 
ATOM      9  C   UNL     1      52.268   3.536  18.302  0.00  0.00    +0.000 A 
ATOM     10  C   UNL     1      53.453   2.800  18.353  0.00  0.00    +0.000 A 
ATOM     11  C   UNL     1      53.469   1.470  17.944  0.00  0.00    +0.000 A 
ATOM     12  C   UNL     1      52.304   0.885  17.458  0.00  0.00    +0.000 A 
ATOM     13  C   UNL     1      51.125   1.630  17.391  0.00  0.00    +0.000 A 
ENDBRANCH   6   8
ENDBRANCH   1   2
BRANCH   1  14
ATOM     14  C   UNL     1      47.164   3.733  14.644  0.00  0.00    +0.000 C 
BRANCH  14  19
ATOM     15  C   UNL     1      44.780   3.722  11.821  0.00  0.00    +0.000 A 
ATOM     16  C   UNL     1      44.729   5.044  11.398  0.00  0.00    +0.000 A 
ATOM     17  C   UNL     1      45.499   5.978  12.076  0.00  0.00    +0.000 A 
ATOM     18  C   UNL     1      46.289   5.566  13.142  0.00  0.00    +0.000 A 
ATOM     19  C   UNL     1      46.275   4.222  13.525  0.00  0.00    +0.000 A 
ATOM     20  N   UNL     1      45.535   3.288  12.870  0.00  0.00    +0.000 NA
BRANCH  15  22
ATOM     21  N   UNL     1      44.513   2.243   9.916  0.00  0.00    +0.000 N 
ATOM     22  C   UNL     1      43.980   2.686  11.093  0.00  0.00    +0.000 C 
ATOM     23  O   UNL     1      42.912   2.256  11.517  0.00  0.00    +0.000 OA
ATOM     24  H   UNL     1      44.023   1.541   9.381  0.00  0.00    +0.000 HD
ATOM     25  H   UNL     1      45.404   2.611   9.597  0.00  0.00    +0.000 HD
ENDBRANCH  15  22
ENDBRANCH  14  19
ENDBRANCH   1  14
TORSDOF 5
ENDMDL
