MODEL 1
REMARK VINA RESULT:    -8.392      0.000      0.000
REMARK INTER + INTRA:         -13.793
REMARK INTER:                 -12.807
REMARK INTRA:                  -0.986
REMARK UNBOUND:                -0.986
REMARK  Name = 
REMARK  10 active torsions:
REMARK  status: ('A' for Active; 'I' for Inactive)
REMARK    1  A    between atoms: C_1  and  O_2
REMARK    2  A    between atoms: O_2  and  C_3
REMARK    3  A    between atoms: C_3  and  C_4
REMARK    4  A    between atoms: C_4  and  N_5
REMARK    5  A    between atoms: C_4  and  C_13
REMARK    6  A    between atoms: N_5  and  C_6
REMARK    7  A    between atoms: C_6  and  C_7
REMARK    8  A    between atoms: C_16  and  C_17
REMARK    9  A    between atoms: C_17  and  N_18
REMARK   10  A    between atoms: C_19  and  C_21
REMARK                            x       y       z     vdW  Elec       q    Type
REMARK                         _______ _______ _______ _____ _____    ______ ____
ROOT
ATOM      1  C   UNL     1      45.883   5.443  11.576  0.00  0.00    +0.000 A 
ATOM      2  C   UNL     1      46.187   4.938  12.853  0.00  0.00    +0.000 A 
ATOM      3  C   UNL     1      47.202   5.505  13.631  0.00  0.00    +0.000 A 
ATOM      4  C   UNL     1      47.896   6.634  13.181  0.00  0.00    +0.000 A 
ATOM      5  C   UNL     1      47.588   7.153  11.921  0.00  0.00    +0.000 A 
ATOM      6  C   UNL     1      46.601   6.562  11.127  0.00  0.00    +0.000 A 
ENDROOT
BRANCH   1   7
ATOM      7  C   UNL     1      44.879   4.697  10.688  0.00  0.00    +0.000 C 
BRANCH   7   8
ATOM      8  N   UNL     1      45.188   4.883   9.253  0.00  0.00    +0.000 NA
ATOM      9  H   UNL     1      46.194   4.977   9.129  0.00  0.00    +0.000 HD
BRANCH   8  10
ATOM     10  C   UNL     1      44.688   3.814   8.385  0.00  0.00    +0.000 C 
BRANCH  10  11
ATOM     11  C   UNL     1      45.812   2.943   7.886  0.00  0.00    +0.000 A 
ATOM     12  C   UNL     1      46.825   3.463   7.072  0.00  0.00    +0.000 A 
ATOM     13  C   UNL     1      47.817   2.606   6.620  0.00  0.00    +0.000 A 
ATOM     14  N   UNL     1      47.869   1.293   6.922  0.00  0.00    +0.000 NA
ATOM     15  C   UNL     1      46.890   0.818   7.722  0.00  0.00    +0.000 A 
ATOM     16  C   UNL     1      45.863   1.590   8.230  0.00  0.00    +0.000 A 
ENDBRANCH  10  11
ENDBRANCH   8  10
ENDBRANCH   7   8
BRANCH   7  17
ATOM     17  C   UNL     1      43.410   5.136  11.002  0.00  0.00    +0.000 C 
BRANCH  17  19
ATOM     18  C   UNL     1      43.296   2.905  11.746  0.00  0.00    +0.000 C 
ATOM     19  O   UNL     1      42.700   4.200  11.823  0.00  0.00    +0.000 OA
ENDBRANCH  17  19
ENDBRANCH   7  17
ENDBRANCH   1   7
BRANCH   4  20
ATOM     20  C   UNL     1      48.971   7.267  14.026  0.00  0.00    +0.000 C 
BRANCH  20  21
ATOM     21  N   UNL     1      48.567   7.364  15.403  0.00  0.00    +0.000 N 
ATOM     22  C   UNL     1      49.285   6.768  16.410  0.00  0.00    +0.000 C 
ATOM     23  O   UNL     1      50.339   6.177  16.204  0.00  0.00    +0.000 OA
ATOM     24  H   UNL     1      47.594   7.601  15.572  0.00  0.00    +0.000 HD
BRANCH  22  25
ATOM     25  C   UNL     1      48.757   6.945  17.768  0.00  0.00    +0.000 A 
ATOM     26  C   UNL     1      48.304   8.191  18.174  0.00  0.00    +0.000 A 
ATOM     27  S   UNL     1      47.684   8.208  19.763  0.00  0.00    +0.000 S 
ATOM     28  C   UNL     1      48.050   6.562  19.982  0.00  0.00    +0.000 A 
ATOM     29  N   UNL     1      47.793   5.938  21.162  0.00  0.00    +0.000 NA
ATOM     30  C   UNL     1      48.145   4.696  21.197  0.00  0.00    +0.000 A 
ATOM     31  N   UNL     1      48.721   4.019  20.157  0.00  0.00    +0.000 N 
ATOM     32  C   UNL     1      48.965   4.592  18.932  0.00  0.00    +0.000 A 
ATOM     33  O   UNL     1      49.418   3.941  17.999  0.00  0.00    +0.000 OA
ATOM     34  C   UNL     1      48.610   6.000  18.847  0.00  0.00    +0.000 A 
ATOM     35  H   UNL     1      48.955   3.041  20.243  0.00  0.00    +0.000 HD
ENDBRANCH  22  25
ENDBRANCH  20  21
ENDBRANCH   4  20
TORSDOF 9
ENDMDL
MODEL 2
REMARK VINA RESULT:    -8.306      1.219      1.991
REMARK INTER + INTRA:         -13.662
REMARK INTER:                 -12.406
REMARK INTRA:                  -1.256
REMARK UNBOUND:                -0.986
REMARK  Name = 
REMARK  10 active torsions:
REMARK  status: ('A' for Active; 'I' for Inactive)
REMARK    1  A    between atoms: C_1  and  O_2
REMARK    2  A    between atoms: O_2  and  C_3
REMARK    3  A    between atoms: C_3  and  C_4
REMARK    4  A    between atoms: C_4  and  N_5
REMARK    5  A    between atoms: C_4  and  C_13
REMARK    6  A    between atoms: N_5  and  C_6
REMARK    7  A    between atoms: C_6  and  C_7
REMARK    8  A    between atoms: C_16  and  C_17
REMARK    9  A    between atoms: C_17  and  N_18
REMARK   10  A    between atoms: C_19  and  C_21
REMARK                            x       y       z     vdW  Elec       q    Type
REMARK                         _______ _______ _______ _____ _____    ______ ____
ROOT
ATOM      1  C   UNL     1      45.957   5.336  11.655  0.00  0.00    +0.000 A 
ATOM      2  C   UNL     1      46.595   6.531  11.276  0.00  0.00    +0.000 A 
ATOM      3  C   UNL     1      47.413   7.229  12.169  0.00  0.00    +0.000 A 
ATOM      4  C   UNL     1      47.669   6.717  13.447  0.00  0.00    +0.000 A 
ATOM      5  C   UNL     1      47.054   5.521  13.827  0.00  0.00    +0.000 A 
ATOM      6  C   UNL     1      46.205   4.845  12.946  0.00  0.00    +0.000 A 
ENDROOT
BRANCH   1   7
ATOM      7  C   UNL     1      44.942   4.688  10.706  0.00  0.00    +0.000 C 
BRANCH   7   8
ATOM      8  N   UNL     1      45.315   4.906   9.290  0.00  0.00    +0.000 NA
ATOM      9  H   UNL     1      46.328   4.934   9.204  0.00  0.00    +0.000 HD
BRANCH   8  10
ATOM     10  C   UNL     1      44.775   3.907   8.364  0.00  0.00    +0.000 C 
BRANCH  10  11
ATOM     11  C   UNL     1      45.860   3.003   7.840  0.00  0.00    +0.000 A 
ATOM     12  C   UNL     1      46.819   3.472   6.933  0.00  0.00    +0.000 A 
ATOM     13  C   UNL     1      47.776   2.587   6.463  0.00  0.00    +0.000 A 
ATOM     14  N   UNL     1      47.845   1.291   6.832  0.00  0.00    +0.000 NA
ATOM     15  C   UNL     1      46.920   0.865   7.720  0.00  0.00    +0.000 A 
ATOM     16  C   UNL     1      45.931   1.670   8.252  0.00  0.00    +0.000 A 
ENDBRANCH  10  11
ENDBRANCH   8  10
ENDBRANCH   7   8
BRANCH   7  17
ATOM     17  C   UNL     1      43.492   5.208  10.985  0.00  0.00    +0.000 C 
BRANCH  17  19
ATOM     18  C   UNL     1      43.242   2.974  11.686  0.00  0.00    +0.000 C 
ATOM     19  O   UNL     1      42.697   4.292  11.749  0.00  0.00    +0.000 OA
ENDBRANCH  17  19
ENDBRANCH   7  17
ENDBRANCH   1   7
BRANCH   4  20
ATOM     20  C   UNL     1      48.572   7.449  14.406  0.00  0.00    +0.000 C 
BRANCH  20  21
ATOM     21  N   UNL     1      48.365   7.008  15.759  0.00  0.00    +0.000 N 
ATOM     22  C   UNL     1      49.359   6.389  16.478  0.00  0.00    +0.000 C 
ATOM     23  O   UNL     1      50.491   6.235  16.034  0.00  0.00    +0.000 OA
ATOM     24  H   UNL     1      47.400   6.877  16.050  0.00  0.00    +0.000 HD
BRANCH  22  25
ATOM     25  C   UNL     1      49.010   5.989  17.845  0.00  0.00    +0.000 A 
ATOM     26  C   UNL     1      49.233   4.684  18.259  0.00  0.00    +0.000 A 
ATOM     27  S   UNL     1      48.811   4.401  19.888  0.00  0.00    +0.000 S 
ATOM     28  C   UNL     1      48.265   6.000  20.080  0.00  0.00    +0.000 A 
ATOM     29  N   UNL     1      47.739   6.424  21.261  0.00  0.00    +0.000 NA
ATOM     30  C   UNL     1      47.341   7.652  21.257  0.00  0.00    +0.000 A 
ATOM     31  N   UNL     1      47.430   8.498  20.185  0.00  0.00    +0.000 N 
ATOM     32  C   UNL     1      47.988   8.132  18.984  0.00  0.00    +0.000 A 
ATOM     33  O   UNL     1      48.116   8.932  18.067  0.00  0.00    +0.000 OA
ATOM     34  C   UNL     1      48.430   6.748  18.926  0.00  0.00    +0.000 A 
ATOM     35  H   UNL     1      47.117   9.456  20.256  0.00  0.00    +0.000 HD
ENDBRANCH  22  25
ENDBRANCH  20  21
ENDBRANCH   4  20
TORSDOF 9
ENDMDL
MODEL 3
REMARK VINA RESULT:    -8.292      2.271      2.592
REMARK INTER + INTRA:         -13.641
REMARK INTER:                 -12.485
REMARK INTRA:                  -1.156
REMARK UNBOUND:                -0.986
REMARK  Name = 
REMARK  10 active torsions:
REMARK  status: ('A' for Active; 'I' for Inactive)
REMARK    1  A    between atoms: C_1  and  O_2
REMARK    2  A    between atoms: O_2  and  C_3
REMARK    3  A    between atoms: C_3  and  C_4
REMARK    4  A    between atoms: C_4  and  N_5
REMARK    5  A    between atoms: C_4  and  C_13
REMARK    6  A    between atoms: N_5  and  C_6
REMARK    7  A    between atoms: C_6  and  C_7
REMARK    8  A    between atoms: C_16  and  C_17
REMARK    9  A    between atoms: C_17  and  N_18
REMARK   10  A    between atoms: C_19  and  C_21
REMARK                            x       y       z     vdW  Elec       q    Type
REMARK                         _______ _______ _______ _____ _____    ______ ____
ROOT
ATOM      1  C   UNL     1      45.895   5.440  11.935  0.00  0.00    +0.000 A 
ATOM      2  C   UNL     1      46.387   4.816  13.096  0.00  0.00    +0.000 A 
ATOM      3  C   UNL     1      47.230   5.496  13.980  0.00  0.00    +0.000 A 
ATOM      4  C   UNL     1      47.551   6.841  13.764  0.00  0.00    +0.000 A 
ATOM      5  C   UNL     1      47.052   7.475  12.622  0.00  0.00    +0.000 A 
ATOM      6  C   UNL     1      46.242   6.782  11.718  0.00  0.00    +0.000 A 
ENDROOT
BRANCH   1   7
ATOM      7  C   UNL     1      45.109   4.615  10.908  0.00  0.00    +0.000 C 
BRANCH   7   8
ATOM      8  N   UNL     1      45.479   4.985   9.524  0.00  0.00    +0.000 NA
ATOM      9  H   UNL     1      46.492   4.975   9.427  0.00  0.00    +0.000 HD
BRANCH   8  10
ATOM     10  C   UNL     1      44.881   4.134   8.492  0.00  0.00    +0.000 C 
BRANCH  10  11
ATOM     11  C   UNL     1      45.879   3.140   7.956  0.00  0.00    +0.000 A 
ATOM     12  C   UNL     1      46.862   3.524   7.036  0.00  0.00    +0.000 A 
ATOM     13  C   UNL     1      47.734   2.559   6.556  0.00  0.00    +0.000 A 
ATOM     14  N   UNL     1      47.697   1.263   6.928  0.00  0.00    +0.000 NA
ATOM     15  C   UNL     1      46.751   0.920   7.830  0.00  0.00    +0.000 A 
ATOM     16  C   UNL     1      45.841   1.806   8.372  0.00  0.00    +0.000 A 
ENDBRANCH  10  11
ENDBRANCH   8  10
ENDBRANCH   7   8
BRANCH   7  17
ATOM     17  C   UNL     1      43.566   4.758  11.129  0.00  0.00    +0.000 C 
BRANCH  17  19
ATOM     18  C   UNL     1      43.499   2.636  12.147  0.00  0.00    +0.000 C 
ATOM     19  O   UNL     1      42.882   3.500  11.193  0.00  0.00    +0.000 OA
ENDBRANCH  17  19
ENDBRANCH   7  17
ENDBRANCH   1   7
BRANCH   4  20
ATOM     20  C   UNL     1      48.436   7.588  14.727  0.00  0.00    +0.000 C 
BRANCH  20  21
ATOM     21  N   UNL     1      49.418   6.720  15.318  0.00  0.00    +0.000 N 
ATOM     22  C   UNL     1      49.367   6.368  16.644  0.00  0.00    +0.000 C 
ATOM     23  O   UNL     1      48.453   6.718  17.381  0.00  0.00    +0.000 OA
ATOM     24  H   UNL     1      50.303   6.638  14.826  0.00  0.00    +0.000 HD
BRANCH  22  25
ATOM     25  C   UNL     1      50.435   5.479  17.115  0.00  0.00    +0.000 A 
ATOM     26  C   UNL     1      51.620   6.018  17.593  0.00  0.00    +0.000 A 
ATOM     27  S   UNL     1      52.733   4.847  18.139  0.00  0.00    +0.000 S 
ATOM     28  C   UNL     1      51.691   3.576  17.706  0.00  0.00    +0.000 A 
ATOM     29  N   UNL     1      52.056   2.278  17.886  0.00  0.00    +0.000 NA
ATOM     30  C   UNL     1      51.179   1.417  17.488  0.00  0.00    +0.000 A 
ATOM     31  N   UNL     1      49.968   1.734  16.937  0.00  0.00    +0.000 N 
ATOM     32  C   UNL     1      49.535   3.028  16.771  0.00  0.00    +0.000 A 
ATOM     33  O   UNL     1      48.418   3.279  16.338  0.00  0.00    +0.000 OA
ATOM     34  C   UNL     1      50.497   4.039  17.179  0.00  0.00    +0.000 A 
ATOM     35  H   UNL     1      49.318   1.011  16.665  0.00  0.00    +0.000 HD
ENDBRANCH  22  25
ENDBRANCH  20  21
ENDBRANCH   4  20
TORSDOF 9
ENDMDL
MODEL 4
REMARK VINA RESULT:    -7.176      3.377      8.690
REMARK INTER + INTRA:         -11.938
REMARK INTER:                 -10.142
REMARK INTRA:                  -1.796
REMARK UNBOUND:                -0.986
REMARK  Name = 
REMARK  10 active torsions:
REMARK  status: ('A' for Active; 'I' for Inactive)
REMARK    1  A    between atoms: C_1  and  O_2
REMARK    2  A    between atoms: O_2  and  C_3
REMARK    3  A    between atoms: C_3  and  C_4
REMARK    4  A    between atoms: C_4  and  N_5
REMARK    5  A    between atoms: C_4  and  C_13
REMARK    6  A    between atoms: N_5  and  C_6
REMARK    7  A    between atoms: C_6  and  C_7
REMARK    8  A    between atoms: C_16  and  C_17
REMARK    9  A    between atoms: C_17  and  N_18
REMARK   10  A    between atoms: C_19  and  C_21
REMARK                            x       y       z     vdW  Elec       q    Type
REMARK                         _______ _______ _______ _____ _____    ______ ____
ROOT
ATOM      1  C   UNL     1      48.779   7.429  16.497  0.00  0.00    +0.000 A 
ATOM      2  C   UNL     1      48.837   6.371  15.572  0.00  0.00    +0.000 A 
ATOM      3  C   UNL     1      48.603   6.587  14.211  0.00  0.00    +0.000 A 
ATOM      4  C   UNL     1      48.370   7.880  13.726  0.00  0.00    +0.000 A 
ATOM      5  C   UNL     1      48.329   8.941  14.635  0.00  0.00    +0.000 A 
ATOM      6  C   UNL     1      48.524   8.717  16.001  0.00  0.00    +0.000 A 
ENDROOT
BRANCH   1   7
ATOM      7  C   UNL     1      48.880   7.128  17.998  0.00  0.00    +0.000 C 
BRANCH   7   8
ATOM      8  N   UNL     1      47.777   6.247  18.443  0.00  0.00    +0.000 NA
ATOM      9  H   UNL     1      47.187   6.010  17.650  0.00  0.00    +0.000 HD
BRANCH   8  10
ATOM     10  C   UNL     1      48.219   5.018  19.107  0.00  0.00    +0.000 C 
BRANCH  10  11
ATOM     11  C   UNL     1      48.619   3.967  18.103  0.00  0.00    +0.000 A 
ATOM     12  C   UNL     1      47.682   3.410  17.225  0.00  0.00    +0.000 A 
ATOM     13  C   UNL     1      48.102   2.427  16.343  0.00  0.00    +0.000 A 
ATOM     14  N   UNL     1      49.371   1.972  16.276  0.00  0.00    +0.000 NA
ATOM     15  C   UNL     1      50.261   2.536  17.121  0.00  0.00    +0.000 A 
ATOM     16  C   UNL     1      49.943   3.526  18.031  0.00  0.00    +0.000 A 
ENDBRANCH  10  11
ENDBRANCH   8  10
ENDBRANCH   7   8
BRANCH   7  17
ATOM     17  C   UNL     1      48.913   8.447  18.839  0.00  0.00    +0.000 C 
BRANCH  17  19
ATOM     18  C   UNL     1      51.077   7.640  19.298  0.00  0.00    +0.000 C 
ATOM     19  O   UNL     1      50.045   8.535  19.713  0.00  0.00    +0.000 OA
ENDBRANCH  17  19
ENDBRANCH   7  17
ENDBRANCH   1   7
BRANCH   4  20
ATOM     20  C   UNL     1      48.145   8.125  12.257  0.00  0.00    +0.000 C 
BRANCH  20  21
ATOM     21  N   UNL     1      47.480   7.010  11.635  0.00  0.00    +0.000 N 
ATOM     22  C   UNL     1      46.121   6.996  11.442  0.00  0.00    +0.000 C 
ATOM     23  O   UNL     1      45.407   7.950  11.728  0.00  0.00    +0.000 OA
ATOM     24  H   UNL     1      47.982   6.127  11.638  0.00  0.00    +0.000 HD
BRANCH  22  25
ATOM     25  C   UNL     1      45.576   5.794  10.800  0.00  0.00    +0.000 A 
ATOM     26  C   UNL     1      45.777   5.586   9.444  0.00  0.00    +0.000 A 
ATOM     27  S   UNL     1      45.115   4.123   8.871  0.00  0.00    +0.000 S 
ATOM     28  C   UNL     1      44.489   3.742  10.405  0.00  0.00    +0.000 A 
ATOM     29  N   UNL     1      43.769   2.606  10.606  0.00  0.00    +0.000 NA
ATOM     30  C   UNL     1      43.333   2.457  11.812  0.00  0.00    +0.000 A 
ATOM     31  N   UNL     1      43.559   3.335  12.837  0.00  0.00    +0.000 N 
ATOM     32  C   UNL     1      44.312   4.476  12.697  0.00  0.00    +0.000 A 
ATOM     33  O   UNL     1      44.553   5.205  13.650  0.00  0.00    +0.000 OA
ATOM     34  C   UNL     1      44.806   4.704  11.349  0.00  0.00    +0.000 A 
ATOM     35  H   UNL     1      43.205   3.148  13.765  0.00  0.00    +0.000 HD
ENDBRANCH  22  25
ENDBRANCH  20  21
ENDBRANCH   4  20
TORSDOF 9
ENDMDL
MODEL 5
REMARK VINA RESULT:    -7.175      3.043      8.956
REMARK INTER + INTRA:         -11.936
REMARK INTER:                 -10.130
REMARK INTRA:                  -1.806
REMARK UNBOUND:                -0.986
REMARK  Name = 
REMARK  10 active torsions:
REMARK  status: ('A' for Active; 'I' for Inactive)
REMARK    1  A    between atoms: C_1  and  O_2
REMARK    2  A    between atoms: O_2  and  C_3
REMARK    3  A    between atoms: C_3  and  C_4
REMARK    4  A    between atoms: C_4  and  N_5
REMARK    5  A    between atoms: C_4  and  C_13
REMARK    6  A    between atoms: N_5  and  C_6
REMARK    7  A    between atoms: C_6  and  C_7
REMARK    8  A    between atoms: C_16  and  C_17
REMARK    9  A    between atoms: C_17  and  N_18
REMARK   10  A    between atoms: C_19  and  C_21
REMARK                            x       y       z     vdW  Elec       q    Type
REMARK                         _______ _______ _______ _____ _____    ______ ____
ROOT
ATOM      1  C   UNL     1      49.105   7.919  16.301  0.00  0.00    +0.000 A 
ATOM      2  C   UNL     1      49.642   6.974  15.407  0.00  0.00    +0.000 A 
ATOM      3  C   UNL     1      49.202   6.903  14.082  0.00  0.00    +0.000 A 
ATOM      4  C   UNL     1      48.262   7.818  13.594  0.00  0.00    +0.000 A 
ATOM      5  C   UNL     1      47.736   8.772  14.471  0.00  0.00    +0.000 A 
ATOM      6  C   UNL     1      48.147   8.817  15.806  0.00  0.00    +0.000 A 
ENDROOT
BRANCH   1   7
ATOM      7  C   UNL     1      49.493   7.860  17.784  0.00  0.00    +0.000 C 
BRANCH   7   8
ATOM      8  N   UNL     1      50.114   6.560  18.126  0.00  0.00    +0.000 NA
ATOM      9  H   UNL     1      50.860   6.706  18.802  0.00  0.00    +0.000 HD
BRANCH   8  10
ATOM     10  C   UNL     1      49.175   5.562  18.643  0.00  0.00    +0.000 C 
BRANCH  10  11
ATOM     11  C   UNL     1      49.187   4.312  17.802  0.00  0.00    +0.000 A 
ATOM     12  C   UNL     1      48.082   3.955  17.019  0.00  0.00    +0.000 A 
ATOM     13  C   UNL     1      48.139   2.779  16.289  0.00  0.00    +0.000 A 
ATOM     14  N   UNL     1      49.204   1.951  16.281  0.00  0.00    +0.000 NA
ATOM     15  C   UNL     1      50.265   2.324  17.031  0.00  0.00    +0.000 A 
ATOM     16  C   UNL     1      50.309   3.479  17.788  0.00  0.00    +0.000 A 
ENDBRANCH  10  11
ENDBRANCH   8  10
ENDBRANCH   7   8
BRANCH   7  17
ATOM     17  C   UNL     1      48.259   8.145  18.703  0.00  0.00    +0.000 C 
BRANCH  17  19
ATOM     18  C   UNL     1      47.770   8.582  20.965  0.00  0.00    +0.000 C 
ATOM     19  O   UNL     1      48.576   8.950  19.846  0.00  0.00    +0.000 OA
ENDBRANCH  17  19
ENDBRANCH   7  17
ENDBRANCH   1   7
BRANCH   4  20
ATOM     20  C   UNL     1      47.804   7.766  12.160  0.00  0.00    +0.000 C 
BRANCH  20  21
ATOM     21  N   UNL     1      47.045   6.573  11.896  0.00  0.00    +0.000 N 
ATOM     22  C   UNL     1      45.692   6.511  12.123  0.00  0.00    +0.000 C 
ATOM     23  O   UNL     1      45.045   7.481  12.502  0.00  0.00    +0.000 OA
ATOM     24  H   UNL     1      47.571   5.704  11.846  0.00  0.00    +0.000 HD
BRANCH  22  25
ATOM     25  C   UNL     1      45.045   5.231  11.813  0.00  0.00    +0.000 A 
ATOM     26  C   UNL     1      44.348   4.553  12.802  0.00  0.00    +0.000 A 
ATOM     27  S   UNL     1      43.623   3.108  12.260  0.00  0.00    +0.000 S 
ATOM     28  C   UNL     1      44.262   3.310  10.697  0.00  0.00    +0.000 A 
ATOM     29  N   UNL     1      44.037   2.388   9.724  0.00  0.00    +0.000 NA
ATOM     30  C   UNL     1      44.603   2.655   8.594  0.00  0.00    +0.000 A 
ATOM     31  N   UNL     1      45.364   3.765   8.346  0.00  0.00    +0.000 N 
ATOM     32  C   UNL     1      45.588   4.746   9.282  0.00  0.00    +0.000 A 
ATOM     33  O   UNL     1      46.216   5.761   9.009  0.00  0.00    +0.000 OA
ATOM     34  C   UNL     1      44.993   4.480  10.582  0.00  0.00    +0.000 A 
ATOM     35  H   UNL     1      45.762   3.925   7.432  0.00  0.00    +0.000 HD
ENDBRANCH  22  25
ENDBRANCH  20  21
ENDBRANCH   4  20
TORSDOF 9
ENDMDL
MODEL 6
REMARK VINA RESULT:    -6.972      2.329      2.666
REMARK INTER + INTRA:         -11.627
REMARK INTER:                 -10.475
REMARK INTRA:                  -1.152
REMARK UNBOUND:                -0.986
REMARK  Name = 
REMARK  10 active torsions:
REMARK  status: ('A' for Active; 'I' for Inactive)
REMARK    1  A    between atoms: C_1  and  O_2
REMARK    2  A    between atoms: O_2  and  C_3
REMARK    3  A    between atoms: C_3  and  C_4
REMARK    4  A    between atoms: C_4  and  N_5
REMARK    5  A    between atoms: C_4  and  C_13
REMARK    6  A    between atoms: N_5  and  C_6
REMARK    7  A    between atoms: C_6  and  C_7
REMARK    8  A    between atoms: C_16  and  C_17
REMARK    9  A    between atoms: C_17  and  N_18
REMARK   10  A    between atoms: C_19  and  C_21
REMARK                            x       y       z     vdW  Elec       q    Type
REMARK                         _______ _______ _______ _____ _____    ______ ____
ROOT
ATOM      1  C   UNL     1      46.360   6.327  11.447  0.00  0.00    +0.000 A 
ATOM      2  C   UNL     1      46.273   6.543  12.834  0.00  0.00    +0.000 A 
ATOM      3  C   UNL     1      47.251   7.274  13.515  0.00  0.00    +0.000 A 
ATOM      4  C   UNL     1      48.309   7.867  12.817  0.00  0.00    +0.000 A 
ATOM      5  C   UNL     1      48.394   7.674  11.435  0.00  0.00    +0.000 A 
ATOM      6  C   UNL     1      47.437   6.909  10.762  0.00  0.00    +0.000 A 
ENDROOT
BRANCH   1   7
ATOM      7  C   UNL     1      45.359   5.386  10.764  0.00  0.00    +0.000 C 
BRANCH   7   8
ATOM      8  N   UNL     1      45.631   5.274   9.313  0.00  0.00    +0.000 NA
ATOM      9  H   UNL     1      46.634   5.204   9.158  0.00  0.00    +0.000 HD
BRANCH   8  10
ATOM     10  C   UNL     1      44.958   4.149   8.659  0.00  0.00    +0.000 C 
BRANCH  10  11
ATOM     11  C   UNL     1      45.951   3.196   8.047  0.00  0.00    +0.000 A 
ATOM     12  C   UNL     1      46.918   3.643   7.138  0.00  0.00    +0.000 A 
ATOM     13  C   UNL     1      47.787   2.715   6.586  0.00  0.00    +0.000 A 
ATOM     14  N   UNL     1      47.762   1.398   6.875  0.00  0.00    +0.000 NA
ATOM     15  C   UNL     1      46.831   0.993   7.767  0.00  0.00    +0.000 A 
ATOM     16  C   UNL     1      45.925   1.839   8.378  0.00  0.00    +0.000 A 
ENDBRANCH  10  11
ENDBRANCH   8  10
ENDBRANCH   7   8
BRANCH   7  17
ATOM     17  C   UNL     1      43.885   5.846  11.019  0.00  0.00    +0.000 C 
BRANCH  17  19
ATOM     18  C   UNL     1      42.926   4.911  12.956  0.00  0.00    +0.000 C 
ATOM     19  O   UNL     1      43.047   4.805  11.537  0.00  0.00    +0.000 OA
ENDBRANCH  17  19
ENDBRANCH   7  17
ENDBRANCH   1   7
BRANCH   4  20
ATOM     20  C   UNL     1      49.351   8.680  13.539  0.00  0.00    +0.000 C 
BRANCH  20  21
ATOM     21  N   UNL     1      50.267   7.836  14.260  0.00  0.00    +0.000 N 
ATOM     22  C   UNL     1      50.346   7.861  15.630  0.00  0.00    +0.000 C 
ATOM     23  O   UNL     1      49.603   8.551  16.319  0.00  0.00    +0.000 OA
ATOM     24  H   UNL     1      51.055   7.470  13.732  0.00  0.00    +0.000 HD
BRANCH  22  25
ATOM     25  C   UNL     1      51.326   6.950  16.234  0.00  0.00    +0.000 A 
ATOM     26  C   UNL     1      52.673   7.281  16.222  0.00  0.00    +0.000 A 
ATOM     27  S   UNL     1      53.665   6.136  17.004  0.00  0.00    +0.000 S 
ATOM     28  C   UNL     1      52.335   5.131  17.338  0.00  0.00    +0.000 A 
ATOM     29  N   UNL     1      52.498   3.942  17.979  0.00  0.00    +0.000 NA
ATOM     30  C   UNL     1      51.407   3.270  18.143  0.00  0.00    +0.000 A 
ATOM     31  N   UNL     1      50.168   3.682  17.733  0.00  0.00    +0.000 N 
ATOM     32  C   UNL     1      49.944   4.890  17.118  0.00  0.00    +0.000 A 
ATOM     33  O   UNL     1      48.815   5.260  16.825  0.00  0.00    +0.000 OA
ATOM     34  C   UNL     1      51.146   5.676  16.885  0.00  0.00    +0.000 A 
ATOM     35  H   UNL     1      49.351   3.117  17.911  0.00  0.00    +0.000 HD
ENDBRANCH  22  25
ENDBRANCH  20  21
ENDBRANCH   4  20
TORSDOF 9
ENDMDL
MODEL 7
REMARK VINA RESULT:    -6.930      3.705      5.931
REMARK INTER + INTRA:         -11.563
REMARK INTER:                  -9.975
REMARK INTRA:                  -1.588
REMARK UNBOUND:                -0.986
REMARK  Name = 
REMARK  10 active torsions:
REMARK  status: ('A' for Active; 'I' for Inactive)
REMARK    1  A    between atoms: C_1  and  O_2
REMARK    2  A    between atoms: O_2  and  C_3
REMARK    3  A    between atoms: C_3  and  C_4
REMARK    4  A    between atoms: C_4  and  N_5
REMARK    5  A    between atoms: C_4  and  C_13
REMARK    6  A    between atoms: N_5  and  C_6
REMARK    7  A    between atoms: C_6  and  C_7
REMARK    8  A    between atoms: C_16  and  C_17
REMARK    9  A    between atoms: C_17  and  N_18
REMARK   10  A    between atoms: C_19  and  C_21
REMARK                            x       y       z     vdW  Elec       q    Type
REMARK                         _______ _______ _______ _____ _____    ______ ____
ROOT
ATOM      1  C   UNL     1      47.726   6.165  14.779  0.00  0.00    +0.000 A 
ATOM      2  C   UNL     1      47.088   4.920  14.631  0.00  0.00    +0.000 A 
ATOM      3  C   UNL     1      47.266   3.900  15.570  0.00  0.00    +0.000 A 
ATOM      4  C   UNL     1      48.035   4.118  16.719  0.00  0.00    +0.000 A 
ATOM      5  C   UNL     1      48.659   5.359  16.884  0.00  0.00    +0.000 A 
ATOM      6  C   UNL     1      48.512   6.364  15.925  0.00  0.00    +0.000 A 
ENDROOT
BRANCH   1   7
ATOM      7  C   UNL     1      47.637   7.199  13.650  0.00  0.00    +0.000 C 
BRANCH   7   8
ATOM      8  N   UNL     1      46.242   7.370  13.186  0.00  0.00    +0.000 NA
ATOM      9  H   UNL     1      45.943   8.328  13.349  0.00  0.00    +0.000 HD
BRANCH   8  10
ATOM     10  C   UNL     1      46.029   7.026  11.778  0.00  0.00    +0.000 C 
BRANCH  10  11
ATOM     11  C   UNL     1      45.034   5.904  11.632  0.00  0.00    +0.000 A 
ATOM     12  C   UNL     1      45.048   5.064  10.512  0.00  0.00    +0.000 A 
ATOM     13  C   UNL     1      44.089   4.068  10.419  0.00  0.00    +0.000 A 
ATOM     14  N   UNL     1      43.138   3.851  11.351  0.00  0.00    +0.000 NA
ATOM     15  C   UNL     1      43.155   4.664  12.431  0.00  0.00    +0.000 A 
ATOM     16  C   UNL     1      44.071   5.680  12.620  0.00  0.00    +0.000 A 
ENDBRANCH  10  11
ENDBRANCH   8  10
ENDBRANCH   7   8
BRANCH   7  17
ATOM     17  C   UNL     1      48.577   6.817  12.458  0.00  0.00    +0.000 C 
BRANCH  17  19
ATOM     18  C   UNL     1      49.284   8.934  11.706  0.00  0.00    +0.000 C 
ATOM     19  O   UNL     1      49.692   7.705  12.306  0.00  0.00    +0.000 OA
ENDBRANCH  17  19
ENDBRANCH   7  17
ENDBRANCH   1   7
BRANCH   4  20
ATOM     20  C   UNL     1      48.209   3.034  17.750  0.00  0.00    +0.000 C 
BRANCH  20  21
ATOM     21  N   UNL     1      49.600   2.785  18.018  0.00  0.00    +0.000 N 
ATOM     22  C   UNL     1      50.387   2.067  17.151  0.00  0.00    +0.000 C 
ATOM     23  O   UNL     1      49.969   1.654  16.075  0.00  0.00    +0.000 OA
ATOM     24  H   UNL     1      49.896   2.871  18.987  0.00  0.00    +0.000 HD
BRANCH  22  25
ATOM     25  C   UNL     1      51.786   1.886  17.552  0.00  0.00    +0.000 A 
ATOM     26  C   UNL     1      52.291   0.608  17.734  0.00  0.00    +0.000 A 
ATOM     27  S   UNL     1      53.944   0.578  18.155  0.00  0.00    +0.000 S 
ATOM     28  C   UNL     1      54.028   2.276  18.161  0.00  0.00    +0.000 A 
ATOM     29  N   UNL     1      55.184   2.919  18.478  0.00  0.00    +0.000 NA
ATOM     30  C   UNL     1      55.097   4.208  18.469  0.00  0.00    +0.000 A 
ATOM     31  N   UNL     1      53.964   4.911  18.163  0.00  0.00    +0.000 N 
ATOM     32  C   UNL     1      52.783   4.311  17.799  0.00  0.00    +0.000 A 
ATOM     33  O   UNL     1      51.807   4.969  17.464  0.00  0.00    +0.000 OA
ATOM     34  C   UNL     1      52.819   2.858  17.818  0.00  0.00    +0.000 A 
ATOM     35  H   UNL     1      53.970   5.921  18.155  0.00  0.00    +0.000 HD
ENDBRANCH  22  25
ENDBRANCH  20  21
ENDBRANCH   4  20
TORSDOF 9
ENDMDL
MODEL 8
REMARK VINA RESULT:    -6.739      3.707      9.030
REMARK INTER + INTRA:         -11.271
REMARK INTER:                  -9.040
REMARK INTRA:                  -2.231
REMARK UNBOUND:                -0.986
REMARK  Name = 
REMARK  10 active torsions:
REMARK  status: ('A' for Active; 'I' for Inactive)
REMARK    1  A    between atoms: C_1  and  O_2
REMARK    2  A    between atoms: O_2  and  C_3
REMARK    3  A    between atoms: C_3  and  C_4
REMARK    4  A    between atoms: C_4  and  N_5
REMARK    5  A    between atoms: C_4  and  C_13
REMARK    6  A    between atoms: N_5  and  C_6
REMARK    7  A    between atoms: C_6  and  C_7
REMARK    8  A    between atoms: C_16  and  C_17
REMARK    9  A    between atoms: C_17  and  N_18
REMARK   10  A    between atoms: C_19  and  C_21
REMARK                            x       y       z     vdW  Elec       q    Type
REMARK                         _______ _______ _______ _____ _____    ______ ____
ROOT
ATOM      1  C   UNL     1      49.697   7.387  18.546  0.00  0.00    +0.000 A 
ATOM      2  C   UNL     1      50.418   6.953  17.418  0.00  0.00    +0.000 A 
ATOM      3  C   UNL     1      49.986   7.254  16.124  0.00  0.00    +0.000 A 
ATOM      4  C   UNL     1      48.856   8.055  15.920  0.00  0.00    +0.000 A 
ATOM      5  C   UNL     1      48.143   8.506  17.034  0.00  0.00    +0.000 A 
ATOM      6  C   UNL     1      48.554   8.171  18.327  0.00  0.00    +0.000 A 
ENDROOT
BRANCH   1   7
ATOM      7  C   UNL     1      50.111   6.902  19.941  0.00  0.00    +0.000 C 
BRANCH   7   8
ATOM      8  N   UNL     1      50.075   5.424  20.027  0.00  0.00    +0.000 NA
ATOM      9  H   UNL     1      50.530   5.121  20.885  0.00  0.00    +0.000 HD
BRANCH   8  10
ATOM     10  C   UNL     1      48.729   4.849  19.960  0.00  0.00    +0.000 C 
BRANCH  10  11
ATOM     11  C   UNL     1      48.476   4.204  18.622  0.00  0.00    +0.000 A 
ATOM     12  C   UNL     1      49.301   3.179  18.144  0.00  0.00    +0.000 A 
ATOM     13  C   UNL     1      49.036   2.644  16.893  0.00  0.00    +0.000 A 
ATOM     14  N   UNL     1      48.021   3.050  16.102  0.00  0.00    +0.000 NA
ATOM     15  C   UNL     1      47.229   4.029  16.592  0.00  0.00    +0.000 A 
ATOM     16  C   UNL     1      47.405   4.621  17.827  0.00  0.00    +0.000 A 
ENDBRANCH  10  11
ENDBRANCH   8  10
ENDBRANCH   7   8
BRANCH   7  17
ATOM     17  C   UNL     1      49.217   7.545  21.052  0.00  0.00    +0.000 C 
BRANCH  17  19
ATOM     18  C   UNL     1      51.059   8.461  22.199  0.00  0.00    +0.000 C 
ATOM     19  O   UNL     1      49.784   8.734  21.619  0.00  0.00    +0.000 OA
ENDBRANCH  17  19
ENDBRANCH   7  17
ENDBRANCH   1   7
BRANCH   4  20
ATOM     20  C   UNL     1      48.399   8.407  14.528  0.00  0.00    +0.000 C 
BRANCH  20  21
ATOM     21  N   UNL     1      47.380   7.502  14.066  0.00  0.00    +0.000 N 
ATOM     22  C   UNL     1      47.676   6.434  13.256  0.00  0.00    +0.000 C 
ATOM     23  O   UNL     1      48.824   6.154  12.932  0.00  0.00    +0.000 OA
ATOM     24  H   UNL     1      46.425   7.848  14.088  0.00  0.00    +0.000 HD
BRANCH  22  25
ATOM     25  C   UNL     1      46.540   5.595  12.857  0.00  0.00    +0.000 A 
ATOM     26  C   UNL     1      46.610   4.219  13.016  0.00  0.00    +0.000 A 
ATOM     27  S   UNL     1      45.189   3.403  12.544  0.00  0.00    +0.000 S 
ATOM     28  C   UNL     1      44.450   4.856  12.060  0.00  0.00    +0.000 A 
ATOM     29  N   UNL     1      43.200   4.862  11.524  0.00  0.00    +0.000 NA
ATOM     30  C   UNL     1      42.774   6.031  11.177  0.00  0.00    +0.000 A 
ATOM     31  N   UNL     1      43.479   7.194  11.327  0.00  0.00    +0.000 N 
ATOM     32  C   UNL     1      44.728   7.247  11.898  0.00  0.00    +0.000 A 
ATOM     33  O   UNL     1      45.304   8.312  12.081  0.00  0.00    +0.000 OA
ATOM     34  C   UNL     1      45.266   5.953  12.283  0.00  0.00    +0.000 A 
ATOM     35  H   UNL     1      43.079   8.080  11.053  0.00  0.00    +0.000 HD
ENDBRANCH  22  25
ENDBRANCH  20  21
ENDBRANCH   4  20
TORSDOF 9
ENDMDL
MODEL 9
REMARK VINA RESULT:    -6.526      3.698      8.694
REMARK INTER + INTRA:         -10.946
REMARK INTER:                  -8.633
REMARK INTRA:                  -2.313
REMARK UNBOUND:                -0.986
REMARK  Name = 
REMARK  10 active torsions:
REMARK  status: ('A' for Active; 'I' for Inactive)
REMARK    1  A    between atoms: C_1  and  O_2
REMARK    2  A    between atoms: O_2  and  C_3
REMARK    3  A    between atoms: C_3  and  C_4
REMARK    4  A    between atoms: C_4  and  N_5
REMARK    5  A    between atoms: C_4  and  C_13
REMARK    6  A    between atoms: N_5  and  C_6
REMARK    7  A    between atoms: C_6  and  C_7
REMARK    8  A    between atoms: C_16  and  C_17
REMARK    9  A    between atoms: C_17  and  N_18
REMARK   10  A    between atoms: C_19  and  C_21
REMARK                            x       y       z     vdW  Elec       q    Type
REMARK                         _______ _______ _______ _____ _____    ______ ____
ROOT
ATOM      1  C   UNL     1      49.640   7.807  18.343  0.00  0.00    +0.000 A 
ATOM      2  C   UNL     1      50.104   7.379  17.085  0.00  0.00    +0.000 A 
ATOM      3  C   UNL     1      49.547   7.875  15.902  0.00  0.00    +0.000 A 
ATOM      4  C   UNL     1      48.557   8.863  15.943  0.00  0.00    +0.000 A 
ATOM      5  C   UNL     1      48.102   9.308  17.188  0.00  0.00    +0.000 A 
ATOM      6  C   UNL     1      48.631   8.782  18.369  0.00  0.00    +0.000 A 
ENDROOT
BRANCH   1   7
ATOM      7  C   UNL     1      50.160   7.122  19.613  0.00  0.00    +0.000 C 
BRANCH   7   8
ATOM      8  N   UNL     1      50.550   5.719  19.345  0.00  0.00    +0.000 NA
ATOM      9  H   UNL     1      51.427   5.513  19.816  0.00  0.00    +0.000 HD
BRANCH   8  10
ATOM     10  C   UNL     1      49.543   4.729  19.735  0.00  0.00    +0.000 C 
BRANCH  10  11
ATOM     11  C   UNL     1      48.837   4.163  18.531  0.00  0.00    +0.000 A 
ATOM     12  C   UNL     1      47.620   4.696  18.087  0.00  0.00    +0.000 A 
ATOM     13  C   UNL     1      47.003   4.115  16.991  0.00  0.00    +0.000 A 
ATOM     14  N   UNL     1      47.507   3.061  16.316  0.00  0.00    +0.000 NA
ATOM     15  C   UNL     1      48.689   2.574  16.753  0.00  0.00    +0.000 A 
ATOM     16  C   UNL     1      49.386   3.086  17.830  0.00  0.00    +0.000 A 
ENDBRANCH  10  11
ENDBRANCH   8  10
ENDBRANCH   7   8
BRANCH   7  17
ATOM     17  C   UNL     1      49.106   7.196  20.767  0.00  0.00    +0.000 C 
BRANCH  17  19
ATOM     18  C   UNL     1      50.619   8.507  22.006  0.00  0.00    +0.000 C 
ATOM     19  O   UNL     1      49.691   7.424  22.056  0.00  0.00    +0.000 OA
ENDBRANCH  17  19
ENDBRANCH   7  17
ENDBRANCH   1   7
BRANCH   4  20
ATOM     20  C   UNL     1      47.972   9.424  14.672  0.00  0.00    +0.000 C 
BRANCH  20  21
ATOM     21  N   UNL     1      46.979   8.541  14.119  0.00  0.00    +0.000 N 
ATOM     22  C   UNL     1      47.113   8.000  12.864  0.00  0.00    +0.000 C 
ATOM     23  O   UNL     1      48.107   8.184  12.172  0.00  0.00    +0.000 OA
ATOM     24  H   UNL     1      46.053   8.585  14.535  0.00  0.00    +0.000 HD
BRANCH  22  25
ATOM     25  C   UNL     1      46.024   7.120  12.424  0.00  0.00    +0.000 A 
ATOM     26  C   UNL     1      44.930   7.656  11.762  0.00  0.00    +0.000 A 
ATOM     27  S   UNL     1      43.781   6.489  11.284  0.00  0.00    +0.000 S 
ATOM     28  C   UNL     1      44.681   5.233  11.994  0.00  0.00    +0.000 A 
ATOM     29  N   UNL     1      44.234   3.949  11.968  0.00  0.00    +0.000 NA
ATOM     30  C   UNL     1      45.004   3.103  12.567  0.00  0.00    +0.000 A 
ATOM     31  N   UNL     1      46.184   3.423  13.182  0.00  0.00    +0.000 N 
ATOM     32  C   UNL     1      46.699   4.697  13.202  0.00  0.00    +0.000 A 
ATOM     33  O   UNL     1      47.791   4.938  13.700  0.00  0.00    +0.000 OA
ATOM     34  C   UNL     1      45.857   5.694  12.562  0.00  0.00    +0.000 A 
ATOM     35  H   UNL     1      46.751   2.708  13.616  0.00  0.00    +0.000 HD
ENDBRANCH  22  25
ENDBRANCH  20  21
ENDBRANCH   4  20
TORSDOF 9
ENDMDL
