MODEL 1
REMARK VINA RESULT:    -9.009      0.000      0.000
REMARK INTER + INTRA:         -12.469
REMARK INTER:                 -11.642
REMARK INTRA:                  -0.827
REMARK UNBOUND:                -0.827
REMARK  Name = 
REMARK  5 active torsions:
REMARK  status: ('A' for Active; 'I' for Inactive)
REMARK    1  A    between atoms: C_2  and  C_4
REMARK    2  A    between atoms: C_8  and  C_9
REMARK    3  A    between atoms: C_9  and  N_10
REMARK    4  A    between atoms: N_10  and  C_11
REMARK    5  A    between atoms: C_15  and  C_16
REMARK                            x       y       z     vdW  Elec       q    Type
REMARK                         _______ _______ _______ _____ _____    ______ ____
ROOT
ATOM      1  N   UNL     1      43.368   6.119  10.666  0.00  0.00    +0.000 N 
ATOM      2  H   UNL     1      43.828   6.748  10.008  0.00  0.00    +0.000 HD
ENDROOT
BRANCH   1   3
ATOM      3  C   UNL     1      43.665   4.778  10.358  0.00  0.00    +0.000 A 
ATOM      4  C   UNL     1      43.182   3.735  11.149  0.00  0.00    +0.000 A 
ATOM      5  N   UNL     1      43.449   2.423  10.951  0.00  0.00    +0.000 NA
ATOM      6  C   UNL     1      44.284   2.125   9.928  0.00  0.00    +0.000 A 
ATOM      7  C   UNL     1      44.896   3.063   9.098  0.00  0.00    +0.000 A 
ATOM      8  C   UNL     1      44.568   4.407   9.356  0.00  0.00    +0.000 A 
BRANCH   7   9
ATOM      9  C   UNL     1      45.859   2.696   8.037  0.00  0.00    +0.000 A 
ATOM     10  C   UNL     1      46.490   1.436   8.021  0.00  0.00    +0.000 A 
ATOM     11  C   UNL     1      47.347   1.059   6.982  0.00  0.00    +0.000 A 
ATOM     12  C   UNL     1      47.610   1.944   5.943  0.00  0.00    +0.000 A 
ATOM     13  C   UNL     1      47.022   3.205   5.945  0.00  0.00    +0.000 A 
ATOM     14  C   UNL     1      46.156   3.575   6.979  0.00  0.00    +0.000 A 
ENDBRANCH   7   9
ENDBRANCH   1   3
BRANCH   1  15
ATOM     15  C   UNL     1      43.607   6.539  12.047  0.00  0.00    +0.000 C 
BRANCH  15  20
ATOM     16  C   UNL     1      46.767   5.285  13.705  0.00  0.00    +0.000 A 
ATOM     17  N   UNL     1      47.760   6.048  13.149  0.00  0.00    +0.000 NA
ATOM     18  C   UNL     1      47.372   6.954  12.224  0.00  0.00    +0.000 A 
ATOM     19  C   UNL     1      46.056   7.135  11.825  0.00  0.00    +0.000 A 
ATOM     20  C   UNL     1      45.056   6.342  12.404  0.00  0.00    +0.000 A 
ATOM     21  C   UNL     1      45.425   5.405  13.367  0.00  0.00    +0.000 A 
ATOM     22  F   UNL     1      44.479   4.655  13.949  0.00  0.00    +0.000 F 
BRANCH  16  24
ATOM     23  N   UNL     1      47.279   4.753  16.013  0.00  0.00    +0.000 N 
ATOM     24  C   UNL     1      47.205   4.285  14.728  0.00  0.00    +0.000 C 
ATOM     25  O   UNL     1      47.485   3.122  14.467  0.00  0.00    +0.000 OA
ATOM     26  H   UNL     1      47.578   4.127  16.748  0.00  0.00    +0.000 HD
ATOM     27  H   UNL     1      47.049   5.719  16.217  0.00  0.00    +0.000 HD
ENDBRANCH  16  24
ENDBRANCH  15  20
ENDBRANCH   1  15
TORSDOF 5
ENDMDL
MODEL 2
REMARK VINA RESULT:    -8.483      1.699      2.445
REMARK INTER + INTRA:         -11.789
REMARK INTER:                 -11.151
REMARK INTRA:                  -0.637
REMARK UNBOUND:                -0.827
REMARK  Name = 
REMARK  5 active torsions:
REMARK  status: ('A' for Active; 'I' for Inactive)
REMARK    1  A    between atoms: C_2  and  C_4
REMARK    2  A    between atoms: C_8  and  C_9
REMARK    3  A    between atoms: C_9  and  N_10
REMARK    4  A    between atoms: N_10  and  C_11
REMARK    5  A    between atoms: C_15  and  C_16
REMARK                            x       y       z     vdW  Elec       q    Type
REMARK                         _______ _______ _______ _____ _____    ______ ____
ROOT
ATOM      1  N   UNL     1      43.958   6.246  10.992  0.00  0.00    +0.000 N 
ATOM      2  H   UNL     1      44.620   6.821  10.472  0.00  0.00    +0.000 HD
ENDROOT
BRANCH   1   3
ATOM      3  C   UNL     1      44.020   4.908  10.559  0.00  0.00    +0.000 A 
ATOM      4  C   UNL     1      43.356   3.895  11.253  0.00  0.00    +0.000 A 
ATOM      5  N   UNL     1      43.392   2.581  10.933  0.00  0.00    +0.000 NA
ATOM      6  C   UNL     1      44.172   2.238   9.880  0.00  0.00    +0.000 A 
ATOM      7  C   UNL     1      44.945   3.128   9.136  0.00  0.00    +0.000 A 
ATOM      8  C   UNL     1      44.854   4.479   9.521  0.00  0.00    +0.000 A 
BRANCH   7   9
ATOM      9  C   UNL     1      45.840   2.699   8.040  0.00  0.00    +0.000 A 
ATOM     10  C   UNL     1      46.132   3.549   6.954  0.00  0.00    +0.000 A 
ATOM     11  C   UNL     1      47.033   3.175   5.953  0.00  0.00    +0.000 A 
ATOM     12  C   UNL     1      47.649   1.929   6.002  0.00  0.00    +0.000 A 
ATOM     13  C   UNL     1      47.360   1.058   7.048  0.00  0.00    +0.000 A 
ATOM     14  C   UNL     1      46.468   1.440   8.055  0.00  0.00    +0.000 A 
ENDBRANCH   7   9
ENDBRANCH   1   3
BRANCH   1  15
ATOM     15  C   UNL     1      44.087   6.471  12.433  0.00  0.00    +0.000 C 
BRANCH  15  20
ATOM     16  C   UNL     1      47.843   6.505  12.871  0.00  0.00    +0.000 A 
ATOM     17  N   UNL     1      48.096   5.412  13.658  0.00  0.00    +0.000 NA
ATOM     18  C   UNL     1      47.021   4.690  14.044  0.00  0.00    +0.000 A 
ATOM     19  C   UNL     1      45.716   5.001  13.692  0.00  0.00    +0.000 A 
ATOM     20  C   UNL     1      45.478   6.124  12.889  0.00  0.00    +0.000 A 
ATOM     21  C   UNL     1      46.569   6.883  12.468  0.00  0.00    +0.000 A 
ATOM     22  F   UNL     1      46.362   7.947  11.680  0.00  0.00    +0.000 F 
BRANCH  16  24
ATOM     23  N   UNL     1      50.050   7.372  13.368  0.00  0.00    +0.000 N 
ATOM     24  C   UNL     1      49.038   7.299  12.448  0.00  0.00    +0.000 C 
ATOM     25  O   UNL     1      49.135   7.858  11.363  0.00  0.00    +0.000 OA
ATOM     26  H   UNL     1      50.881   7.902  13.144  0.00  0.00    +0.000 HD
ATOM     27  H   UNL     1      49.957   6.910  14.265  0.00  0.00    +0.000 HD
ENDBRANCH  16  24
ENDBRANCH  15  20
ENDBRANCH   1  15
TORSDOF 5
ENDMDL
MODEL 3
REMARK VINA RESULT:    -8.286      2.151      2.704
REMARK INTER + INTRA:         -11.535
REMARK INTER:                 -10.685
REMARK INTRA:                  -0.850
REMARK UNBOUND:                -0.827
REMARK  Name = 
REMARK  5 active torsions:
REMARK  status: ('A' for Active; 'I' for Inactive)
REMARK    1  A    between atoms: C_2  and  C_4
REMARK    2  A    between atoms: C_8  and  C_9
REMARK    3  A    between atoms: C_9  and  N_10
REMARK    4  A    between atoms: N_10  and  C_11
REMARK    5  A    between atoms: C_15  and  C_16
REMARK                            x       y       z     vdW  Elec       q    Type
REMARK                         _______ _______ _______ _____ _____    ______ ____
ROOT
ATOM      1  N   UNL     1      44.077   6.442  11.215  0.00  0.00    +0.000 N 
ATOM      2  H   UNL     1      44.458   7.039  10.483  0.00  0.00    +0.000 HD
ENDROOT
BRANCH   1   3
ATOM      3  C   UNL     1      44.062   5.097  10.798  0.00  0.00    +0.000 A 
ATOM      4  C   UNL     1      43.368   4.127  11.522  0.00  0.00    +0.000 A 
ATOM      5  N   UNL     1      43.331   2.809  11.217  0.00  0.00    +0.000 NA
ATOM      6  C   UNL     1      44.067   2.416  10.150  0.00  0.00    +0.000 A 
ATOM      7  C   UNL     1      44.863   3.258   9.376  0.00  0.00    +0.000 A 
ATOM      8  C   UNL     1      44.847   4.617   9.745  0.00  0.00    +0.000 A 
BRANCH   7   9
ATOM      9  C   UNL     1      45.707   2.773   8.263  0.00  0.00    +0.000 A 
ATOM     10  C   UNL     1      46.065   3.614   7.191  0.00  0.00    +0.000 A 
ATOM     11  C   UNL     1      46.921   3.181   6.174  0.00  0.00    +0.000 A 
ATOM     12  C   UNL     1      47.424   1.885   6.194  0.00  0.00    +0.000 A 
ATOM     13  C   UNL     1      47.068   1.023   7.226  0.00  0.00    +0.000 A 
ATOM     14  C   UNL     1      46.221   1.463   8.249  0.00  0.00    +0.000 A 
ENDBRANCH   7   9
ENDBRANCH   1   3
BRANCH   1  15
ATOM     15  C   UNL     1      44.715   6.717  12.503  0.00  0.00    +0.000 C 
BRANCH  15  20
ATOM     16  C   UNL     1      48.198   8.150  12.165  0.00  0.00    +0.000 A 
ATOM     17  N   UNL     1      47.995   9.503  12.083  0.00  0.00    +0.000 NA
ATOM     18  C   UNL     1      46.710   9.919  12.126  0.00  0.00    +0.000 A 
ATOM     19  C   UNL     1      45.625   9.063  12.241  0.00  0.00    +0.000 A 
ATOM     20  C   UNL     1      45.854   7.683  12.320  0.00  0.00    +0.000 A 
ATOM     21  C   UNL     1      47.170   7.225  12.287  0.00  0.00    +0.000 A 
ATOM     22  F   UNL     1      47.409   5.909  12.386  0.00  0.00    +0.000 F 
BRANCH  16  24
ATOM     23  N   UNL     1      50.161   7.322  13.319  0.00  0.00    +0.000 N 
ATOM     24  C   UNL     1      49.623   7.697  12.117  0.00  0.00    +0.000 C 
ATOM     25  O   UNL     1      50.290   7.655  11.091  0.00  0.00    +0.000 OA
ATOM     26  H   UNL     1      51.123   7.016  13.353  0.00  0.00    +0.000 HD
ATOM     27  H   UNL     1      49.602   7.367  14.163  0.00  0.00    +0.000 HD
ENDBRANCH  16  24
ENDBRANCH  15  20
ENDBRANCH   1  15
TORSDOF 5
ENDMDL
MODEL 4
REMARK VINA RESULT:    -8.103      2.773      3.482
REMARK INTER + INTRA:         -11.298
REMARK INTER:                 -10.495
REMARK INTRA:                  -0.803
REMARK UNBOUND:                -0.827
REMARK  Name = 
REMARK  5 active torsions:
REMARK  status: ('A' for Active; 'I' for Inactive)
REMARK    1  A    between atoms: C_2  and  C_4
REMARK    2  A    between atoms: C_8  and  C_9
REMARK    3  A    between atoms: C_9  and  N_10
REMARK    4  A    between atoms: N_10  and  C_11
REMARK    5  A    between atoms: C_15  and  C_16
REMARK                            x       y       z     vdW  Elec       q    Type
REMARK                         _______ _______ _______ _____ _____    ______ ____
ROOT
ATOM      1  N   UNL     1      44.136   6.499  11.140  0.00  0.00    +0.000 N 
ATOM      2  H   UNL     1      44.558   7.084  10.419  0.00  0.00    +0.000 HD
ENDROOT
BRANCH   1   3
ATOM      3  C   UNL     1      44.105   5.153  10.728  0.00  0.00    +0.000 A 
ATOM      4  C   UNL     1      43.385   4.197  11.446  0.00  0.00    +0.000 A 
ATOM      5  N   UNL     1      43.331   2.879  11.146  0.00  0.00    +0.000 NA
ATOM      6  C   UNL     1      44.074   2.469  10.091  0.00  0.00    +0.000 A 
ATOM      7  C   UNL     1      44.895   3.294   9.324  0.00  0.00    +0.000 A 
ATOM      8  C   UNL     1      44.897   4.655   9.687  0.00  0.00    +0.000 A 
BRANCH   7   9
ATOM      9  C   UNL     1      45.746   2.790   8.225  0.00  0.00    +0.000 A 
ATOM     10  C   UNL     1      46.101   3.610   7.135  0.00  0.00    +0.000 A 
ATOM     11  C   UNL     1      46.964   3.161   6.131  0.00  0.00    +0.000 A 
ATOM     12  C   UNL     1      47.476   1.870   6.181  0.00  0.00    +0.000 A 
ATOM     13  C   UNL     1      47.123   1.028   7.231  0.00  0.00    +0.000 A 
ATOM     14  C   UNL     1      46.269   1.485   8.241  0.00  0.00    +0.000 A 
ENDBRANCH   7   9
ENDBRANCH   1   3
BRANCH   1  15
ATOM     15  C   UNL     1      44.734   6.765  12.448  0.00  0.00    +0.000 C 
BRANCH  15  20
ATOM     16  C   UNL     1      47.290   9.544  12.214  0.00  0.00    +0.000 A 
ATOM     17  N   UNL     1      48.449   8.901  11.868  0.00  0.00    +0.000 NA
ATOM     18  C   UNL     1      48.373   7.559  11.732  0.00  0.00    +0.000 A 
ATOM     19  C   UNL     1      47.209   6.828  11.926  0.00  0.00    +0.000 A 
ATOM     20  C   UNL     1      46.034   7.505  12.282  0.00  0.00    +0.000 A 
ATOM     21  C   UNL     1      46.082   8.891  12.421  0.00  0.00    +0.000 A 
ATOM     22  F   UNL     1      44.962   9.556  12.738  0.00  0.00    +0.000 F 
BRANCH  16  24
ATOM     23  N   UNL     1      48.133  11.469  13.420  0.00  0.00    +0.000 N 
ATOM     24  C   UNL     1      47.383  11.029  12.361  0.00  0.00    +0.000 C 
ATOM     25  O   UNL     1      46.838  11.824  11.606  0.00  0.00    +0.000 OA
ATOM     26  H   UNL     1      48.225  12.462  13.578  0.00  0.00    +0.000 HD
ATOM     27  H   UNL     1      48.575  10.802  14.042  0.00  0.00    +0.000 HD
ENDBRANCH  16  24
ENDBRANCH  15  20
ENDBRANCH   1  15
TORSDOF 5
ENDMDL
MODEL 5
REMARK VINA RESULT:    -7.960      1.791      2.953
REMARK INTER + INTRA:         -11.114
REMARK INTER:                 -10.371
REMARK INTRA:                  -0.743
REMARK UNBOUND:                -0.827
REMARK  Name = 
REMARK  5 active torsions:
REMARK  status: ('A' for Active; 'I' for Inactive)
REMARK    1  A    between atoms: C_2  and  C_4
REMARK    2  A    between atoms: C_8  and  C_9
REMARK    3  A    between atoms: C_9  and  N_10
REMARK    4  A    between atoms: N_10  and  C_11
REMARK    5  A    between atoms: C_15  and  C_16
REMARK                            x       y       z     vdW  Elec       q    Type
REMARK                         _______ _______ _______ _____ _____    ______ ____
ROOT
ATOM      1  N   UNL     1      45.651   6.716  13.271  0.00  0.00    +0.000 N 
ATOM      2  H   UNL     1      45.344   7.688  13.278  0.00  0.00    +0.000 HD
ENDROOT
BRANCH   1   3
ATOM      3  C   UNL     1      44.876   5.960  12.370  0.00  0.00    +0.000 A 
ATOM      4  C   UNL     1      43.514   5.754  12.590  0.00  0.00    +0.000 A 
ATOM      5  N   UNL     1      42.704   5.012  11.800  0.00  0.00    +0.000 NA
ATOM      6  C   UNL     1      43.288   4.395  10.745  0.00  0.00    +0.000 A 
ATOM      7  C   UNL     1      44.647   4.453  10.441  0.00  0.00    +0.000 A 
ATOM      8  C   UNL     1      45.429   5.249  11.300  0.00  0.00    +0.000 A 
BRANCH   7   9
ATOM      9  C   UNL     1      45.256   3.705   9.320  0.00  0.00    +0.000 A 
ATOM     10  C   UNL     1      45.861   4.369   8.235  0.00  0.00    +0.000 A 
ATOM     11  C   UNL     1      46.500   3.666   7.209  0.00  0.00    +0.000 A 
ATOM     12  C   UNL     1      46.531   2.277   7.234  0.00  0.00    +0.000 A 
ATOM     13  C   UNL     1      45.919   1.592   8.279  0.00  0.00    +0.000 A 
ATOM     14  C   UNL     1      45.291   2.298   9.310  0.00  0.00    +0.000 A 
ENDBRANCH   7   9
ENDBRANCH   1   3
BRANCH   1  15
ATOM     15  C   UNL     1      47.103   6.624  13.118  0.00  0.00    +0.000 C 
BRANCH  15  20
ATOM     16  C   UNL     1      47.982   4.620  16.202  0.00  0.00    +0.000 A 
ATOM     17  N   UNL     1      48.837   5.436  16.897  0.00  0.00    +0.000 NA
ATOM     18  C   UNL     1      49.121   6.628  16.328  0.00  0.00    +0.000 A 
ATOM     19  C   UNL     1      48.605   7.045  15.110  0.00  0.00    +0.000 A 
ATOM     20  C   UNL     1      47.734   6.195  14.414  0.00  0.00    +0.000 A 
ATOM     21  C   UNL     1      47.416   4.962  14.981  0.00  0.00    +0.000 A 
ATOM     22  F   UNL     1      46.567   4.146  14.341  0.00  0.00    +0.000 F 
BRANCH  16  24
ATOM     23  N   UNL     1      48.685   2.381  16.805  0.00  0.00    +0.000 N 
ATOM     24  C   UNL     1      47.672   3.302  16.839  0.00  0.00    +0.000 C 
ATOM     25  O   UNL     1      46.598   3.034  17.361  0.00  0.00    +0.000 OA
ATOM     26  H   UNL     1      48.533   1.468  17.210  0.00  0.00    +0.000 HD
ATOM     27  H   UNL     1      49.568   2.611  16.365  0.00  0.00    +0.000 HD
ENDBRANCH  16  24
ENDBRANCH  15  20
ENDBRANCH   1  15
TORSDOF 5
ENDMDL
MODEL 6
REMARK VINA RESULT:    -7.732      3.141      6.380
REMARK INTER + INTRA:         -10.819
REMARK INTER:                 -10.495
REMARK INTRA:                  -0.324
REMARK UNBOUND:                -0.827
REMARK  Name = 
REMARK  5 active torsions:
REMARK  status: ('A' for Active; 'I' for Inactive)
REMARK    1  A    between atoms: C_2  and  C_4
REMARK    2  A    between atoms: C_8  and  C_9
REMARK    3  A    between atoms: C_9  and  N_10
REMARK    4  A    between atoms: N_10  and  C_11
REMARK    5  A    between atoms: C_15  and  C_16
REMARK                            x       y       z     vdW  Elec       q    Type
REMARK                         _______ _______ _______ _____ _____    ______ ____
ROOT
ATOM      1  N   UNL     1      44.698   2.613  11.659  0.00  0.00    +0.000 N 
ATOM      2  H   UNL     1      45.605   2.147  11.646  0.00  0.00    +0.000 HD
ENDROOT
BRANCH   1   3
ATOM      3  C   UNL     1      44.814   3.904  12.208  0.00  0.00    +0.000 A 
ATOM      4  C   UNL     1      43.683   4.634  12.575  0.00  0.00    +0.000 A 
ATOM      5  N   UNL     1      43.699   5.892  13.072  0.00  0.00    +0.000 NA
ATOM      6  C   UNL     1      44.912   6.487  13.173  0.00  0.00    +0.000 A 
ATOM      7  C   UNL     1      46.118   5.909  12.782  0.00  0.00    +0.000 A 
ATOM      8  C   UNL     1      46.028   4.596  12.281  0.00  0.00    +0.000 A 
BRANCH   7   9
ATOM      9  C   UNL     1      47.412   6.622  12.843  0.00  0.00    +0.000 A 
ATOM     10  C   UNL     1      48.186   6.643  14.020  0.00  0.00    +0.000 A 
ATOM     11  C   UNL     1      49.442   7.255  14.061  0.00  0.00    +0.000 A 
ATOM     12  C   UNL     1      49.947   7.881  12.926  0.00  0.00    +0.000 A 
ATOM     13  C   UNL     1      49.195   7.898  11.756  0.00  0.00    +0.000 A 
ATOM     14  C   UNL     1      47.944   7.274  11.715  0.00  0.00    +0.000 A 
ENDBRANCH   7   9
ENDBRANCH   1   3
BRANCH   1  15
ATOM     15  C   UNL     1      44.039   2.516  10.356  0.00  0.00    +0.000 C 
BRANCH  15  20
ATOM     16  C   UNL     1      46.600   2.654   7.576  0.00  0.00    +0.000 A 
ATOM     17  N   UNL     1      46.741   3.993   7.320  0.00  0.00    +0.000 NA
ATOM     18  C   UNL     1      45.978   4.828   8.059  0.00  0.00    +0.000 A 
ATOM     19  C   UNL     1      45.084   4.401   9.030  0.00  0.00    +0.000 A 
ATOM     20  C   UNL     1      44.952   3.027   9.275  0.00  0.00    +0.000 A 
ATOM     21  C   UNL     1      45.734   2.143   8.533  0.00  0.00    +0.000 A 
ATOM     22  F   UNL     1      45.638   0.827   8.771  0.00  0.00    +0.000 F 
BRANCH  16  24
ATOM     23  N   UNL     1      48.568   2.305   6.207  0.00  0.00    +0.000 N 
ATOM     24  C   UNL     1      47.449   1.737   6.754  0.00  0.00    +0.000 C 
ATOM     25  O   UNL     1      47.188   0.556   6.564  0.00  0.00    +0.000 OA
ATOM     26  H   UNL     1      49.177   1.739   5.633  0.00  0.00    +0.000 HD
ATOM     27  H   UNL     1      48.772   3.285   6.366  0.00  0.00    +0.000 HD
ENDBRANCH  16  24
ENDBRANCH  15  20
ENDBRANCH   1  15
TORSDOF 5
ENDMDL
MODEL 7
REMARK VINA RESULT:    -7.384      1.860      2.288
REMARK INTER + INTRA:         -10.368
REMARK INTER:                  -9.706
REMARK INTRA:                  -0.662
REMARK UNBOUND:                -0.827
REMARK  Name = 
REMARK  5 active torsions:
REMARK  status: ('A' for Active; 'I' for Inactive)
REMARK    1  A    between atoms: C_2  and  C_4
REMARK    2  A    between atoms: C_8  and  C_9
REMARK    3  A    between atoms: C_9  and  N_10
REMARK    4  A    between atoms: N_10  and  C_11
REMARK    5  A    between atoms: C_15  and  C_16
REMARK                            x       y       z     vdW  Elec       q    Type
REMARK                         _______ _______ _______ _____ _____    ______ ____
ROOT
ATOM      1  N   UNL     1      45.171   6.200  12.225  0.00  0.00    +0.000 N 
ATOM      2  H   UNL     1      44.440   6.910  12.242  0.00  0.00    +0.000 HD
ENDROOT
BRANCH   1   3
ATOM      3  C   UNL     1      44.733   5.056  11.532  0.00  0.00    +0.000 A 
ATOM      4  C   UNL     1      43.702   4.261  12.035  0.00  0.00    +0.000 A 
ATOM      5  N   UNL     1      43.244   3.127  11.457  0.00  0.00    +0.000 NA
ATOM      6  C   UNL     1      43.877   2.726  10.328  0.00  0.00    +0.000 A 
ATOM      7  C   UNL     1      44.963   3.379   9.748  0.00  0.00    +0.000 A 
ATOM      8  C   UNL     1      45.382   4.556  10.398  0.00  0.00    +0.000 A 
BRANCH   7   9
ATOM      9  C   UNL     1      45.670   2.866   8.555  0.00  0.00    +0.000 A 
ATOM     10  C   UNL     1      46.005   3.712   7.479  0.00  0.00    +0.000 A 
ATOM     11  C   UNL     1      46.736   3.247   6.381  0.00  0.00    +0.000 A 
ATOM     12  C   UNL     1      47.132   1.916   6.324  0.00  0.00    +0.000 A 
ATOM     13  C   UNL     1      46.794   1.051   7.360  0.00  0.00    +0.000 A 
ATOM     14  C   UNL     1      46.073   1.521   8.462  0.00  0.00    +0.000 A 
ENDBRANCH   7   9
ENDBRANCH   1   3
BRANCH   1  15
ATOM     15  C   UNL     1      46.449   6.772  11.797  0.00  0.00    +0.000 C 
BRANCH  15  20
ATOM     16  C   UNL     1      48.312   6.908  15.085  0.00  0.00    +0.000 A 
ATOM     17  N   UNL     1      48.557   8.243  15.274  0.00  0.00    +0.000 NA
ATOM     18  C   UNL     1      48.116   9.076  14.305  0.00  0.00    +0.000 A 
ATOM     19  C   UNL     1      47.452   8.649  13.164  0.00  0.00    +0.000 A 
ATOM     20  C   UNL     1      47.214   7.279  12.989  0.00  0.00    +0.000 A 
ATOM     21  C   UNL     1      47.650   6.397  13.976  0.00  0.00    +0.000 A 
ATOM     22  F   UNL     1      47.410   5.086  13.836  0.00  0.00    +0.000 F 
BRANCH  16  24
ATOM     23  N   UNL     1      47.834   5.480  16.984  0.00  0.00    +0.000 N 
ATOM     24  C   UNL     1      48.803   5.993  16.162  0.00  0.00    +0.000 C 
ATOM     25  O   UNL     1      49.981   5.704  16.326  0.00  0.00    +0.000 OA
ATOM     26  H   UNL     1      48.105   4.863  17.737  0.00  0.00    +0.000 HD
ATOM     27  H   UNL     1      46.862   5.730  16.843  0.00  0.00    +0.000 HD
ENDBRANCH  16  24
ENDBRANCH  15  20
ENDBRANCH   1  15
TORSDOF 5
ENDMDL
MODEL 8
REMARK VINA RESULT:    -7.245      2.207      3.320
REMARK INTER + INTRA:         -10.189
REMARK INTER:                  -9.281
REMARK INTRA:                  -0.908
REMARK UNBOUND:                -0.827
REMARK  Name = 
REMARK  5 active torsions:
REMARK  status: ('A' for Active; 'I' for Inactive)
REMARK    1  A    between atoms: C_2  and  C_4
REMARK    2  A    between atoms: C_8  and  C_9
REMARK    3  A    between atoms: C_9  and  N_10
REMARK    4  A    between atoms: N_10  and  C_11
REMARK    5  A    between atoms: C_15  and  C_16
REMARK                            x       y       z     vdW  Elec       q    Type
REMARK                         _______ _______ _______ _____ _____    ______ ____
ROOT
ATOM      1  N   UNL     1      45.135   4.089  13.632  0.00  0.00    +0.000 N 
ATOM      2  H   UNL     1      44.934   4.920  14.188  0.00  0.00    +0.000 HD
ENDROOT
BRANCH   1   3
ATOM      3  C   UNL     1      44.695   4.264  12.306  0.00  0.00    +0.000 A 
ATOM      4  C   UNL     1      43.492   4.914  12.027  0.00  0.00    +0.000 A 
ATOM      5  N   UNL     1      42.975   5.092  10.789  0.00  0.00    +0.000 NA
ATOM      6  C   UNL     1      43.672   4.553   9.760  0.00  0.00    +0.000 A 
ATOM      7  C   UNL     1      44.850   3.820   9.892  0.00  0.00    +0.000 A 
ATOM      8  C   UNL     1      45.335   3.681  11.207  0.00  0.00    +0.000 A 
BRANCH   7   9
ATOM      9  C   UNL     1      45.540   3.188   8.747  0.00  0.00    +0.000 A 
ATOM     10  C   UNL     1      46.017   3.951   7.664  0.00  0.00    +0.000 A 
ATOM     11  C   UNL     1      46.732   3.366   6.614  0.00  0.00    +0.000 A 
ATOM     12  C   UNL     1      46.970   1.996   6.613  0.00  0.00    +0.000 A 
ATOM     13  C   UNL     1      46.489   1.213   7.657  0.00  0.00    +0.000 A 
ATOM     14  C   UNL     1      45.784   1.802   8.712  0.00  0.00    +0.000 A 
ENDBRANCH   7   9
ENDBRANCH   1   3
BRANCH   1  15
ATOM     15  C   UNL     1      46.524   3.664  13.807  0.00  0.00    +0.000 C 
BRANCH  15  20
ATOM     16  C   UNL     1      48.589   6.741  14.565  0.00  0.00    +0.000 A 
ATOM     17  N   UNL     1      48.844   6.647  15.908  0.00  0.00    +0.000 NA
ATOM     18  C   UNL     1      48.318   5.578  16.545  0.00  0.00    +0.000 A 
ATOM     19  C   UNL     1      47.552   4.606  15.918  0.00  0.00    +0.000 A 
ATOM     20  C   UNL     1      47.300   4.721  14.544  0.00  0.00    +0.000 A 
ATOM     21  C   UNL     1      47.838   5.809  13.859  0.00  0.00    +0.000 A 
ATOM     22  F   UNL     1      47.627   5.923  12.540  0.00  0.00    +0.000 F 
BRANCH  16  24
ATOM     23  N   UNL     1      50.455   7.765  13.408  0.00  0.00    +0.000 N 
ATOM     24  C   UNL     1      49.175   7.927  13.867  0.00  0.00    +0.000 C 
ATOM     25  O   UNL     1      48.579   8.984  13.704  0.00  0.00    +0.000 OA
ATOM     26  H   UNL     1      50.909   8.535  12.936  0.00  0.00    +0.000 HD
ATOM     27  H   UNL     1      50.941   6.888  13.553  0.00  0.00    +0.000 HD
ENDBRANCH  16  24
ENDBRANCH  15  20
ENDBRANCH   1  15
TORSDOF 5
ENDMDL
MODEL 9
REMARK VINA RESULT:    -6.990      3.846      8.166
REMARK INTER + INTRA:          -9.859
REMARK INTER:                  -9.285
REMARK INTRA:                  -0.574
REMARK UNBOUND:                -0.827
REMARK  Name = 
REMARK  5 active torsions:
REMARK  status: ('A' for Active; 'I' for Inactive)
REMARK    1  A    between atoms: C_2  and  C_4
REMARK    2  A    between atoms: C_8  and  C_9
REMARK    3  A    between atoms: C_9  and  N_10
REMARK    4  A    between atoms: N_10  and  C_11
REMARK    5  A    between atoms: C_15  and  C_16
REMARK                            x       y       z     vdW  Elec       q    Type
REMARK                         _______ _______ _______ _____ _____    ______ ____
ROOT
ATOM      1  N   UNL     1      46.593   4.241  15.600  0.00  0.00    +0.000 N 
ATOM      2  H   UNL     1      46.204   3.314  15.431  0.00  0.00    +0.000 HD
ENDROOT
BRANCH   1   3
ATOM      3  C   UNL     1      47.459   4.220  16.710  0.00  0.00    +0.000 A 
ATOM      4  C   UNL     1      47.182   4.972  17.852  0.00  0.00    +0.000 A 
ATOM      5  N   UNL     1      47.975   5.041  18.947  0.00  0.00    +0.000 NA
ATOM      6  C   UNL     1      49.141   4.355  18.892  0.00  0.00    +0.000 A 
ATOM      7  C   UNL     1      49.582   3.618  17.794  0.00  0.00    +0.000 A 
ATOM      8  C   UNL     1      48.704   3.583  16.694  0.00  0.00    +0.000 A 
BRANCH   7   9
ATOM      9  C   UNL     1      50.897   2.943  17.751  0.00  0.00    +0.000 A 
ATOM     10  C   UNL     1      52.079   3.610  18.129  0.00  0.00    +0.000 A 
ATOM     11  C   UNL     1      53.314   2.956  18.157  0.00  0.00    +0.000 A 
ATOM     12  C   UNL     1      53.400   1.619  17.786  0.00  0.00    +0.000 A 
ATOM     13  C   UNL     1      52.254   0.940  17.383  0.00  0.00    +0.000 A 
ATOM     14  C   UNL     1      51.018   1.595  17.367  0.00  0.00    +0.000 A 
ENDBRANCH   7   9
ENDBRANCH   1   3
BRANCH   1  15
ATOM     15  C   UNL     1      47.131   4.818  14.367  0.00  0.00    +0.000 C 
BRANCH  15  20
ATOM     16  C   UNL     1      44.499   4.126  11.740  0.00  0.00    +0.000 A 
ATOM     17  N   UNL     1      44.035   5.369  11.398  0.00  0.00    +0.000 NA
ATOM     18  C   UNL     1      44.587   6.415  12.052  0.00  0.00    +0.000 A 
ATOM     19  C   UNL     1      45.568   6.287  13.024  0.00  0.00    +0.000 A 
ATOM     20  C   UNL     1      46.028   5.006  13.360  0.00  0.00    +0.000 A 
ATOM     21  C   UNL     1      45.482   3.909  12.696  0.00  0.00    +0.000 A 
ATOM     22  F   UNL     1      45.927   2.679  12.988  0.00  0.00    +0.000 F 
BRANCH  16  24
ATOM     23  N   UNL     1      44.404   2.716   9.771  0.00  0.00    +0.000 N 
ATOM     24  C   UNL     1      43.883   2.974  11.011  0.00  0.00    +0.000 C 
ATOM     25  O   UNL     1      42.974   2.290  11.464  0.00  0.00    +0.000 OA
ATOM     26  H   UNL     1      44.023   1.956   9.226  0.00  0.00    +0.000 HD
ATOM     27  H   UNL     1      45.153   3.292   9.404  0.00  0.00    +0.000 HD
ENDBRANCH  16  24
ENDBRANCH  15  20
ENDBRANCH   1  15
TORSDOF 5
ENDMDL
