MODEL 1
REMARK VINA RESULT:    -7.143      0.000      0.000
REMARK INTER + INTRA:         -10.846
REMARK INTER:                 -10.066
REMARK INTRA:                  -0.780
REMARK UNBOUND:                -0.780
REMARK  Name = 
REMARK  8 active torsions:
REMARK  status: ('A' for Active; 'I' for Inactive)
REMARK    1  A    between atoms: N_1  and  C_2
REMARK    2  A    between atoms: C_2  and  C_3
REMARK    3  A    between atoms: C_7  and  C_8
REMARK    4  A    between atoms: C_8  and  C_9
REMARK    5  A    between atoms: C_9  and  O_10
REMARK    6  A    between atoms: O_10  and  C_11
REMARK    7  A    between atoms: C_15  and  C_16
REMARK    8  A    between atoms: C_16  and  N_17
REMARK                            x       y       z     vdW  Elec       q    Type
REMARK                         _______ _______ _______ _____ _____    ______ ____
ROOT
ATOM      1  C   UNL     1      43.172   3.832  11.376  0.00  0.00    +0.000 C 
ENDROOT
BRANCH   1   2
ATOM      2  C   UNL     1      43.792   3.916  12.773  0.00  0.00    +0.000 C 
BRANCH   2   7
ATOM      3  C   UNL     1      45.594   7.277  12.441  0.00  0.00    +0.000 A 
ATOM      4  C   UNL     1      46.800   7.006  13.099  0.00  0.00    +0.000 A 
ATOM      5  C   UNL     1      47.060   5.731  13.603  0.00  0.00    +0.000 A 
ATOM      6  C   UNL     1      46.104   4.714  13.477  0.00  0.00    +0.000 A 
ATOM      7  C   UNL     1      44.885   4.964  12.837  0.00  0.00    +0.000 A 
ATOM      8  C   UNL     1      44.653   6.241  12.304  0.00  0.00    +0.000 A 
BRANCH   3   9
ATOM      9  C   UNL     1      45.307   8.645  11.865  0.00  0.00    +0.000 C 
BRANCH   9  10
ATOM     10  N   UNL     1      44.696   9.542  12.843  0.00  0.00    +0.000 NA
ATOM     11  H   UNL     1      45.431   9.963  13.409  0.00  0.00    +0.000 HD
ATOM     12  H   UNL     1      44.122   8.993  13.482  0.00  0.00    +0.000 HD
ENDBRANCH   9  10
ENDBRANCH   3   9
ENDBRANCH   2   7
ENDBRANCH   1   2
BRANCH   1  13
ATOM     13  O   UNL     1      43.677   2.703  10.647  0.00  0.00    +0.000 OA
BRANCH  13  14
ATOM     14  C   UNL     1      44.557   3.024   9.630  0.00  0.00    +0.000 A 
ATOM     15  C   UNL     1      44.832   4.326   9.201  0.00  0.00    +0.000 A 
ATOM     16  C   UNL     1      45.746   4.548   8.178  0.00  0.00    +0.000 A 
ATOM     17  C   UNL     1      46.412   3.471   7.587  0.00  0.00    +0.000 A 
ATOM     18  C   UNL     1      46.152   2.161   7.996  0.00  0.00    +0.000 A 
ATOM     19  C   UNL     1      45.204   1.949   9.017  0.00  0.00    +0.000 A 
BRANCH  18  20
ATOM     20  C   UNL     1      46.926   0.979   7.460  0.00  0.00    +0.000 C 
BRANCH  20  21
ATOM     21  N   UNL     1      48.050   1.342   6.602  0.00  0.00    +0.000 NA
ATOM     22  H   UNL     1      48.869   0.813   6.897  0.00  0.00    +0.000 HD
ATOM     23  H   UNL     1      48.274   2.323   6.758  0.00  0.00    +0.000 HD
ENDBRANCH  20  21
ENDBRANCH  18  20
ENDBRANCH  13  14
ENDBRANCH   1  13
TORSDOF 8
ENDMDL
MODEL 2
REMARK VINA RESULT:    -7.051      0.915      6.306
REMARK INTER + INTRA:         -10.717
REMARK INTER:                  -9.873
REMARK INTRA:                  -0.844
REMARK UNBOUND:                -0.780
REMARK  Name = 
REMARK  8 active torsions:
REMARK  status: ('A' for Active; 'I' for Inactive)
REMARK    1  A    between atoms: N_1  and  C_2
REMARK    2  A    between atoms: C_2  and  C_3
REMARK    3  A    between atoms: C_7  and  C_8
REMARK    4  A    between atoms: C_8  and  C_9
REMARK    5  A    between atoms: C_9  and  O_10
REMARK    6  A    between atoms: O_10  and  C_11
REMARK    7  A    between atoms: C_15  and  C_16
REMARK    8  A    between atoms: C_16  and  N_17
REMARK                            x       y       z     vdW  Elec       q    Type
REMARK                         _______ _______ _______ _____ _____    ______ ____
ROOT
ATOM      1  C   UNL     1      43.517   3.689  11.269  0.00  0.00    +0.000 C 
ENDROOT
BRANCH   1   2
ATOM      2  C   UNL     1      43.973   2.502  10.417  0.00  0.00    +0.000 C 
BRANCH   2   7
ATOM      3  C   UNL     1      46.568   2.283   7.611  0.00  0.00    +0.000 A 
ATOM      4  C   UNL     1      46.732   3.635   7.285  0.00  0.00    +0.000 A 
ATOM      5  C   UNL     1      46.051   4.622   7.999  0.00  0.00    +0.000 A 
ATOM      6  C   UNL     1      45.178   4.268   9.036  0.00  0.00    +0.000 A 
ATOM      7  C   UNL     1      44.985   2.923   9.370  0.00  0.00    +0.000 A 
ATOM      8  C   UNL     1      45.703   1.944   8.666  0.00  0.00    +0.000 A 
BRANCH   3   9
ATOM      9  C   UNL     1      47.317   1.202   6.866  0.00  0.00    +0.000 C 
BRANCH   9  10
ATOM     10  N   UNL     1      48.406   1.740   6.054  0.00  0.00    +0.000 NA
ATOM     11  H   UNL     1      48.014   2.343   5.333  0.00  0.00    +0.000 HD
ATOM     12  H   UNL     1      48.866   0.972   5.566  0.00  0.00    +0.000 HD
ENDBRANCH   9  10
ENDBRANCH   3   9
ENDBRANCH   2   7
ENDBRANCH   1   2
BRANCH   1  13
ATOM     13  O   UNL     1      44.175   3.698  12.546  0.00  0.00    +0.000 OA
BRANCH  13  14
ATOM     14  C   UNL     1      45.073   4.735  12.720  0.00  0.00    +0.000 A 
ATOM     15  C   UNL     1      46.352   4.594  13.264  0.00  0.00    +0.000 A 
ATOM     16  C   UNL     1      47.188   5.697  13.384  0.00  0.00    +0.000 A 
ATOM     17  C   UNL     1      46.762   6.952  12.938  0.00  0.00    +0.000 A 
ATOM     18  C   UNL     1      45.487   7.119  12.392  0.00  0.00    +0.000 A 
ATOM     19  C   UNL     1      44.640   5.996  12.301  0.00  0.00    +0.000 A 
BRANCH  18  20
ATOM     20  C   UNL     1      45.027   8.431  11.802  0.00  0.00    +0.000 C 
BRANCH  20  21
ATOM     21  N   UNL     1      43.770   8.344  11.064  0.00  0.00    +0.000 NA
ATOM     22  H   UNL     1      43.789   9.026  10.306  0.00  0.00    +0.000 HD
ATOM     23  H   UNL     1      43.011   8.627  11.681  0.00  0.00    +0.000 HD
ENDBRANCH  20  21
ENDBRANCH  18  20
ENDBRANCH  13  14
ENDBRANCH   1  13
TORSDOF 8
ENDMDL
MODEL 3
REMARK VINA RESULT:    -6.894      2.064      2.875
REMARK INTER + INTRA:         -10.495
REMARK INTER:                 -10.006
REMARK INTRA:                  -0.489
REMARK UNBOUND:                -0.780
REMARK  Name = 
REMARK  8 active torsions:
REMARK  status: ('A' for Active; 'I' for Inactive)
REMARK    1  A    between atoms: N_1  and  C_2
REMARK    2  A    between atoms: C_2  and  C_3
REMARK    3  A    between atoms: C_7  and  C_8
REMARK    4  A    between atoms: C_8  and  C_9
REMARK    5  A    between atoms: C_9  and  O_10
REMARK    6  A    between atoms: O_10  and  C_11
REMARK    7  A    between atoms: C_15  and  C_16
REMARK    8  A    between atoms: C_16  and  N_17
REMARK                            x       y       z     vdW  Elec       q    Type
REMARK                         _______ _______ _______ _____ _____    ______ ____
ROOT
ATOM      1  C   UNL     1      43.681   4.561  10.265  0.00  0.00    +0.000 C 
ENDROOT
BRANCH   1   2
ATOM      2  C   UNL     1      43.675   5.738  11.244  0.00  0.00    +0.000 C 
BRANCH   2   7
ATOM      3  C   UNL     1      46.681   5.320  13.577  0.00  0.00    +0.000 A 
ATOM      4  C   UNL     1      47.620   6.158  12.965  0.00  0.00    +0.000 A 
ATOM      5  C   UNL     1      47.275   6.899  11.834  0.00  0.00    +0.000 A 
ATOM      6  C   UNL     1      45.990   6.793  11.286  0.00  0.00    +0.000 A 
ATOM      7  C   UNL     1      45.038   5.950  11.870  0.00  0.00    +0.000 A 
ATOM      8  C   UNL     1      45.389   5.239  13.028  0.00  0.00    +0.000 A 
BRANCH   3   9
ATOM      9  C   UNL     1      47.029   4.530  14.819  0.00  0.00    +0.000 C 
BRANCH   9  10
ATOM     10  N   UNL     1      47.440   3.162  14.509  0.00  0.00    +0.000 NA
ATOM     11  H   UNL     1      48.444   3.152  14.333  0.00  0.00    +0.000 HD
ATOM     12  H   UNL     1      46.994   2.871  13.640  0.00  0.00    +0.000 HD
ENDBRANCH   9  10
ENDBRANCH   3   9
ENDBRANCH   2   7
ENDBRANCH   1   2
BRANCH   1  13
ATOM     13  O   UNL     1      44.626   4.770   9.204  0.00  0.00    +0.000 OA
BRANCH  13  14
ATOM     14  C   UNL     1      45.200   3.612   8.712  0.00  0.00    +0.000 A 
ATOM     15  C   UNL     1      44.956   2.330   9.213  0.00  0.00    +0.000 A 
ATOM     16  C   UNL     1      45.571   1.224   8.639  0.00  0.00    +0.000 A 
ATOM     17  C   UNL     1      46.421   1.386   7.541  0.00  0.00    +0.000 A 
ATOM     18  C   UNL     1      46.683   2.656   7.024  0.00  0.00    +0.000 A 
ATOM     19  C   UNL     1      46.072   3.771   7.632  0.00  0.00    +0.000 A 
BRANCH  18  20
ATOM     20  C   UNL     1      47.508   2.865   5.775  0.00  0.00    +0.000 C 
BRANCH  20  21
ATOM     21  N   UNL     1      48.553   1.866   5.577  0.00  0.00    +0.000 NA
ATOM     22  H   UNL     1      48.512   1.195   6.343  0.00  0.00    +0.000 HD
ATOM     23  H   UNL     1      49.459   2.324   5.649  0.00  0.00    +0.000 HD
ENDBRANCH  20  21
ENDBRANCH  18  20
ENDBRANCH  13  14
ENDBRANCH   1  13
TORSDOF 8
ENDMDL
MODEL 4
REMARK VINA RESULT:    -6.695      1.562      6.236
REMARK INTER + INTRA:         -10.215
REMARK INTER:                  -9.370
REMARK INTRA:                  -0.845
REMARK UNBOUND:                -0.780
REMARK  Name = 
REMARK  8 active torsions:
REMARK  status: ('A' for Active; 'I' for Inactive)
REMARK    1  A    between atoms: N_1  and  C_2
REMARK    2  A    between atoms: C_2  and  C_3
REMARK    3  A    between atoms: C_7  and  C_8
REMARK    4  A    between atoms: C_8  and  C_9
REMARK    5  A    between atoms: C_9  and  O_10
REMARK    6  A    between atoms: O_10  and  C_11
REMARK    7  A    between atoms: C_15  and  C_16
REMARK    8  A    between atoms: C_16  and  N_17
REMARK                            x       y       z     vdW  Elec       q    Type
REMARK                         _______ _______ _______ _____ _____    ______ ____
ROOT
ATOM      1  C   UNL     1      44.478   3.127  12.165  0.00  0.00    +0.000 C 
ENDROOT
BRANCH   1   2
ATOM      2  C   UNL     1      43.831   2.924  10.793  0.00  0.00    +0.000 C 
BRANCH   2   7
ATOM      3  C   UNL     1      46.289   2.207   7.948  0.00  0.00    +0.000 A 
ATOM      4  C   UNL     1      46.519   3.497   7.454  0.00  0.00    +0.000 A 
ATOM      5  C   UNL     1      45.928   4.604   8.066  0.00  0.00    +0.000 A 
ATOM      6  C   UNL     1      45.079   4.432   9.167  0.00  0.00    +0.000 A 
ATOM      7  C   UNL     1      44.821   3.152   9.669  0.00  0.00    +0.000 A 
ATOM      8  C   UNL     1      45.451   2.052   9.066  0.00  0.00    +0.000 A 
BRANCH   3   9
ATOM      9  C   UNL     1      46.942   1.000   7.315  0.00  0.00    +0.000 C 
BRANCH   9  10
ATOM     10  N   UNL     1      48.094   1.359   6.492  0.00  0.00    +0.000 NA
ATOM     11  H   UNL     1      48.667   2.031   7.001  0.00  0.00    +0.000 HD
ATOM     12  H   UNL     1      47.766   1.839   5.655  0.00  0.00    +0.000 HD
ENDBRANCH   9  10
ENDBRANCH   3   9
ENDBRANCH   2   7
ENDBRANCH   1   2
BRANCH   1  13
ATOM     13  O   UNL     1      43.961   4.298  12.819  0.00  0.00    +0.000 OA
BRANCH  13  14
ATOM     14  C   UNL     1      44.733   5.433  12.654  0.00  0.00    +0.000 A 
ATOM     15  C   UNL     1      44.318   6.583  11.978  0.00  0.00    +0.000 A 
ATOM     16  C   UNL     1      45.163   7.681  11.879  0.00  0.00    +0.000 A 
ATOM     17  C   UNL     1      46.427   7.649  12.476  0.00  0.00    +0.000 A 
ATOM     18  C   UNL     1      46.866   6.510  13.156  0.00  0.00    +0.000 A 
ATOM     19  C   UNL     1      46.007   5.395  13.226  0.00  0.00    +0.000 A 
BRANCH  18  20
ATOM     20  C   UNL     1      48.177   6.472  13.905  0.00  0.00    +0.000 C 
BRANCH  20  21
ATOM     21  N   UNL     1      48.090   5.855  15.226  0.00  0.00    +0.000 NA
ATOM     22  H   UNL     1      47.212   5.343  15.290  0.00  0.00    +0.000 HD
ATOM     23  H   UNL     1      48.041   6.593  15.927  0.00  0.00    +0.000 HD
ENDBRANCH  20  21
ENDBRANCH  18  20
ENDBRANCH  13  14
ENDBRANCH   1  13
TORSDOF 8
ENDMDL
MODEL 5
REMARK VINA RESULT:    -6.148      1.687      2.236
REMARK INTER + INTRA:          -9.444
REMARK INTER:                  -8.742
REMARK INTRA:                  -0.702
REMARK UNBOUND:                -0.780
REMARK  Name = 
REMARK  8 active torsions:
REMARK  status: ('A' for Active; 'I' for Inactive)
REMARK    1  A    between atoms: N_1  and  C_2
REMARK    2  A    between atoms: C_2  and  C_3
REMARK    3  A    between atoms: C_7  and  C_8
REMARK    4  A    between atoms: C_8  and  C_9
REMARK    5  A    between atoms: C_9  and  O_10
REMARK    6  A    between atoms: O_10  and  C_11
REMARK    7  A    between atoms: C_15  and  C_16
REMARK    8  A    between atoms: C_16  and  N_17
REMARK                            x       y       z     vdW  Elec       q    Type
REMARK                         _______ _______ _______ _____ _____    ______ ____
ROOT
ATOM      1  C   UNL     1      43.910   4.293  11.131  0.00  0.00    +0.000 C 
ENDROOT
BRANCH   1   2
ATOM      2  C   UNL     1      44.877   4.317  12.318  0.00  0.00    +0.000 C 
BRANCH   2   7
ATOM      3  C   UNL     1      47.555   6.952  13.049  0.00  0.00    +0.000 A 
ATOM      4  C   UNL     1      46.936   8.112  12.568  0.00  0.00    +0.000 A 
ATOM      5  C   UNL     1      45.637   8.060  12.057  0.00  0.00    +0.000 A 
ATOM      6  C   UNL     1      44.950   6.841  11.999  0.00  0.00    +0.000 A 
ATOM      7  C   UNL     1      45.554   5.665  12.459  0.00  0.00    +0.000 A 
ATOM      8  C   UNL     1      46.846   5.739  13.002  0.00  0.00    +0.000 A 
BRANCH   3   9
ATOM      9  C   UNL     1      48.950   6.994  13.630  0.00  0.00    +0.000 C 
BRANCH   9  10
ATOM     10  N   UNL     1      49.977   7.133  12.600  0.00  0.00    +0.000 NA
ATOM     11  H   UNL     1      50.854   7.405  13.042  0.00  0.00    +0.000 HD
ATOM     12  H   UNL     1      49.720   7.899  11.978  0.00  0.00    +0.000 HD
ENDBRANCH   9  10
ENDBRANCH   3   9
ENDBRANCH   2   7
ENDBRANCH   1   2
BRANCH   1  13
ATOM     13  O   UNL     1      44.104   3.121  10.323  0.00  0.00    +0.000 OA
BRANCH  13  14
ATOM     14  C   UNL     1      45.004   3.284   9.286  0.00  0.00    +0.000 A 
ATOM     15  C   UNL     1      45.416   4.519   8.779  0.00  0.00    +0.000 A 
ATOM     16  C   UNL     1      46.339   4.578   7.742  0.00  0.00    +0.000 A 
ATOM     17  C   UNL     1      46.879   3.401   7.216  0.00  0.00    +0.000 A 
ATOM     18  C   UNL     1      46.482   2.154   7.704  0.00  0.00    +0.000 A 
ATOM     19  C   UNL     1      45.525   2.109   8.738  0.00  0.00    +0.000 A 
BRANCH  18  20
ATOM     20  C   UNL     1      47.118   0.865   7.240  0.00  0.00    +0.000 C 
BRANCH  20  21
ATOM     21  N   UNL     1      46.616  -0.326   7.919  0.00  0.00    +0.000 NA
ATOM     22  H   UNL     1      46.889  -1.147   7.382  0.00  0.00    +0.000 HD
ATOM     23  H   UNL     1      45.598  -0.303   7.906  0.00  0.00    +0.000 HD
ENDBRANCH  20  21
ENDBRANCH  18  20
ENDBRANCH  13  14
ENDBRANCH   1  13
TORSDOF 8
ENDMDL
MODEL 6
REMARK VINA RESULT:    -6.042      5.158      6.723
REMARK INTER + INTRA:          -9.295
REMARK INTER:                  -8.931
REMARK INTRA:                  -0.364
REMARK UNBOUND:                -0.780
REMARK  Name = 
REMARK  8 active torsions:
REMARK  status: ('A' for Active; 'I' for Inactive)
REMARK    1  A    between atoms: N_1  and  C_2
REMARK    2  A    between atoms: C_2  and  C_3
REMARK    3  A    between atoms: C_7  and  C_8
REMARK    4  A    between atoms: C_8  and  C_9
REMARK    5  A    between atoms: C_9  and  O_10
REMARK    6  A    between atoms: O_10  and  C_11
REMARK    7  A    between atoms: C_15  and  C_16
REMARK    8  A    between atoms: C_16  and  N_17
REMARK                            x       y       z     vdW  Elec       q    Type
REMARK                         _______ _______ _______ _____ _____    ______ ____
ROOT
ATOM      1  C   UNL     1      47.110   4.113  15.625  0.00  0.00    +0.000 C 
ENDROOT
BRANCH   1   2
ATOM      2  C   UNL     1      47.552   3.209  16.779  0.00  0.00    +0.000 C 
BRANCH   2   7
ATOM      3  C   UNL     1      51.262   2.613  17.512  0.00  0.00    +0.000 A 
ATOM      4  C   UNL     1      51.713   3.923  17.715  0.00  0.00    +0.000 A 
ATOM      5  C   UNL     1      50.820   4.994  17.671  0.00  0.00    +0.000 A 
ATOM      6  C   UNL     1      49.464   4.771  17.398  0.00  0.00    +0.000 A 
ATOM      7  C   UNL     1      48.991   3.473  17.175  0.00  0.00    +0.000 A 
ATOM      8  C   UNL     1      49.895   2.403  17.258  0.00  0.00    +0.000 A 
BRANCH   3   9
ATOM      9  C   UNL     1      52.210   1.438  17.583  0.00  0.00    +0.000 C 
BRANCH   9  10
ATOM     10  N   UNL     1      51.533   0.200  17.958  0.00  0.00    +0.000 NA
ATOM     11  H   UNL     1      50.537   0.295  17.762  0.00  0.00    +0.000 HD
ATOM     12  H   UNL     1      51.615   0.070  18.966  0.00  0.00    +0.000 HD
ENDBRANCH   9  10
ENDBRANCH   3   9
ENDBRANCH   2   7
ENDBRANCH   1   2
BRANCH   1  13
ATOM     13  O   UNL     1      47.123   3.407  14.374  0.00  0.00    +0.000 OA
BRANCH  13  14
ATOM     14  C   UNL     1      46.508   4.077  13.333  0.00  0.00    +0.000 A 
ATOM     15  C   UNL     1      46.817   5.381  12.936  0.00  0.00    +0.000 A 
ATOM     16  C   UNL     1      46.152   5.964  11.865  0.00  0.00    +0.000 A 
ATOM     17  C   UNL     1      45.185   5.239  11.161  0.00  0.00    +0.000 A 
ATOM     18  C   UNL     1      44.858   3.935  11.539  0.00  0.00    +0.000 A 
ATOM     19  C   UNL     1      45.522   3.366  12.644  0.00  0.00    +0.000 A 
BRANCH  18  20
ATOM     20  C   UNL     1      43.900   3.080  10.743  0.00  0.00    +0.000 C 
BRANCH  20  21
ATOM     21  N   UNL     1      43.010   2.262  11.561  0.00  0.00    +0.000 NA
ATOM     22  H   UNL     1      42.833   1.385  11.074  0.00  0.00    +0.000 HD
ATOM     23  H   UNL     1      42.110   2.733  11.635  0.00  0.00    +0.000 HD
ENDBRANCH  20  21
ENDBRANCH  18  20
ENDBRANCH  13  14
ENDBRANCH   1  13
TORSDOF 8
ENDMDL
MODEL 7
REMARK VINA RESULT:    -6.042      1.916      2.542
REMARK INTER + INTRA:          -9.294
REMARK INTER:                  -8.775
REMARK INTRA:                  -0.519
REMARK UNBOUND:                -0.780
REMARK  Name = 
REMARK  8 active torsions:
REMARK  status: ('A' for Active; 'I' for Inactive)
REMARK    1  A    between atoms: N_1  and  C_2
REMARK    2  A    between atoms: C_2  and  C_3
REMARK    3  A    between atoms: C_7  and  C_8
REMARK    4  A    between atoms: C_8  and  C_9
REMARK    5  A    between atoms: C_9  and  O_10
REMARK    6  A    between atoms: O_10  and  C_11
REMARK    7  A    between atoms: C_15  and  C_16
REMARK    8  A    between atoms: C_16  and  N_17
REMARK                            x       y       z     vdW  Elec       q    Type
REMARK                         _______ _______ _______ _____ _____    ______ ____
ROOT
ATOM      1  C   UNL     1      45.125   5.373  10.075  0.00  0.00    +0.000 C 
ENDROOT
BRANCH   1   2
ATOM      2  C   UNL     1      44.639   5.078  11.497  0.00  0.00    +0.000 C 
BRANCH   2   7
ATOM      3  C   UNL     1      47.730   6.413  13.318  0.00  0.00    +0.000 A 
ATOM      4  C   UNL     1      47.757   5.589  14.449  0.00  0.00    +0.000 A 
ATOM      5  C   UNL     1      46.817   4.568  14.603  0.00  0.00    +0.000 A 
ATOM      6  C   UNL     1      45.821   4.375  13.638  0.00  0.00    +0.000 A 
ATOM      7  C   UNL     1      45.762   5.197  12.506  0.00  0.00    +0.000 A 
ATOM      8  C   UNL     1      46.736   6.195  12.348  0.00  0.00    +0.000 A 
BRANCH   3   9
ATOM      9  C   UNL     1      48.756   7.506  13.121  0.00  0.00    +0.000 C 
BRANCH   9  10
ATOM     10  N   UNL     1      49.883   7.068  12.300  0.00  0.00    +0.000 NA
ATOM     11  H   UNL     1      49.675   7.263  11.322  0.00  0.00    +0.000 HD
ATOM     12  H   UNL     1      49.974   6.055  12.376  0.00  0.00    +0.000 HD
ENDBRANCH   9  10
ENDBRANCH   3   9
ENDBRANCH   2   7
ENDBRANCH   1   2
BRANCH   1  13
ATOM     13  O   UNL     1      44.410   4.590   9.106  0.00  0.00    +0.000 OA
BRANCH  13  14
ATOM     14  C   UNL     1      45.094   3.477   8.653  0.00  0.00    +0.000 A 
ATOM     15  C   UNL     1      44.866   2.171   9.096  0.00  0.00    +0.000 A 
ATOM     16  C   UNL     1      45.597   1.114   8.567  0.00  0.00    +0.000 A 
ATOM     17  C   UNL     1      46.549   1.349   7.571  0.00  0.00    +0.000 A 
ATOM     18  C   UNL     1      46.796   2.646   7.113  0.00  0.00    +0.000 A 
ATOM     19  C   UNL     1      46.066   3.711   7.677  0.00  0.00    +0.000 A 
BRANCH  18  20
ATOM     20  C   UNL     1      47.736   2.931   5.966  0.00  0.00    +0.000 C 
BRANCH  20  21
ATOM     21  N   UNL     1      48.555   1.790   5.568  0.00  0.00    +0.000 NA
ATOM     22  H   UNL     1      49.478   2.128   5.298  0.00  0.00    +0.000 HD
ATOM     23  H   UNL     1      48.149   1.374   4.732  0.00  0.00    +0.000 HD
ENDBRANCH  20  21
ENDBRANCH  18  20
ENDBRANCH  13  14
ENDBRANCH   1  13
TORSDOF 8
ENDMDL
MODEL 8
REMARK VINA RESULT:    -5.874      1.603      2.314
REMARK INTER + INTRA:          -9.058
REMARK INTER:                  -8.600
REMARK INTRA:                  -0.458
REMARK UNBOUND:                -0.780
REMARK  Name = 
REMARK  8 active torsions:
REMARK  status: ('A' for Active; 'I' for Inactive)
REMARK    1  A    between atoms: N_1  and  C_2
REMARK    2  A    between atoms: C_2  and  C_3
REMARK    3  A    between atoms: C_7  and  C_8
REMARK    4  A    between atoms: C_8  and  C_9
REMARK    5  A    between atoms: C_9  and  O_10
REMARK    6  A    between atoms: O_10  and  C_11
REMARK    7  A    between atoms: C_15  and  C_16
REMARK    8  A    between atoms: C_16  and  N_17
REMARK                            x       y       z     vdW  Elec       q    Type
REMARK                         _______ _______ _______ _____ _____    ______ ____
ROOT
ATOM      1  C   UNL     1      44.399   4.685  10.255  0.00  0.00    +0.000 C 
ENDROOT
BRANCH   1   2
ATOM      2  C   UNL     1      45.799   5.264  10.476  0.00  0.00    +0.000 C 
BRANCH   2   7
ATOM      3  C   UNL     1      44.747   8.778  11.570  0.00  0.00    +0.000 A 
ATOM      4  C   UNL     1      45.469   8.920  12.762  0.00  0.00    +0.000 A 
ATOM      5  C   UNL     1      46.334   7.912  13.189  0.00  0.00    +0.000 A 
ATOM      6  C   UNL     1      46.471   6.736  12.440  0.00  0.00    +0.000 A 
ATOM      7  C   UNL     1      45.749   6.563  11.254  0.00  0.00    +0.000 A 
ATOM      8  C   UNL     1      44.910   7.601  10.819  0.00  0.00    +0.000 A 
BRANCH   3   9
ATOM      9  C   UNL     1      43.826   9.871  11.078  0.00  0.00    +0.000 C 
BRANCH   9  10
ATOM     10  N   UNL     1      43.350  10.727  12.163  0.00  0.00    +0.000 NA
ATOM     11  H   UNL     1      42.445  10.385  12.481  0.00  0.00    +0.000 HD
ATOM     12  H   UNL     1      43.190  11.665  11.799  0.00  0.00    +0.000 HD
ENDBRANCH   9  10
ENDBRANCH   3   9
ENDBRANCH   2   7
ENDBRANCH   1   2
BRANCH   1  13
ATOM     13  O   UNL     1      44.187   4.344   8.876  0.00  0.00    +0.000 OA
BRANCH  13  14
ATOM     14  C   UNL     1      44.984   3.314   8.412  0.00  0.00    +0.000 A 
ATOM     15  C   UNL     1      45.066   2.048   8.999  0.00  0.00    +0.000 A 
ATOM     16  C   UNL     1      45.887   1.072   8.448  0.00  0.00    +0.000 A 
ATOM     17  C   UNL     1      46.619   1.344   7.288  0.00  0.00    +0.000 A 
ATOM     18  C   UNL     1      46.555   2.602   6.684  0.00  0.00    +0.000 A 
ATOM     19  C   UNL     1      45.738   3.590   7.269  0.00  0.00    +0.000 A 
BRANCH  18  20
ATOM     20  C   UNL     1      47.243   2.904   5.373  0.00  0.00    +0.000 C 
BRANCH  20  21
ATOM     21  N   UNL     1      48.498   2.184   5.179  0.00  0.00    +0.000 NA
ATOM     22  H   UNL     1      49.175   2.817   4.757  0.00  0.00    +0.000 HD
ATOM     23  H   UNL     1      48.344   1.440   4.501  0.00  0.00    +0.000 HD
ENDBRANCH  20  21
ENDBRANCH  18  20
ENDBRANCH  13  14
ENDBRANCH   1  13
TORSDOF 8
ENDMDL
MODEL 9
REMARK VINA RESULT:    -5.606      5.180      7.466
REMARK INTER + INTRA:          -8.679
REMARK INTER:                  -8.275
REMARK INTRA:                  -0.404
REMARK UNBOUND:                -0.780
REMARK  Name = 
REMARK  8 active torsions:
REMARK  status: ('A' for Active; 'I' for Inactive)
REMARK    1  A    between atoms: N_1  and  C_2
REMARK    2  A    between atoms: C_2  and  C_3
REMARK    3  A    between atoms: C_7  and  C_8
REMARK    4  A    between atoms: C_8  and  C_9
REMARK    5  A    between atoms: C_9  and  O_10
REMARK    6  A    between atoms: O_10  and  C_11
REMARK    7  A    between atoms: C_15  and  C_16
REMARK    8  A    between atoms: C_16  and  N_17
REMARK                            x       y       z     vdW  Elec       q    Type
REMARK                         _______ _______ _______ _____ _____    ______ ____
ROOT
ATOM      1  C   UNL     1      47.356   3.922  15.872  0.00  0.00    +0.000 C 
ENDROOT
BRANCH   1   2
ATOM      2  C   UNL     1      47.786   2.935  16.960  0.00  0.00    +0.000 C 
BRANCH   2   7
ATOM      3  C   UNL     1      51.493   2.122  17.456  0.00  0.00    +0.000 A 
ATOM      4  C   UNL     1      52.009   3.384  17.777  0.00  0.00    +0.000 A 
ATOM      5  C   UNL     1      51.160   4.486  17.888  0.00  0.00    +0.000 A 
ATOM      6  C   UNL     1      49.786   4.346  17.655  0.00  0.00    +0.000 A 
ATOM      7  C   UNL     1      49.249   3.099  17.316  0.00  0.00    +0.000 A 
ATOM      8  C   UNL     1      50.110   1.992  17.244  0.00  0.00    +0.000 A 
BRANCH   3   9
ATOM      9  C   UNL     1      52.393   0.911  17.358  0.00  0.00    +0.000 C 
BRANCH   9  10
ATOM     10  N   UNL     1      52.101  -0.082  18.389  0.00  0.00    +0.000 NA
ATOM     11  H   UNL     1      52.607   0.165  19.238  0.00  0.00    +0.000 HD
ATOM     12  H   UNL     1      52.467  -0.986  18.091  0.00  0.00    +0.000 HD
ENDBRANCH   9  10
ENDBRANCH   3   9
ENDBRANCH   2   7
ENDBRANCH   1   2
BRANCH   1  13
ATOM     13  O   UNL     1      47.429   3.325  14.567  0.00  0.00    +0.000 OA
BRANCH  13  14
ATOM     14  C   UNL     1      46.659   3.954  13.606  0.00  0.00    +0.000 A 
ATOM     15  C   UNL     1      45.851   3.292  12.678  0.00  0.00    +0.000 A 
ATOM     16  C   UNL     1      45.101   4.016  11.759  0.00  0.00    +0.000 A 
ATOM     17  C   UNL     1      45.134   5.414  11.773  0.00  0.00    +0.000 A 
ATOM     18  C   UNL     1      45.935   6.099  12.689  0.00  0.00    +0.000 A 
ATOM     19  C   UNL     1      46.710   5.351  13.598  0.00  0.00    +0.000 A 
BRANCH  18  20
ATOM     20  C   UNL     1      45.918   7.604  12.810  0.00  0.00    +0.000 C 
BRANCH  20  21
ATOM     21  N   UNL     1      44.754   8.238  12.198  0.00  0.00    +0.000 NA
ATOM     22  H   UNL     1      45.016   8.579  11.274  0.00  0.00    +0.000 HD
ATOM     23  H   UNL     1      44.506   9.061  12.745  0.00  0.00    +0.000 HD
ENDBRANCH  20  21
ENDBRANCH  18  20
ENDBRANCH  13  14
ENDBRANCH   1  13
TORSDOF 8
ENDMDL
