MODEL 1
REMARK VINA RESULT:    -8.408      0.000      0.000
REMARK INTER + INTRA:         -12.996
REMARK INTER:                 -11.848
REMARK INTRA:                  -1.148
REMARK UNBOUND:                -1.148
REMARK  Name = 
REMARK  7 active torsions:
REMARK  status: ('A' for Active; 'I' for Inactive)
REMARK    1  A    between atoms: C_2  and  C_4
REMARK    2  A    between atoms: C_7  and  O_8
REMARK    3  A    between atoms: O_8  and  C_9
REMARK    4  A    between atoms: C_9  and  C_10
REMARK    5  A    between atoms: C_10  and  C_11
REMARK    6  A    between atoms: C_15  and  O_16
REMARK    7  A    between atoms: O_16  and  C_17
REMARK                            x       y       z     vdW  Elec       q    Type
REMARK                         _______ _______ _______ _____ _____    ______ ____
ROOT
ATOM      1  C   UNL     1      43.343   4.774  11.019  0.00  0.00    +0.000 C 
ENDROOT
BRANCH   1   2
ATOM      2  O   UNL     1      43.447   3.453  10.481  0.00  0.00    +0.000 OA
BRANCH   2   6
ATOM      3  C   UNL     1      46.383   2.642   7.624  0.00  0.00    +0.000 A 
ATOM      4  C   UNL     1      45.900   3.949   7.734  0.00  0.00    +0.000 A 
ATOM      5  C   UNL     1      44.916   4.258   8.680  0.00  0.00    +0.000 A 
ATOM      6  C   UNL     1      44.404   3.266   9.519  0.00  0.00    +0.000 A 
ATOM      7  C   UNL     1      44.877   1.956   9.395  0.00  0.00    +0.000 A 
ATOM      8  C   UNL     1      45.858   1.640   8.448  0.00  0.00    +0.000 A 
BRANCH   3  10
ATOM      9  N   UNL     1      47.511   3.051   5.506  0.00  0.00    +0.000 N 
ATOM     10  C   UNL     1      47.428   2.280   6.632  0.00  0.00    +0.000 C 
ATOM     11  O   UNL     1      48.210   1.359   6.827  0.00  0.00    +0.000 OA
ATOM     12  H   UNL     1      48.296   2.863   4.894  0.00  0.00    +0.000 HD
ATOM     13  H   UNL     1      47.066   3.954   5.432  0.00  0.00    +0.000 HD
ENDBRANCH   3  10
ENDBRANCH   2   6
ENDBRANCH   1   2
BRANCH   1  14
ATOM     14  C   UNL     1      43.786   4.763  12.481  0.00  0.00    +0.000 C 
BRANCH  14  15
ATOM     15  C   UNL     1      45.212   5.233  12.625  0.00  0.00    +0.000 A 
ATOM     16  C   UNL     1      45.774   6.101  11.682  0.00  0.00    +0.000 A 
ATOM     17  C   UNL     1      47.081   6.566  11.843  0.00  0.00    +0.000 A 
ATOM     18  C   UNL     1      47.842   6.171  12.945  0.00  0.00    +0.000 A 
ATOM     19  C   UNL     1      47.292   5.309  13.890  0.00  0.00    +0.000 A 
ATOM     20  C   UNL     1      45.980   4.852  13.735  0.00  0.00    +0.000 A 
BRANCH  19  21
ATOM     21  O   UNL     1      47.932   4.887  15.028  0.00  0.00    +0.000 OA
BRANCH  21  22
ATOM     22  C   UNL     1      47.250   3.979  15.923  0.00  0.00    +0.000 C 
ATOM     23  C   UNL     1      47.175   4.386  17.413  0.00  0.00    +0.000 C 
ATOM     24  C   UNL     1      47.670   2.990  17.804  0.00  0.00    +0.000 C 
ATOM     25  C   UNL     1      48.105   2.762  16.351  0.00  0.00    +0.000 C 
ENDBRANCH  21  22
ENDBRANCH  19  21
ENDBRANCH  14  15
ENDBRANCH   1  14
TORSDOF 7
ENDMDL
MODEL 2
REMARK VINA RESULT:    -7.240      2.170      4.272
REMARK INTER + INTRA:         -11.351
REMARK INTER:                 -10.655
REMARK INTRA:                  -0.696
REMARK UNBOUND:                -1.148
REMARK  Name = 
REMARK  7 active torsions:
REMARK  status: ('A' for Active; 'I' for Inactive)
REMARK    1  A    between atoms: C_2  and  C_4
REMARK    2  A    between atoms: C_7  and  O_8
REMARK    3  A    between atoms: O_8  and  C_9
REMARK    4  A    between atoms: C_9  and  C_10
REMARK    5  A    between atoms: C_10  and  C_11
REMARK    6  A    between atoms: C_15  and  O_16
REMARK    7  A    between atoms: O_16  and  C_17
REMARK                            x       y       z     vdW  Elec       q    Type
REMARK                         _______ _______ _______ _____ _____    ______ ____
ROOT
ATOM      1  C   UNL     1      43.427   4.758  10.944  0.00  0.00    +0.000 C 
ENDROOT
BRANCH   1   2
ATOM      2  O   UNL     1      43.397   3.413  10.462  0.00  0.00    +0.000 OA
BRANCH   2   6
ATOM      3  C   UNL     1      46.358   2.630   7.621  0.00  0.00    +0.000 A 
ATOM      4  C   UNL     1      45.805   1.557   8.324  0.00  0.00    +0.000 A 
ATOM      5  C   UNL     1      44.811   1.781   9.284  0.00  0.00    +0.000 A 
ATOM      6  C   UNL     1      44.365   3.076   9.552  0.00  0.00    +0.000 A 
ATOM      7  C   UNL     1      44.931   4.151   8.858  0.00  0.00    +0.000 A 
ATOM      8  C   UNL     1      45.929   3.932   7.901  0.00  0.00    +0.000 A 
BRANCH   3  10
ATOM      9  N   UNL     1      47.326   3.181   5.457  0.00  0.00    +0.000 N 
ATOM     10  C   UNL     1      47.413   2.428   6.595  0.00  0.00    +0.000 C 
ATOM     11  O   UNL     1      48.343   1.653   6.771  0.00  0.00    +0.000 OA
ATOM     12  H   UNL     1      48.109   3.114   4.817  0.00  0.00    +0.000 HD
ATOM     13  H   UNL     1      46.735   3.996   5.389  0.00  0.00    +0.000 HD
ENDBRANCH   3  10
ENDBRANCH   2   6
ENDBRANCH   1   2
BRANCH   1  14
ATOM     14  C   UNL     1      43.735   4.755  12.440  0.00  0.00    +0.000 C 
BRANCH  14  15
ATOM     15  C   UNL     1      45.018   5.489  12.738  0.00  0.00    +0.000 A 
ATOM     16  C   UNL     1      46.065   4.847  13.411  0.00  0.00    +0.000 A 
ATOM     17  C   UNL     1      47.267   5.518  13.647  0.00  0.00    +0.000 A 
ATOM     18  C   UNL     1      47.439   6.835  13.216  0.00  0.00    +0.000 A 
ATOM     19  C   UNL     1      46.404   7.482  12.545  0.00  0.00    +0.000 A 
ATOM     20  C   UNL     1      45.205   6.807  12.298  0.00  0.00    +0.000 A 
BRANCH  19  21
ATOM     21  O   UNL     1      46.476   8.757  12.044  0.00  0.00    +0.000 OA
BRANCH  21  22
ATOM     22  C   UNL     1      45.329   9.627  12.169  0.00  0.00    +0.000 C 
ATOM     23  C   UNL     1      44.294   9.594  11.019  0.00  0.00    +0.000 C 
ATOM     24  C   UNL     1      44.333  11.125  10.959  0.00  0.00    +0.000 C 
ATOM     25  C   UNL     1      45.618  11.102  11.796  0.00  0.00    +0.000 C 
ENDBRANCH  21  22
ENDBRANCH  19  21
ENDBRANCH  14  15
ENDBRANCH   1  14
TORSDOF 7
ENDMDL
MODEL 3
REMARK VINA RESULT:    -7.203      1.957      2.327
REMARK INTER + INTRA:         -11.299
REMARK INTER:                 -10.520
REMARK INTRA:                  -0.779
REMARK UNBOUND:                -1.148
REMARK  Name = 
REMARK  7 active torsions:
REMARK  status: ('A' for Active; 'I' for Inactive)
REMARK    1  A    between atoms: C_2  and  C_4
REMARK    2  A    between atoms: C_7  and  O_8
REMARK    3  A    between atoms: O_8  and  C_9
REMARK    4  A    between atoms: C_9  and  C_10
REMARK    5  A    between atoms: C_10  and  C_11
REMARK    6  A    between atoms: C_15  and  O_16
REMARK    7  A    between atoms: O_16  and  C_17
REMARK                            x       y       z     vdW  Elec       q    Type
REMARK                         _______ _______ _______ _____ _____    ______ ____
ROOT
ATOM      1  C   UNL     1      43.687   3.204  11.755  0.00  0.00    +0.000 C 
ENDROOT
BRANCH   1   2
ATOM      2  O   UNL     1      43.510   3.730  10.437  0.00  0.00    +0.000 OA
BRANCH   2   6
ATOM      3  C   UNL     1      46.472   2.555   7.737  0.00  0.00    +0.000 A 
ATOM      4  C   UNL     1      46.172   3.915   7.851  0.00  0.00    +0.000 A 
ATOM      5  C   UNL     1      45.185   4.346   8.745  0.00  0.00    +0.000 A 
ATOM      6  C   UNL     1      44.488   3.424   9.528  0.00  0.00    +0.000 A 
ATOM      7  C   UNL     1      44.779   2.062   9.401  0.00  0.00    +0.000 A 
ATOM      8  C   UNL     1      45.762   1.626   8.505  0.00  0.00    +0.000 A 
BRANCH   3  10
ATOM      9  N   UNL     1      48.391   2.989   6.304  0.00  0.00    +0.000 N 
ATOM     10  C   UNL     1      47.514   2.064   6.800  0.00  0.00    +0.000 C 
ATOM     11  O   UNL     1      47.617   0.879   6.512  0.00  0.00    +0.000 OA
ATOM     12  H   UNL     1      49.161   2.625   5.756  0.00  0.00    +0.000 HD
ATOM     13  H   UNL     1      48.498   3.908   6.709  0.00  0.00    +0.000 HD
ENDBRANCH   3  10
ENDBRANCH   2   6
ENDBRANCH   1   2
BRANCH   1  14
ATOM     14  C   UNL     1      43.619   4.344  12.770  0.00  0.00    +0.000 C 
BRANCH  14  15
ATOM     15  C   UNL     1      44.658   5.399  12.480  0.00  0.00    +0.000 A 
ATOM     16  C   UNL     1      44.329   6.532  11.726  0.00  0.00    +0.000 A 
ATOM     17  C   UNL     1      45.283   7.526  11.496  0.00  0.00    +0.000 A 
ATOM     18  C   UNL     1      46.574   7.403  12.015  0.00  0.00    +0.000 A 
ATOM     19  C   UNL     1      46.910   6.280  12.767  0.00  0.00    +0.000 A 
ATOM     20  C   UNL     1      45.953   5.290  13.007  0.00  0.00    +0.000 A 
BRANCH  19  21
ATOM     21  O   UNL     1      48.132   6.073  13.356  0.00  0.00    +0.000 OA
BRANCH  21  22
ATOM     22  C   UNL     1      48.441   6.755  14.593  0.00  0.00    +0.000 C 
ATOM     23  C   UNL     1      48.094   8.260  14.669  0.00  0.00    +0.000 C 
ATOM     24  C   UNL     1      49.505   8.544  15.195  0.00  0.00    +0.000 C 
ATOM     25  C   UNL     1      49.932   7.144  14.737  0.00  0.00    +0.000 C 
ENDBRANCH  21  22
ENDBRANCH  19  21
ENDBRANCH  14  15
ENDBRANCH   1  14
TORSDOF 7
ENDMDL
MODEL 4
REMARK VINA RESULT:    -7.133      1.751      3.697
REMARK INTER + INTRA:         -11.200
REMARK INTER:                 -10.456
REMARK INTRA:                  -0.745
REMARK UNBOUND:                -1.148
REMARK  Name = 
REMARK  7 active torsions:
REMARK  status: ('A' for Active; 'I' for Inactive)
REMARK    1  A    between atoms: C_2  and  C_4
REMARK    2  A    between atoms: C_7  and  O_8
REMARK    3  A    between atoms: O_8  and  C_9
REMARK    4  A    between atoms: C_9  and  C_10
REMARK    5  A    between atoms: C_10  and  C_11
REMARK    6  A    between atoms: C_15  and  O_16
REMARK    7  A    between atoms: O_16  and  C_17
REMARK                            x       y       z     vdW  Elec       q    Type
REMARK                         _______ _______ _______ _____ _____    ______ ____
ROOT
ATOM      1  C   UNL     1      43.650   3.471  11.783  0.00  0.00    +0.000 C 
ENDROOT
BRANCH   1   2
ATOM      2  O   UNL     1      43.397   3.689  10.394  0.00  0.00    +0.000 OA
BRANCH   2   6
ATOM      3  C   UNL     1      46.391   2.658   7.670  0.00  0.00    +0.000 A 
ATOM      4  C   UNL     1      45.824   1.650   8.455  0.00  0.00    +0.000 A 
ATOM      5  C   UNL     1      44.818   1.958   9.378  0.00  0.00    +0.000 A 
ATOM      6  C   UNL     1      44.374   3.273   9.529  0.00  0.00    +0.000 A 
ATOM      7  C   UNL     1      44.955   4.283   8.754  0.00  0.00    +0.000 A 
ATOM      8  C   UNL     1      45.964   3.980   7.832  0.00  0.00    +0.000 A 
BRANCH   3  10
ATOM      9  N   UNL     1      47.483   3.131   5.547  0.00  0.00    +0.000 N 
ATOM     10  C   UNL     1      47.458   2.365   6.679  0.00  0.00    +0.000 C 
ATOM     11  O   UNL     1      48.305   1.505   6.879  0.00  0.00    +0.000 OA
ATOM     12  H   UNL     1      48.278   2.996   4.934  0.00  0.00    +0.000 HD
ATOM     13  H   UNL     1      46.973   3.999   5.467  0.00  0.00    +0.000 HD
ENDBRANCH   3  10
ENDBRANCH   2   6
ENDBRANCH   1   2
BRANCH   1  14
ATOM     14  C   UNL     1      43.556   4.800  12.531  0.00  0.00    +0.000 C 
BRANCH  14  15
ATOM     15  C   UNL     1      44.915   5.274  12.982  0.00  0.00    +0.000 A 
ATOM     16  C   UNL     1      45.784   4.407  13.655  0.00  0.00    +0.000 A 
ATOM     17  C   UNL     1      47.057   4.838  14.033  0.00  0.00    +0.000 A 
ATOM     18  C   UNL     1      47.480   6.137  13.743  0.00  0.00    +0.000 A 
ATOM     19  C   UNL     1      46.624   7.007  13.073  0.00  0.00    +0.000 A 
ATOM     20  C   UNL     1      45.353   6.573  12.685  0.00  0.00    +0.000 A 
BRANCH  19  21
ATOM     21  O   UNL     1      46.947   8.289  12.703  0.00  0.00    +0.000 OA
BRANCH  21  22
ATOM     22  C   UNL     1      48.125   8.512  11.897  0.00  0.00    +0.000 C 
ATOM     23  C   UNL     1      49.479   8.597  12.640  0.00  0.00    +0.000 C 
ATOM     24  C   UNL     1      49.799   9.888  11.879  0.00  0.00    +0.000 C 
ATOM     25  C   UNL     1      48.323   9.988  11.474  0.00  0.00    +0.000 C 
ENDBRANCH  21  22
ENDBRANCH  19  21
ENDBRANCH  14  15
ENDBRANCH   1  14
TORSDOF 7
ENDMDL
MODEL 5
REMARK VINA RESULT:    -6.774      3.305      8.111
REMARK INTER + INTRA:         -10.694
REMARK INTER:                  -9.787
REMARK INTRA:                  -0.907
REMARK UNBOUND:                -1.148
REMARK  Name = 
REMARK  7 active torsions:
REMARK  status: ('A' for Active; 'I' for Inactive)
REMARK    1  A    between atoms: C_2  and  C_4
REMARK    2  A    between atoms: C_7  and  O_8
REMARK    3  A    between atoms: O_8  and  C_9
REMARK    4  A    between atoms: C_9  and  C_10
REMARK    5  A    between atoms: C_10  and  C_11
REMARK    6  A    between atoms: C_15  and  O_16
REMARK    7  A    between atoms: O_16  and  C_17
REMARK                            x       y       z     vdW  Elec       q    Type
REMARK                         _______ _______ _______ _____ _____    ______ ____
ROOT
ATOM      1  C   UNL     1      45.859   6.522  12.739  0.00  0.00    +0.000 C 
ENDROOT
BRANCH   1   2
ATOM      2  O   UNL     1      47.253   6.349  13.004  0.00  0.00    +0.000 OA
BRANCH   2   6
ATOM      3  C   UNL     1      48.080   4.680  16.742  0.00  0.00    +0.000 A 
ATOM      4  C   UNL     1      48.678   5.898  16.406  0.00  0.00    +0.000 A 
ATOM      5  C   UNL     1      48.424   6.487  15.162  0.00  0.00    +0.000 A 
ATOM      6  C   UNL     1      47.577   5.865  14.244  0.00  0.00    +0.000 A 
ATOM      7  C   UNL     1      46.992   4.638  14.576  0.00  0.00    +0.000 A 
ATOM      8  C   UNL     1      47.247   4.042  15.816  0.00  0.00    +0.000 A 
BRANCH   3  10
ATOM      9  N   UNL     1      47.901   4.695  19.170  0.00  0.00    +0.000 N 
ATOM     10  C   UNL     1      48.326   4.028  18.054  0.00  0.00    +0.000 C 
ATOM     11  O   UNL     1      48.849   2.925  18.138  0.00  0.00    +0.000 OA
ATOM     12  H   UNL     1      47.974   4.191  20.045  0.00  0.00    +0.000 HD
ATOM     13  H   UNL     1      47.250   5.466  19.126  0.00  0.00    +0.000 HD
ENDBRANCH   3  10
ENDBRANCH   2   6
ENDBRANCH   1   2
BRANCH   1  14
ATOM     14  C   UNL     1      45.629   6.561  11.229  0.00  0.00    +0.000 C 
BRANCH  14  15
ATOM     15  C   UNL     1      45.214   5.209  10.703  0.00  0.00    +0.000 A 
ATOM     16  C   UNL     1      44.577   4.285  11.539  0.00  0.00    +0.000 A 
ATOM     17  C   UNL     1      44.157   3.052  11.035  0.00  0.00    +0.000 A 
ATOM     18  C   UNL     1      44.368   2.726   9.694  0.00  0.00    +0.000 A 
ATOM     19  C   UNL     1      45.000   3.639   8.853  0.00  0.00    +0.000 A 
ATOM     20  C   UNL     1      45.411   4.878   9.354  0.00  0.00    +0.000 A 
BRANCH  19  21
ATOM     21  O   UNL     1      45.223   3.442   7.514  0.00  0.00    +0.000 OA
BRANCH  21  22
ATOM     22  C   UNL     1      46.582   3.301   7.041  0.00  0.00    +0.000 C 
ATOM     23  C   UNL     1      46.775   3.024   5.532  0.00  0.00    +0.000 C 
ATOM     24  C   UNL     1      47.718   1.867   5.880  0.00  0.00    +0.000 C 
ATOM     25  C   UNL     1      47.202   1.911   7.323  0.00  0.00    +0.000 C 
ENDBRANCH  21  22
ENDBRANCH  19  21
ENDBRANCH  14  15
ENDBRANCH   1  14
TORSDOF 7
ENDMDL
MODEL 6
REMARK VINA RESULT:    -6.476      3.706      8.370
REMARK INTER + INTRA:         -10.274
REMARK INTER:                  -9.570
REMARK INTRA:                  -0.704
REMARK UNBOUND:                -1.148
REMARK  Name = 
REMARK  7 active torsions:
REMARK  status: ('A' for Active; 'I' for Inactive)
REMARK    1  A    between atoms: C_2  and  C_4
REMARK    2  A    between atoms: C_7  and  O_8
REMARK    3  A    between atoms: O_8  and  C_9
REMARK    4  A    between atoms: C_9  and  C_10
REMARK    5  A    between atoms: C_10  and  C_11
REMARK    6  A    between atoms: C_15  and  O_16
REMARK    7  A    between atoms: O_16  and  C_17
REMARK                            x       y       z     vdW  Elec       q    Type
REMARK                         _______ _______ _______ _____ _____    ______ ____
ROOT
ATOM      1  C   UNL     1      46.806   3.958  14.165  0.00  0.00    +0.000 C 
ENDROOT
BRANCH   1   2
ATOM      2  O   UNL     1      46.687   4.012  15.589  0.00  0.00    +0.000 OA
BRANCH   2   6
ATOM      3  C   UNL     1      50.250   4.074  17.768  0.00  0.00    +0.000 A 
ATOM      4  C   UNL     1      49.739   5.282  17.286  0.00  0.00    +0.000 A 
ATOM      5  C   UNL     1      48.548   5.300  16.552  0.00  0.00    +0.000 A 
ATOM      6  C   UNL     1      47.860   4.114  16.289  0.00  0.00    +0.000 A 
ATOM      7  C   UNL     1      48.382   2.904  16.759  0.00  0.00    +0.000 A 
ATOM      8  C   UNL     1      49.575   2.880  17.489  0.00  0.00    +0.000 A 
BRANCH   3  10
ATOM      9  N   UNL     1      51.415   4.234  19.899  0.00  0.00    +0.000 N 
ATOM     10  C   UNL     1      51.510   4.019  18.552  0.00  0.00    +0.000 C 
ATOM     11  O   UNL     1      52.584   3.753  18.029  0.00  0.00    +0.000 OA
ATOM     12  H   UNL     1      52.261   4.086  20.436  0.00  0.00    +0.000 HD
ATOM     13  H   UNL     1      50.535   4.201  20.394  0.00  0.00    +0.000 HD
ENDBRANCH   3  10
ENDBRANCH   2   6
ENDBRANCH   1   2
BRANCH   1  14
ATOM     14  C   UNL     1      46.264   5.253  13.562  0.00  0.00    +0.000 C 
BRANCH  14  15
ATOM     15  C   UNL     1      45.316   4.973  12.422  0.00  0.00    +0.000 A 
ATOM     16  C   UNL     1      43.958   4.739  12.668  0.00  0.00    +0.000 A 
ATOM     17  C   UNL     1      43.077   4.522  11.607  0.00  0.00    +0.000 A 
ATOM     18  C   UNL     1      43.539   4.536  10.289  0.00  0.00    +0.000 A 
ATOM     19  C   UNL     1      44.888   4.769  10.034  0.00  0.00    +0.000 A 
ATOM     20  C   UNL     1      45.768   4.998  11.095  0.00  0.00    +0.000 A 
BRANCH  19  21
ATOM     21  O   UNL     1      45.444   4.845   8.781  0.00  0.00    +0.000 OA
BRANCH  21  22
ATOM     22  C   UNL     1      45.397   3.684   7.920  0.00  0.00    +0.000 C 
ATOM     23  C   UNL     1      45.794   2.328   8.548  0.00  0.00    +0.000 C 
ATOM     24  C   UNL     1      46.727   2.068   7.361  0.00  0.00    +0.000 C 
ATOM     25  C   UNL     1      46.621   3.550   6.983  0.00  0.00    +0.000 C 
ENDBRANCH  21  22
ENDBRANCH  19  21
ENDBRANCH  14  15
ENDBRANCH   1  14
TORSDOF 7
ENDMDL
MODEL 7
REMARK VINA RESULT:    -6.334      3.456      7.329
REMARK INTER + INTRA:         -10.074
REMARK INTER:                  -8.912
REMARK INTRA:                  -1.162
REMARK UNBOUND:                -1.148
REMARK  Name = 
REMARK  7 active torsions:
REMARK  status: ('A' for Active; 'I' for Inactive)
REMARK    1  A    between atoms: C_2  and  C_4
REMARK    2  A    between atoms: C_7  and  O_8
REMARK    3  A    between atoms: O_8  and  C_9
REMARK    4  A    between atoms: C_9  and  C_10
REMARK    5  A    between atoms: C_10  and  C_11
REMARK    6  A    between atoms: C_15  and  O_16
REMARK    7  A    between atoms: O_16  and  C_17
REMARK                            x       y       z     vdW  Elec       q    Type
REMARK                         _______ _______ _______ _____ _____    ______ ____
ROOT
ATOM      1  C   UNL     1      47.088   5.294  14.045  0.00  0.00    +0.000 C 
ENDROOT
BRANCH   1   2
ATOM      2  O   UNL     1      47.727   5.927  12.933  0.00  0.00    +0.000 OA
BRANCH   2   6
ATOM      3  C   UNL     1      46.756   9.887  12.029  0.00  0.00    +0.000 A 
ATOM      4  C   UNL     1      45.762   9.058  12.555  0.00  0.00    +0.000 A 
ATOM      5  C   UNL     1      46.050   7.726  12.870  0.00  0.00    +0.000 A 
ATOM      6  C   UNL     1      47.330   7.209  12.659  0.00  0.00    +0.000 A 
ATOM      7  C   UNL     1      48.319   8.036  12.116  0.00  0.00    +0.000 A 
ATOM      8  C   UNL     1      48.035   9.369  11.796  0.00  0.00    +0.000 A 
BRANCH   3  10
ATOM      9  N   UNL     1      45.326  11.853  12.166  0.00  0.00    +0.000 N 
ATOM     10  C   UNL     1      46.485  11.307  11.686  0.00  0.00    +0.000 C 
ATOM     11  O   UNL     1      47.277  11.977  11.037  0.00  0.00    +0.000 OA
ATOM     12  H   UNL     1      45.207  12.848  12.018  0.00  0.00    +0.000 HD
ATOM     13  H   UNL     1      44.787  11.421  12.902  0.00  0.00    +0.000 HD
ENDBRANCH   3  10
ENDBRANCH   2   6
ENDBRANCH   1   2
BRANCH   1  14
ATOM     14  C   UNL     1      46.640   3.890  13.640  0.00  0.00    +0.000 C 
BRANCH  14  15
ATOM     15  C   UNL     1      45.428   3.938  12.744  0.00  0.00    +0.000 A 
ATOM     16  C   UNL     1      44.277   4.630  13.140  0.00  0.00    +0.000 A 
ATOM     17  C   UNL     1      43.173   4.707  12.288  0.00  0.00    +0.000 A 
ATOM     18  C   UNL     1      43.203   4.096  11.033  0.00  0.00    +0.000 A 
ATOM     19  C   UNL     1      44.343   3.407  10.629  0.00  0.00    +0.000 A 
ATOM     20  C   UNL     1      45.453   3.339  11.476  0.00  0.00    +0.000 A 
BRANCH  19  21
ATOM     21  O   UNL     1      44.499   2.804   9.406  0.00  0.00    +0.000 OA
BRANCH  21  22
ATOM     22  C   UNL     1      45.801   2.812   8.778  0.00  0.00    +0.000 C 
ATOM     23  C   UNL     1      45.906   3.482   7.388  0.00  0.00    +0.000 C 
ATOM     24  C   UNL     1      46.644   2.245   6.864  0.00  0.00    +0.000 C 
ATOM     25  C   UNL     1      46.179   1.472   8.104  0.00  0.00    +0.000 C 
ENDBRANCH  21  22
ENDBRANCH  19  21
ENDBRANCH  14  15
ENDBRANCH   1  14
TORSDOF 7
ENDMDL
MODEL 8
REMARK VINA RESULT:    -6.281      3.631      8.572
REMARK INTER + INTRA:          -9.999
REMARK INTER:                  -9.304
REMARK INTRA:                  -0.695
REMARK UNBOUND:                -1.148
REMARK  Name = 
REMARK  7 active torsions:
REMARK  status: ('A' for Active; 'I' for Inactive)
REMARK    1  A    between atoms: C_2  and  C_4
REMARK    2  A    between atoms: C_7  and  O_8
REMARK    3  A    between atoms: O_8  and  C_9
REMARK    4  A    between atoms: C_9  and  C_10
REMARK    5  A    between atoms: C_10  and  C_11
REMARK    6  A    between atoms: C_15  and  O_16
REMARK    7  A    between atoms: O_16  and  C_17
REMARK                            x       y       z     vdW  Elec       q    Type
REMARK                         _______ _______ _______ _____ _____    ______ ____
ROOT
ATOM      1  C   UNL     1      47.386   5.041  13.889  0.00  0.00    +0.000 C 
ENDROOT
BRANCH   1   2
ATOM      2  O   UNL     1      46.944   4.147  14.913  0.00  0.00    +0.000 OA
BRANCH   2   6
ATOM      3  C   UNL     1      48.630   4.386  18.727  0.00  0.00    +0.000 A 
ATOM      4  C   UNL     1      48.846   5.438  17.833  0.00  0.00    +0.000 A 
ATOM      5  C   UNL     1      48.297   5.393  16.546  0.00  0.00    +0.000 A 
ATOM      6  C   UNL     1      47.533   4.297  16.141  0.00  0.00    +0.000 A 
ATOM      7  C   UNL     1      47.332   3.237  17.032  0.00  0.00    +0.000 A 
ATOM      8  C   UNL     1      47.882   3.276  18.318  0.00  0.00    +0.000 A 
BRANCH   3  10
ATOM      9  N   UNL     1      50.538   4.640  20.218  0.00  0.00    +0.000 N 
ATOM     10  C   UNL     1      49.196   4.403  20.100  0.00  0.00    +0.000 C 
ATOM     11  O   UNL     1      48.492   4.254  21.090  0.00  0.00    +0.000 OA
ATOM     12  H   UNL     1      50.889   4.759  21.160  0.00  0.00    +0.000 HD
ATOM     13  H   UNL     1      51.091   5.016  19.461  0.00  0.00    +0.000 HD
ENDBRANCH   3  10
ENDBRANCH   2   6
ENDBRANCH   1   2
BRANCH   1  14
ATOM     14  C   UNL     1      46.237   5.966  13.491  0.00  0.00    +0.000 C 
BRANCH  14  15
ATOM     15  C   UNL     1      45.173   5.221  12.724  0.00  0.00    +0.000 A 
ATOM     16  C   UNL     1      43.828   5.592  12.831  0.00  0.00    +0.000 A 
ATOM     17  C   UNL     1      42.852   4.926  12.087  0.00  0.00    +0.000 A 
ATOM     18  C   UNL     1      43.205   3.884  11.228  0.00  0.00    +0.000 A 
ATOM     19  C   UNL     1      44.541   3.507  11.113  0.00  0.00    +0.000 A 
ATOM     20  C   UNL     1      45.520   4.180  11.850  0.00  0.00    +0.000 A 
BRANCH  19  21
ATOM     21  O   UNL     1      45.007   2.526  10.274  0.00  0.00    +0.000 OA
BRANCH  21  22
ATOM     22  C   UNL     1      44.952   2.739   8.845  0.00  0.00    +0.000 C 
ATOM     23  C   UNL     1      46.090   2.122   8.000  0.00  0.00    +0.000 C 
ATOM     24  C   UNL     1      46.280   3.471   7.298  0.00  0.00    +0.000 C 
ATOM     25  C   UNL     1      45.449   4.136   8.402  0.00  0.00    +0.000 C 
ENDBRANCH  21  22
ENDBRANCH  19  21
ENDBRANCH  14  15
ENDBRANCH   1  14
TORSDOF 7
ENDMDL
MODEL 9
REMARK VINA RESULT:    -6.121      3.115      7.437
REMARK INTER + INTRA:          -9.773
REMARK INTER:                  -9.004
REMARK INTRA:                  -0.769
REMARK UNBOUND:                -1.148
REMARK  Name = 
REMARK  7 active torsions:
REMARK  status: ('A' for Active; 'I' for Inactive)
REMARK    1  A    between atoms: C_2  and  C_4
REMARK    2  A    between atoms: C_7  and  O_8
REMARK    3  A    between atoms: O_8  and  C_9
REMARK    4  A    between atoms: C_9  and  C_10
REMARK    5  A    between atoms: C_10  and  C_11
REMARK    6  A    between atoms: C_15  and  O_16
REMARK    7  A    between atoms: O_16  and  C_17
REMARK                            x       y       z     vdW  Elec       q    Type
REMARK                         _______ _______ _______ _____ _____    ______ ____
ROOT
ATOM      1  C   UNL     1      44.914   6.585  12.663  0.00  0.00    +0.000 C 
ENDROOT
BRANCH   1   2
ATOM      2  O   UNL     1      46.087   5.774  12.557  0.00  0.00    +0.000 OA
BRANCH   2   6
ATOM      3  C   UNL     1      49.729   7.801  12.812  0.00  0.00    +0.000 A 
ATOM      4  C   UNL     1      49.256   7.131  13.943  0.00  0.00    +0.000 A 
ATOM      5  C   UNL     1      48.039   6.441  13.895  0.00  0.00    +0.000 A 
ATOM      6  C   UNL     1      47.284   6.418  12.721  0.00  0.00    +0.000 A 
ATOM      7  C   UNL     1      47.752   7.104  11.595  0.00  0.00    +0.000 A 
ATOM      8  C   UNL     1      48.966   7.799  11.639  0.00  0.00    +0.000 A 
BRANCH   3  10
ATOM      9  N   UNL     1      52.023   8.058  12.038  0.00  0.00    +0.000 N 
ATOM     10  C   UNL     1      51.017   8.542  12.828  0.00  0.00    +0.000 C 
ATOM     11  O   UNL     1      51.166   9.563  13.485  0.00  0.00    +0.000 OA
ATOM     12  H   UNL     1      52.855   8.632  11.973  0.00  0.00    +0.000 HD
ATOM     13  H   UNL     1      51.860   7.385  11.302  0.00  0.00    +0.000 HD
ENDBRANCH   3  10
ENDBRANCH   2   6
ENDBRANCH   1   2
BRANCH   1  14
ATOM     14  C   UNL     1      44.077   6.437  11.394  0.00  0.00    +0.000 C 
BRANCH  14  15
ATOM     15  C   UNL     1      44.372   5.135  10.691  0.00  0.00    +0.000 A 
ATOM     16  C   UNL     1      43.805   3.938  11.146  0.00  0.00    +0.000 A 
ATOM     17  C   UNL     1      44.047   2.742  10.467  0.00  0.00    +0.000 A 
ATOM     18  C   UNL     1      44.856   2.725   9.328  0.00  0.00    +0.000 A 
ATOM     19  C   UNL     1      45.423   3.910   8.867  0.00  0.00    +0.000 A 
ATOM     20  C   UNL     1      45.172   5.110   9.540  0.00  0.00    +0.000 A 
BRANCH  19  21
ATOM     21  O   UNL     1      46.199   4.018   7.740  0.00  0.00    +0.000 OA
BRANCH  21  22
ATOM     22  C   UNL     1      46.456   2.837   6.948  0.00  0.00    +0.000 C 
ATOM     23  C   UNL     1      47.906   2.299   6.940  0.00  0.00    +0.000 C 
ATOM     24  C   UNL     1      47.857   2.231   5.410  0.00  0.00    +0.000 C 
ATOM     25  C   UNL     1      46.607   3.120   5.434  0.00  0.00    +0.000 C 
ENDBRANCH  21  22
ENDBRANCH  19  21
ENDBRANCH  14  15
ENDBRANCH   1  14
TORSDOF 7
ENDMDL
