MODEL 1
REMARK VINA RESULT:    -7.869      0.000      0.000
REMARK INTER + INTRA:         -10.648
REMARK INTER:                  -9.708
REMARK INTRA:                  -0.940
REMARK UNBOUND:                -0.940
REMARK  Name = 
REMARK  5 active torsions:
REMARK  status: ('A' for Active; 'I' for Inactive)
REMARK    1  A    between atoms: C_1  and  C_2
REMARK    2  A    between atoms: C_8  and  N_9
REMARK    3  A    between atoms: N_9  and  C_10
REMARK    4  A    between atoms: C_10  and  C_11
REMARK    5  A    between atoms: C_15  and  C_16
REMARK                            x       y       z     vdW  Elec       q    Type
REMARK                         _______ _______ _______ _____ _____    ______ ____
ROOT
ATOM      1  C   UNL     1      46.202   7.160  12.331  0.00  0.00    +0.000 C 
ATOM      2  C   UNL     1      46.438   8.591  11.823  0.00  0.00    +0.000 C 
ATOM      3  C   UNL     1      45.542   8.360  12.988  0.00  0.00    +0.000 C 
ENDROOT
BRANCH   1   4
ATOM      4  C   UNL     1      45.302   6.274  11.467  0.00  0.00    +0.000 A 
ATOM      5  C   UNL     1      43.917   6.207  11.637  0.00  0.00    +0.000 A 
ATOM      6  C   UNL     1      43.182   5.317  10.867  0.00  0.00    +0.000 A 
ATOM      7  N   UNL     1      43.718   4.496   9.944  0.00  0.00    +0.000 NA
ATOM      8  C   UNL     1      45.059   4.555   9.758  0.00  0.00    +0.000 A 
ATOM      9  C   UNL     1      45.858   5.440  10.487  0.00  0.00    +0.000 A 
BRANCH   8  10
ATOM     10  C   UNL     1      45.626   3.639   8.748  0.00  0.00    +0.000 A 
ATOM     11  C   UNL     1      46.209   4.130   7.568  0.00  0.00    +0.000 A 
ATOM     12  C   UNL     1      46.798   3.271   6.634  0.00  0.00    +0.000 A 
ATOM     13  C   UNL     1      46.809   1.897   6.857  0.00  0.00    +0.000 A 
ATOM     14  C   UNL     1      46.213   1.379   8.001  0.00  0.00    +0.000 A 
ATOM     15  C   UNL     1      45.622   2.241   8.931  0.00  0.00    +0.000 A 
ENDBRANCH   8  10
ENDBRANCH   1   4
BRANCH   1  16
ATOM     16  N   UNL     1      47.448   6.520  12.786  0.00  0.00    +0.000 N 
ATOM     17  H   UNL     1      47.845   5.900  12.078  0.00  0.00    +0.000 HD
BRANCH  16  25
ATOM     18  C   UNL     1      46.277   3.747  13.496  0.00  0.00    +0.000 C 
ATOM     19  C   UNL     1      47.144   4.600  14.364  0.00  0.00    +0.000 A 
ATOM     20  C   UNL     1      47.338   4.181  15.697  0.00  0.00    +0.000 A 
ATOM     21  C   UNL     1      48.092   4.945  16.574  0.00  0.00    +0.000 A 
ATOM     22 CL   UNL     1      48.294   4.476  18.210  0.00  0.00    +0.000 Cl
ATOM     23  C   UNL     1      48.651   6.108  16.090  0.00  0.00    +0.000 A 
ATOM     24  N   UNL     1      48.464   6.552  14.823  0.00  0.00    +0.000 NA
ATOM     25  C   UNL     1      47.706   5.818  13.966  0.00  0.00    +0.000 A 
ENDBRANCH  16  25
ENDBRANCH   1  16
TORSDOF 4
ENDMDL
MODEL 2
REMARK VINA RESULT:    -7.592      3.016      6.687
REMARK INTER + INTRA:         -10.307
REMARK INTER:                  -9.976
REMARK INTRA:                  -0.331
REMARK UNBOUND:                -0.940
REMARK  Name = 
REMARK  5 active torsions:
REMARK  status: ('A' for Active; 'I' for Inactive)
REMARK    1  A    between atoms: C_1  and  C_2
REMARK    2  A    between atoms: C_8  and  N_9
REMARK    3  A    between atoms: N_9  and  C_10
REMARK    4  A    between atoms: C_10  and  C_11
REMARK    5  A    between atoms: C_15  and  C_16
REMARK                            x       y       z     vdW  Elec       q    Type
REMARK                         _______ _______ _______ _____ _____    ______ ____
ROOT
ATOM      1  C   UNL     1      44.011   5.135  11.073  0.00  0.00    +0.000 C 
ATOM      2  C   UNL     1      42.786   4.371  11.599  0.00  0.00    +0.000 C 
ATOM      3  C   UNL     1      42.863   5.847  11.768  0.00  0.00    +0.000 C 
ENDROOT
BRANCH   1   4
ATOM      4  C   UNL     1      45.304   4.979  11.877  0.00  0.00    +0.000 A 
ATOM      5  C   UNL     1      45.563   3.870  12.686  0.00  0.00    +0.000 A 
ATOM      6  C   UNL     1      46.722   3.842  13.448  0.00  0.00    +0.000 A 
ATOM      7  N   UNL     1      47.640   4.829  13.462  0.00  0.00    +0.000 NA
ATOM      8  C   UNL     1      47.410   5.908  12.676  0.00  0.00    +0.000 A 
ATOM      9  C   UNL     1      46.270   5.994  11.871  0.00  0.00    +0.000 A 
BRANCH   8  10
ATOM     10  C   UNL     1      48.423   6.982  12.716  0.00  0.00    +0.000 A 
ATOM     11  C   UNL     1      48.748   7.716  11.563  0.00  0.00    +0.000 A 
ATOM     12  C   UNL     1      49.665   8.772  11.606  0.00  0.00    +0.000 A 
ATOM     13  C   UNL     1      50.286   9.110  12.806  0.00  0.00    +0.000 A 
ATOM     14  C   UNL     1      50.007   8.381  13.956  0.00  0.00    +0.000 A 
ATOM     15  C   UNL     1      49.092   7.324  13.908  0.00  0.00    +0.000 A 
ENDBRANCH   8  10
ENDBRANCH   1   4
BRANCH   1  16
ATOM     16  N   UNL     1      44.168   4.996   9.615  0.00  0.00    +0.000 N 
ATOM     17  H   UNL     1      43.270   4.979   9.130  0.00  0.00    +0.000 HD
BRANCH  16  25
ATOM     18  C   UNL     1      44.031   1.930   9.995  0.00  0.00    +0.000 C 
ATOM     19  C   UNL     1      44.939   2.677   9.073  0.00  0.00    +0.000 A 
ATOM     20  C   UNL     1      45.940   1.936   8.408  0.00  0.00    +0.000 A 
ATOM     21  C   UNL     1      46.847   2.568   7.573  0.00  0.00    +0.000 A 
ATOM     22 CL   UNL     1      48.100   1.690   6.800  0.00  0.00    +0.000 Cl
ATOM     23  C   UNL     1      46.722   3.930   7.407  0.00  0.00    +0.000 A 
ATOM     24  N   UNL     1      45.789   4.675   8.049  0.00  0.00    +0.000 NA
ATOM     25  C   UNL     1      44.911   4.063   8.888  0.00  0.00    +0.000 A 
ENDBRANCH  16  25
ENDBRANCH   1  16
TORSDOF 4
ENDMDL
MODEL 3
REMARK VINA RESULT:    -7.502      2.863      4.376
REMARK INTER + INTRA:         -10.195
REMARK INTER:                  -9.315
REMARK INTRA:                  -0.881
REMARK UNBOUND:                -0.940
REMARK  Name = 
REMARK  5 active torsions:
REMARK  status: ('A' for Active; 'I' for Inactive)
REMARK    1  A    between atoms: C_1  and  C_2
REMARK    2  A    between atoms: C_8  and  N_9
REMARK    3  A    between atoms: N_9  and  C_10
REMARK    4  A    between atoms: C_10  and  C_11
REMARK    5  A    between atoms: C_15  and  C_16
REMARK                            x       y       z     vdW  Elec       q    Type
REMARK                         _______ _______ _______ _____ _____    ______ ____
ROOT
ATOM      1  C   UNL     1      45.789   5.338  13.041  0.00  0.00    +0.000 C 
ATOM      2  C   UNL     1      46.236   4.692  14.362  0.00  0.00    +0.000 C 
ATOM      3  C   UNL     1      47.247   5.025  13.323  0.00  0.00    +0.000 C 
ENDROOT
BRANCH   1   4
ATOM      4  C   UNL     1      45.074   4.421  12.046  0.00  0.00    +0.000 A 
ATOM      5  C   UNL     1      43.845   3.817  12.321  0.00  0.00    +0.000 A 
ATOM      6  C   UNL     1      43.302   2.933  11.400  0.00  0.00    +0.000 A 
ATOM      7  N   UNL     1      43.885   2.611  10.230  0.00  0.00    +0.000 NA
ATOM      8  C   UNL     1      45.074   3.196   9.941  0.00  0.00    +0.000 A 
ATOM      9  C   UNL     1      45.669   4.107  10.817  0.00  0.00    +0.000 A 
BRANCH   8  10
ATOM     10  C   UNL     1      45.700   2.819   8.657  0.00  0.00    +0.000 A 
ATOM     11  C   UNL     1      45.923   3.774   7.651  0.00  0.00    +0.000 A 
ATOM     12  C   UNL     1      46.567   3.435   6.456  0.00  0.00    +0.000 A 
ATOM     13  C   UNL     1      46.994   2.128   6.238  0.00  0.00    +0.000 A 
ATOM     14  C   UNL     1      46.761   1.156   7.203  0.00  0.00    +0.000 A 
ATOM     15  C   UNL     1      46.113   1.497   8.395  0.00  0.00    +0.000 A 
ENDBRANCH   8  10
ENDBRANCH   1   4
BRANCH   1  16
ATOM     16  N   UNL     1      45.143   6.645  13.253  0.00  0.00    +0.000 N 
ATOM     17  H   UNL     1      44.127   6.566  13.330  0.00  0.00    +0.000 HD
BRANCH  16  25
ATOM     18  C   UNL     1      47.359   8.748  13.733  0.00  0.00    +0.000 C 
ATOM     19  C   UNL     1      46.226   8.848  12.763  0.00  0.00    +0.000 A 
ATOM     20  C   UNL     1      46.052  10.079  12.095  0.00  0.00    +0.000 A 
ATOM     21  C   UNL     1      44.996  10.261  11.216  0.00  0.00    +0.000 A 
ATOM     22 CL   UNL     1      44.741  11.765  10.437  0.00  0.00    +0.000 Cl
ATOM     23  C   UNL     1      44.145   9.196  11.011  0.00  0.00    +0.000 A 
ATOM     24  N   UNL     1      44.269   8.010  11.654  0.00  0.00    +0.000 NA
ATOM     25  C   UNL     1      45.289   7.835  12.535  0.00  0.00    +0.000 A 
ENDBRANCH  16  25
ENDBRANCH   1  16
TORSDOF 4
ENDMDL
MODEL 4
REMARK VINA RESULT:    -6.769      1.510      2.607
REMARK INTER + INTRA:          -9.291
REMARK INTER:                  -8.463
REMARK INTRA:                  -0.828
REMARK UNBOUND:                -0.940
REMARK  Name = 
REMARK  5 active torsions:
REMARK  status: ('A' for Active; 'I' for Inactive)
REMARK    1  A    between atoms: C_1  and  C_2
REMARK    2  A    between atoms: C_8  and  N_9
REMARK    3  A    between atoms: N_9  and  C_10
REMARK    4  A    between atoms: C_10  and  C_11
REMARK    5  A    between atoms: C_15  and  C_16
REMARK                            x       y       z     vdW  Elec       q    Type
REMARK                         _______ _______ _______ _____ _____    ______ ____
ROOT
ATOM      1  C   UNL     1      48.212   7.986  12.806  0.00  0.00    +0.000 C 
ATOM      2  C   UNL     1      49.234   8.748  11.946  0.00  0.00    +0.000 C 
ATOM      3  C   UNL     1      48.546   9.444  13.066  0.00  0.00    +0.000 C 
ENDROOT
BRANCH   1   4
ATOM      4  C   UNL     1      46.856   7.703  12.154  0.00  0.00    +0.000 A 
ATOM      5  C   UNL     1      45.761   8.562  12.279  0.00  0.00    +0.000 A 
ATOM      6  C   UNL     1      44.543   8.193  11.727  0.00  0.00    +0.000 A 
ATOM      7  N   UNL     1      44.335   7.041  11.061  0.00  0.00    +0.000 NA
ATOM      8  C   UNL     1      45.388   6.200  10.920  0.00  0.00    +0.000 A 
ATOM      9  C   UNL     1      46.647   6.517  11.438  0.00  0.00    +0.000 A 
BRANCH   8  10
ATOM     10  C   UNL     1      45.134   4.938  10.195  0.00  0.00    +0.000 A 
ATOM     11  C   UNL     1      45.601   4.749   8.884  0.00  0.00    +0.000 A 
ATOM     12  C   UNL     1      45.413   3.536   8.212  0.00  0.00    +0.000 A 
ATOM     13  C   UNL     1      44.743   2.487   8.837  0.00  0.00    +0.000 A 
ATOM     14  C   UNL     1      44.244   2.656  10.123  0.00  0.00    +0.000 A 
ATOM     15  C   UNL     1      44.431   3.871  10.790  0.00  0.00    +0.000 A 
ENDBRANCH   8  10
ENDBRANCH   1   4
BRANCH   1  16
ATOM     16  N   UNL     1      48.817   6.837  13.500  0.00  0.00    +0.000 N 
ATOM     17  H   UNL     1      49.049   6.077  12.860  0.00  0.00    +0.000 HD
BRANCH  16  25
ATOM     18  C   UNL     1      49.570   7.511  16.423  0.00  0.00    +0.000 C 
ATOM     19  C   UNL     1      48.736   6.362  15.957  0.00  0.00    +0.000 A 
ATOM     20  C   UNL     1      48.368   5.397  16.918  0.00  0.00    +0.000 A 
ATOM     21  C   UNL     1      47.634   4.280  16.551  0.00  0.00    +0.000 A 
ATOM     22 CL   UNL     1      47.224   3.073  17.696  0.00  0.00    +0.000 Cl
ATOM     23  C   UNL     1      47.269   4.163  15.227  0.00  0.00    +0.000 A 
ATOM     24  N   UNL     1      47.626   5.058  14.275  0.00  0.00    +0.000 NA
ATOM     25  C   UNL     1      48.366   6.143  14.626  0.00  0.00    +0.000 A 
ENDBRANCH  16  25
ENDBRANCH   1  16
TORSDOF 4
ENDMDL
MODEL 5
REMARK VINA RESULT:    -6.408      1.970      3.538
REMARK INTER + INTRA:          -8.846
REMARK INTER:                  -7.907
REMARK INTRA:                  -0.938
REMARK UNBOUND:                -0.940
REMARK  Name = 
REMARK  5 active torsions:
REMARK  status: ('A' for Active; 'I' for Inactive)
REMARK    1  A    between atoms: C_1  and  C_2
REMARK    2  A    between atoms: C_8  and  N_9
REMARK    3  A    between atoms: N_9  and  C_10
REMARK    4  A    between atoms: C_10  and  C_11
REMARK    5  A    between atoms: C_15  and  C_16
REMARK                            x       y       z     vdW  Elec       q    Type
REMARK                         _______ _______ _______ _____ _____    ______ ____
ROOT
ATOM      1  C   UNL     1      49.249   8.038  12.757  0.00  0.00    +0.000 C 
ATOM      2  C   UNL     1      50.232   8.008  11.576  0.00  0.00    +0.000 C 
ATOM      3  C   UNL     1      49.937   9.296  12.259  0.00  0.00    +0.000 C 
ENDROOT
BRANCH   1   4
ATOM      4  C   UNL     1      47.767   7.887  12.409  0.00  0.00    +0.000 A 
ATOM      5  C   UNL     1      46.797   8.809  12.810  0.00  0.00    +0.000 A 
ATOM      6  C   UNL     1      45.463   8.558  12.525  0.00  0.00    +0.000 A 
ATOM      7  N   UNL     1      45.024   7.466  11.870  0.00  0.00    +0.000 NA
ATOM      8  C   UNL     1      45.952   6.565  11.464  0.00  0.00    +0.000 A 
ATOM      9  C   UNL     1      47.314   6.764  11.704  0.00  0.00    +0.000 A 
BRANCH   8  10
ATOM     10  C   UNL     1      45.447   5.370  10.758  0.00  0.00    +0.000 A 
ATOM     11  C   UNL     1      44.788   4.341  11.452  0.00  0.00    +0.000 A 
ATOM     12  C   UNL     1      44.257   3.234  10.781  0.00  0.00    +0.000 A 
ATOM     13  C   UNL     1      44.383   3.128   9.398  0.00  0.00    +0.000 A 
ATOM     14  C   UNL     1      45.056   4.115   8.689  0.00  0.00    +0.000 A 
ATOM     15  C   UNL     1      45.588   5.219   9.363  0.00  0.00    +0.000 A 
ENDBRANCH   8  10
ENDBRANCH   1   4
BRANCH   1  16
ATOM     16  N   UNL     1      49.709   7.206  13.882  0.00  0.00    +0.000 N 
ATOM     17  H   UNL     1      49.894   6.242  13.600  0.00  0.00    +0.000 HD
BRANCH  16  25
ATOM     18  C   UNL     1      49.503   9.405  16.047  0.00  0.00    +0.000 C 
ATOM     19  C   UNL     1      49.095   7.974  16.185  0.00  0.00    +0.000 A 
ATOM     20  C   UNL     1      48.710   7.531  17.468  0.00  0.00    +0.000 A 
ATOM     21  C   UNL     1      48.362   6.206  17.681  0.00  0.00    +0.000 A 
ATOM     22 CL   UNL     1      47.943   5.641  19.244  0.00  0.00    +0.000 Cl
ATOM     23  C   UNL     1      48.391   5.355  16.598  0.00  0.00    +0.000 A 
ATOM     24  N   UNL     1      48.779   5.743  15.358  0.00  0.00    +0.000 NA
ATOM     25  C   UNL     1      49.144   7.036  15.149  0.00  0.00    +0.000 A 
ENDBRANCH  16  25
ENDBRANCH   1  16
TORSDOF 4
ENDMDL
MODEL 6
REMARK VINA RESULT:    -6.080      2.679      6.619
REMARK INTER + INTRA:          -8.442
REMARK INTER:                  -7.407
REMARK INTRA:                  -1.035
REMARK UNBOUND:                -0.940
REMARK  Name = 
REMARK  5 active torsions:
REMARK  status: ('A' for Active; 'I' for Inactive)
REMARK    1  A    between atoms: C_1  and  C_2
REMARK    2  A    between atoms: C_8  and  N_9
REMARK    3  A    between atoms: N_9  and  C_10
REMARK    4  A    between atoms: C_10  and  C_11
REMARK    5  A    between atoms: C_15  and  C_16
REMARK                            x       y       z     vdW  Elec       q    Type
REMARK                         _______ _______ _______ _____ _____    ______ ____
ROOT
ATOM      1  C   UNL     1      45.340   7.841  12.010  0.00  0.00    +0.000 C 
ATOM      2  C   UNL     1      44.767   9.170  12.527  0.00  0.00    +0.000 C 
ATOM      3  C   UNL     1      45.344   9.098  11.158  0.00  0.00    +0.000 C 
ENDROOT
BRANCH   1   4
ATOM      4  C   UNL     1      46.686   7.410  12.597  0.00  0.00    +0.000 A 
ATOM      5  C   UNL     1      47.905   7.660  11.961  0.00  0.00    +0.000 A 
ATOM      6  C   UNL     1      49.075   7.165  12.518  0.00  0.00    +0.000 A 
ATOM      7  N   UNL     1      49.123   6.446  13.655  0.00  0.00    +0.000 NA
ATOM      8  C   UNL     1      47.952   6.201  14.292  0.00  0.00    +0.000 A 
ATOM      9  C   UNL     1      46.738   6.685  13.795  0.00  0.00    +0.000 A 
BRANCH   8  10
ATOM     10  C   UNL     1      48.028   5.402  15.531  0.00  0.00    +0.000 A 
ATOM     11  C   UNL     1      48.919   5.745  16.562  0.00  0.00    +0.000 A 
ATOM     12  C   UNL     1      48.956   5.026  17.762  0.00  0.00    +0.000 A 
ATOM     13  C   UNL     1      48.107   3.939  17.952  0.00  0.00    +0.000 A 
ATOM     14  C   UNL     1      47.236   3.558  16.938  0.00  0.00    +0.000 A 
ATOM     15  C   UNL     1      47.204   4.277  15.739  0.00  0.00    +0.000 A 
ENDBRANCH   8  10
ENDBRANCH   1   4
BRANCH   1  16
ATOM     16  N   UNL     1      44.320   6.780  11.957  0.00  0.00    +0.000 N 
ATOM     17  H   UNL     1      44.006   6.499  12.887  0.00  0.00    +0.000 HD
BRANCH  16  25
ATOM     18  C   UNL     1      43.321   4.086  13.100  0.00  0.00    +0.000 C 
ATOM     19  C   UNL     1      43.973   4.308  11.773  0.00  0.00    +0.000 A 
ATOM     20  C   UNL     1      44.304   3.165  11.015  0.00  0.00    +0.000 A 
ATOM     21  C   UNL     1      44.952   3.291   9.796  0.00  0.00    +0.000 A 
ATOM     22 CL   UNL     1      45.408   1.911   8.888  0.00  0.00    +0.000 Cl
ATOM     23  C   UNL     1      45.239   4.564   9.353  0.00  0.00    +0.000 A 
ATOM     24  N   UNL     1      44.956   5.681  10.068  0.00  0.00    +0.000 NA
ATOM     25  C   UNL     1      44.342   5.561  11.275  0.00  0.00    +0.000 A 
ENDBRANCH  16  25
ENDBRANCH   1  16
TORSDOF 4
ENDMDL
MODEL 7
REMARK VINA RESULT:    -6.022      3.227      5.714
REMARK INTER + INTRA:          -8.369
REMARK INTER:                  -8.010
REMARK INTRA:                  -0.359
REMARK UNBOUND:                -0.940
REMARK  Name = 
REMARK  5 active torsions:
REMARK  status: ('A' for Active; 'I' for Inactive)
REMARK    1  A    between atoms: C_1  and  C_2
REMARK    2  A    between atoms: C_8  and  N_9
REMARK    3  A    between atoms: N_9  and  C_10
REMARK    4  A    between atoms: C_10  and  C_11
REMARK    5  A    between atoms: C_15  and  C_16
REMARK                            x       y       z     vdW  Elec       q    Type
REMARK                         _______ _______ _______ _____ _____    ______ ____
ROOT
ATOM      1  C   UNL     1      48.279   4.652  16.868  0.00  0.00    +0.000 C 
ATOM      2  C   UNL     1      47.326   4.955  18.035  0.00  0.00    +0.000 C 
ATOM      3  C   UNL     1      47.301   3.615  17.390  0.00  0.00    +0.000 C 
ENDROOT
BRANCH   1   4
ATOM      4  C   UNL     1      47.933   5.301  15.525  0.00  0.00    +0.000 A 
ATOM      5  C   UNL     1      48.583   6.441  15.045  0.00  0.00    +0.000 A 
ATOM      6  C   UNL     1      48.155   7.017  13.858  0.00  0.00    +0.000 A 
ATOM      7  N   UNL     1      47.136   6.544  13.115  0.00  0.00    +0.000 NA
ATOM      8  C   UNL     1      46.500   5.432  13.559  0.00  0.00    +0.000 A 
ATOM      9  C   UNL     1      46.891   4.793  14.739  0.00  0.00    +0.000 A 
BRANCH   8  10
ATOM     10  C   UNL     1      45.380   4.938  12.734  0.00  0.00    +0.000 A 
ATOM     11  C   UNL     1      45.227   3.568  12.464  0.00  0.00    +0.000 A 
ATOM     12  C   UNL     1      44.137   3.088  11.730  0.00  0.00    +0.000 A 
ATOM     13  C   UNL     1      43.179   3.971  11.242  0.00  0.00    +0.000 A 
ATOM     14  C   UNL     1      43.320   5.335  11.468  0.00  0.00    +0.000 A 
ATOM     15  C   UNL     1      44.413   5.812  12.198  0.00  0.00    +0.000 A 
ENDBRANCH   8  10
ENDBRANCH   1   4
BRANCH   1  16
ATOM     16  N   UNL     1      49.694   4.763  17.263  0.00  0.00    +0.000 N 
ATOM     17  H   UNL     1      50.239   5.314  16.598  0.00  0.00    +0.000 HD
BRANCH  16  25
ATOM     18  C   UNL     1      52.254   5.190  18.944  0.00  0.00    +0.000 C 
ATOM     19  C   UNL     1      51.803   3.914  18.311  0.00  0.00    +0.000 A 
ATOM     20  C   UNL     1      52.693   2.820  18.352  0.00  0.00    +0.000 A 
ATOM     21  C   UNL     1      52.361   1.617  17.746  0.00  0.00    +0.000 A 
ATOM     22 CL   UNL     1      53.453   0.297  17.743  0.00  0.00    +0.000 Cl
ATOM     23  C   UNL     1      51.134   1.532  17.125  0.00  0.00    +0.000 A 
ATOM     24  N   UNL     1      50.266   2.571  17.047  0.00  0.00    +0.000 NA
ATOM     25  C   UNL     1      50.597   3.759  17.619  0.00  0.00    +0.000 A 
ENDBRANCH  16  25
ENDBRANCH   1  16
TORSDOF 4
ENDMDL
MODEL 8
REMARK VINA RESULT:    -6.017      3.227      5.966
REMARK INTER + INTRA:          -8.364
REMARK INTER:                  -7.466
REMARK INTRA:                  -0.897
REMARK UNBOUND:                -0.940
REMARK  Name = 
REMARK  5 active torsions:
REMARK  status: ('A' for Active; 'I' for Inactive)
REMARK    1  A    between atoms: C_1  and  C_2
REMARK    2  A    between atoms: C_8  and  N_9
REMARK    3  A    between atoms: N_9  and  C_10
REMARK    4  A    between atoms: C_10  and  C_11
REMARK    5  A    between atoms: C_15  and  C_16
REMARK                            x       y       z     vdW  Elec       q    Type
REMARK                         _______ _______ _______ _____ _____    ______ ____
ROOT
ATOM      1  C   UNL     1      48.715   5.722  18.052  0.00  0.00    +0.000 C 
ATOM      2  C   UNL     1      48.203   6.832  18.984  0.00  0.00    +0.000 C 
ATOM      3  C   UNL     1      47.287   5.737  18.567  0.00  0.00    +0.000 C 
ENDROOT
BRANCH   1   4
ATOM      4  C   UNL     1      48.915   6.108  16.584  0.00  0.00    +0.000 A 
ATOM      5  C   UNL     1      49.984   6.894  16.147  0.00  0.00    +0.000 A 
ATOM      6  C   UNL     1      50.049   7.269  14.813  0.00  0.00    +0.000 A 
ATOM      7  N   UNL     1      49.137   6.919  13.886  0.00  0.00    +0.000 NA
ATOM      8  C   UNL     1      48.097   6.148  14.290  0.00  0.00    +0.000 A 
ATOM      9  C   UNL     1      47.980   5.721  15.615  0.00  0.00    +0.000 A 
BRANCH   8  10
ATOM     10  C   UNL     1      47.104   5.786  13.258  0.00  0.00    +0.000 A 
ATOM     11  C   UNL     1      46.984   6.532  12.074  0.00  0.00    +0.000 A 
ATOM     12  C   UNL     1      46.085   6.161  11.068  0.00  0.00    +0.000 A 
ATOM     13  C   UNL     1      45.278   5.038  11.231  0.00  0.00    +0.000 A 
ATOM     14  C   UNL     1      45.354   4.298  12.405  0.00  0.00    +0.000 A 
ATOM     15  C   UNL     1      46.252   4.674  13.410  0.00  0.00    +0.000 A 
ENDBRANCH   8  10
ENDBRANCH   1   4
BRANCH   1  16
ATOM     16  N   UNL     1      49.827   4.964  18.650  0.00  0.00    +0.000 N 
ATOM     17  H   UNL     1      50.558   5.575  19.017  0.00  0.00    +0.000 HD
BRANCH  16  25
ATOM     18  C   UNL     1      48.641   2.537  17.145  0.00  0.00    +0.000 C 
ATOM     19  C   UNL     1      50.077   2.757  17.494  0.00  0.00    +0.000 A 
ATOM     20  C   UNL     1      50.974   1.695  17.248  0.00  0.00    +0.000 A 
ATOM     21  C   UNL     1      52.313   1.811  17.589  0.00  0.00    +0.000 A 
ATOM     22 CL   UNL     1      53.403   0.511  17.345  0.00  0.00    +0.000 Cl
ATOM     23  C   UNL     1      52.729   2.997  18.154  0.00  0.00    +0.000 A 
ATOM     24  N   UNL     1      51.889   4.026  18.425  0.00  0.00    +0.000 NA
ATOM     25  C   UNL     1      50.571   3.909  18.115  0.00  0.00    +0.000 A 
ENDBRANCH  16  25
ENDBRANCH   1  16
TORSDOF 4
ENDMDL
MODEL 9
REMARK VINA RESULT:    -5.991      1.898      3.236
REMARK INTER + INTRA:          -8.332
REMARK INTER:                  -7.620
REMARK INTRA:                  -0.712
REMARK UNBOUND:                -0.940
REMARK  Name = 
REMARK  5 active torsions:
REMARK  status: ('A' for Active; 'I' for Inactive)
REMARK    1  A    between atoms: C_1  and  C_2
REMARK    2  A    between atoms: C_8  and  N_9
REMARK    3  A    between atoms: N_9  and  C_10
REMARK    4  A    between atoms: C_10  and  C_11
REMARK    5  A    between atoms: C_15  and  C_16
REMARK                            x       y       z     vdW  Elec       q    Type
REMARK                         _______ _______ _______ _____ _____    ______ ____
ROOT
ATOM      1  C   UNL     1      48.626   7.719  14.186  0.00  0.00    +0.000 C 
ATOM      2  C   UNL     1      49.908   8.299  13.569  0.00  0.00    +0.000 C 
ATOM      3  C   UNL     1      49.158   9.084  14.585  0.00  0.00    +0.000 C 
ENDROOT
BRANCH   1   4
ATOM      4  C   UNL     1      47.387   7.706  13.287  0.00  0.00    +0.000 A 
ATOM      5  C   UNL     1      46.478   8.765  13.234  0.00  0.00    +0.000 A 
ATOM      6  C   UNL     1      45.337   8.642  12.455  0.00  0.00    +0.000 A 
ATOM      7  N   UNL     1      45.035   7.550  11.727  0.00  0.00    +0.000 NA
ATOM      8  C   UNL     1      45.910   6.515  11.758  0.00  0.00    +0.000 A 
ATOM      9  C   UNL     1      47.087   6.580  12.509  0.00  0.00    +0.000 A 
BRANCH   8  10
ATOM     10  C   UNL     1      45.553   5.324  10.961  0.00  0.00    +0.000 A 
ATOM     11  C   UNL     1      45.119   4.140  11.580  0.00  0.00    +0.000 A 
ATOM     12  C   UNL     1      44.725   3.028  10.828  0.00  0.00    +0.000 A 
ATOM     13  C   UNL     1      44.767   3.073   9.437  0.00  0.00    +0.000 A 
ATOM     14  C   UNL     1      45.221   4.221   8.798  0.00  0.00    +0.000 A 
ATOM     15  C   UNL     1      45.617   5.330   9.553  0.00  0.00    +0.000 A 
ENDBRANCH   8  10
ENDBRANCH   1   4
BRANCH   1  16
ATOM     16  N   UNL     1      48.878   6.462  14.911  0.00  0.00    +0.000 N 
ATOM     17  H   UNL     1      48.542   5.646  14.398  0.00  0.00    +0.000 HD
BRANCH  16  25
ATOM     18  C   UNL     1      47.361   3.913  15.785  0.00  0.00    +0.000 C 
ATOM     19  C   UNL     1      47.826   5.024  16.670  0.00  0.00    +0.000 A 
ATOM     20  C   UNL     1      47.415   4.993  18.020  0.00  0.00    +0.000 A 
ATOM     21  C   UNL     1      47.771   6.013  18.888  0.00  0.00    +0.000 A 
ATOM     22 CL   UNL     1      47.236   6.016  20.516  0.00  0.00    +0.000 Cl
ATOM     23  C   UNL     1      48.547   7.036  18.389  0.00  0.00    +0.000 A 
ATOM     24  N   UNL     1      48.938   7.109  17.093  0.00  0.00    +0.000 NA
ATOM     25  C   UNL     1      48.572   6.123  16.232  0.00  0.00    +0.000 A 
ENDBRANCH  16  25
ENDBRANCH   1  16
TORSDOF 4
ENDMDL
