MODEL 1
REMARK VINA RESULT:    -9.075      0.000      0.000
REMARK INTER + INTRA:         -13.793
REMARK INTER:                 -12.788
REMARK INTRA:                  -1.005
REMARK UNBOUND:                -1.005
REMARK  Name = 
REMARK  8 active torsions:
REMARK  status: ('A' for Active; 'I' for Inactive)
REMARK    1  A    between atoms: C_1  and  C_2
REMARK    2  A    between atoms: C_2  and  N_3
REMARK    3  A    between atoms: C_2  and  C_25
REMARK    4  A    between atoms: N_3  and  C_4
REMARK    5  A    between atoms: C_4  and  C_5
REMARK    6  A    between atoms: C_9  and  C_10
REMARK    7  A    between atoms: C_10  and  N_11
REMARK    8  A    between atoms: C_12  and  C_14
REMARK                            x       y       z     vdW  Elec       q    Type
REMARK                         _______ _______ _______ _____ _____    ______ ____
ROOT
ATOM      1  C   UNL     1      45.946   5.758  11.444  0.00  0.00    +0.000 A 
ATOM      2  C   UNL     1      46.977   6.703  11.456  0.00  0.00    +0.000 A 
ATOM      3  C   UNL     1      47.862   6.706  12.522  0.00  0.00    +0.000 A 
ATOM      4  N   UNL     1      47.789   5.856  13.568  0.00  0.00    +0.000 NA
ATOM      5  C   UNL     1      46.774   4.955  13.568  0.00  0.00    +0.000 A 
ATOM      6  C   UNL     1      45.862   4.864  12.518  0.00  0.00    +0.000 A 
ENDROOT
BRANCH   1   7
ATOM      7  C   UNL     1      44.955   5.702  10.307  0.00  0.00    +0.000 C 
BRANCH   7   8
ATOM      8  N   UNL     1      45.557   5.116   9.110  0.00  0.00    +0.000 NA
ATOM      9  H   UNL     1      45.537   5.803   8.359  0.00  0.00    +0.000 HD
BRANCH   8  11
ATOM     10  C   UNL     1      44.184   3.135   9.756  0.00  0.00    +0.000 C 
ATOM     11  C   UNL     1      44.882   3.903   8.626  0.00  0.00    +0.000 C 
BRANCH  11  12
ATOM     12  C   UNL     1      45.908   3.004   7.945  0.00  0.00    +0.000 A 
ATOM     13  C   UNL     1      46.036   1.654   8.291  0.00  0.00    +0.000 A 
ATOM     14  C   UNL     1      46.978   0.879   7.625  0.00  0.00    +0.000 A 
ATOM     15  N   UNL     1      47.789   1.349   6.652  0.00  0.00    +0.000 NA
ATOM     16  C   UNL     1      47.651   2.650   6.329  0.00  0.00    +0.000 A 
ATOM     17  C   UNL     1      46.744   3.502   6.938  0.00  0.00    +0.000 A 
ENDBRANCH  11  12
ENDBRANCH   8  11
ENDBRANCH   7   8
ENDBRANCH   1   7
BRANCH   5  18
ATOM     18  C   UNL     1      46.666   4.013  14.747  0.00  0.00    +0.000 C 
BRANCH  18  19
ATOM     19  N   UNL     1      47.535   4.416  15.828  0.00  0.00    +0.000 N 
ATOM     20  C   UNL     1      47.383   3.944  17.106  0.00  0.00    +0.000 C 
ATOM     21  O   UNL     1      46.538   3.103  17.398  0.00  0.00    +0.000 OA
ATOM     22  H   UNL     1      48.034   5.290  15.679  0.00  0.00    +0.000 HD
BRANCH  20  23
ATOM     23  C   UNL     1      48.347   4.435  18.098  0.00  0.00    +0.000 A 
ATOM     24  C   UNL     1      47.962   5.402  19.017  0.00  0.00    +0.000 A 
ATOM     25  S   UNL     1      49.188   5.819  20.127  0.00  0.00    +0.000 S 
ATOM     26  C   UNL     1      50.294   4.759  19.384  0.00  0.00    +0.000 A 
ATOM     27  N   UNL     1      51.573   4.652  19.836  0.00  0.00    +0.000 NA
ATOM     28  C   UNL     1      52.310   3.837  19.159  0.00  0.00    +0.000 A 
ATOM     29  N   UNL     1      51.883   3.111  18.079  0.00  0.00    +0.000 N 
ATOM     30  C   UNL     1      50.590   3.154  17.613  0.00  0.00    +0.000 A 
ATOM     31  O   UNL     1      50.221   2.445  16.687  0.00  0.00    +0.000 OA
ATOM     32  C   UNL     1      49.727   4.079  18.323  0.00  0.00    +0.000 A 
ATOM     33  H   UNL     1      52.506   2.472  17.603  0.00  0.00    +0.000 HD
ENDBRANCH  20  23
ENDBRANCH  18  19
ENDBRANCH   5  18
TORSDOF 7
ENDMDL
MODEL 2
REMARK VINA RESULT:    -8.557      2.042      3.096
REMARK INTER + INTRA:         -13.064
REMARK INTER:                 -11.824
REMARK INTRA:                  -1.240
REMARK UNBOUND:                -1.005
REMARK  Name = 
REMARK  8 active torsions:
REMARK  status: ('A' for Active; 'I' for Inactive)
REMARK    1  A    between atoms: C_1  and  C_2
REMARK    2  A    between atoms: C_2  and  N_3
REMARK    3  A    between atoms: C_2  and  C_25
REMARK    4  A    between atoms: N_3  and  C_4
REMARK    5  A    between atoms: C_4  and  C_5
REMARK    6  A    between atoms: C_9  and  C_10
REMARK    7  A    between atoms: C_10  and  N_11
REMARK    8  A    between atoms: C_12  and  C_14
REMARK                            x       y       z     vdW  Elec       q    Type
REMARK                         _______ _______ _______ _____ _____    ______ ____
ROOT
ATOM      1  C   UNL     1      45.283   6.291  11.215  0.00  0.00    +0.000 A 
ATOM      2  C   UNL     1      44.550   7.463  11.419  0.00  0.00    +0.000 A 
ATOM      3  C   UNL     1      45.202   8.573  11.931  0.00  0.00    +0.000 A 
ATOM      4  N   UNL     1      46.510   8.596  12.262  0.00  0.00    +0.000 NA
ATOM      5  C   UNL     1      47.216   7.450  12.087  0.00  0.00    +0.000 A 
ATOM      6  C   UNL     1      46.644   6.300  11.544  0.00  0.00    +0.000 A 
ENDROOT
BRANCH   1   7
ATOM      7  C   UNL     1      44.630   5.050  10.652  0.00  0.00    +0.000 C 
BRANCH   7   8
ATOM      8  N   UNL     1      45.134   4.749   9.314  0.00  0.00    +0.000 NA
ATOM      9  H   UNL     1      44.822   5.475   8.671  0.00  0.00    +0.000 HD
BRANCH   8  11
ATOM     10  C   UNL     1      44.186   2.511   9.878  0.00  0.00    +0.000 C 
ATOM     11  C   UNL     1      44.689   3.455   8.778  0.00  0.00    +0.000 C 
BRANCH  11  12
ATOM     12  C   UNL     1      45.847   2.804   8.028  0.00  0.00    +0.000 A 
ATOM     13  C   UNL     1      46.685   3.552   7.194  0.00  0.00    +0.000 A 
ATOM     14  C   UNL     1      47.734   2.907   6.549  0.00  0.00    +0.000 A 
ATOM     15  N   UNL     1      48.002   1.590   6.676  0.00  0.00    +0.000 NA
ATOM     16  C   UNL     1      47.186   0.885   7.484  0.00  0.00    +0.000 A 
ATOM     17  C   UNL     1      46.114   1.437   8.167  0.00  0.00    +0.000 A 
ENDBRANCH  11  12
ENDBRANCH   8  11
ENDBRANCH   7   8
ENDBRANCH   1   7
BRANCH   5  18
ATOM     18  C   UNL     1      48.678   7.455  12.477  0.00  0.00    +0.000 C 
BRANCH  18  19
ATOM     19  N   UNL     1      48.899   6.736  13.710  0.00  0.00    +0.000 N 
ATOM     20  C   UNL     1      48.864   7.351  14.935  0.00  0.00    +0.000 C 
ATOM     21  O   UNL     1      48.582   8.539  15.063  0.00  0.00    +0.000 OA
ATOM     22  H   UNL     1      49.397   5.855  13.613  0.00  0.00    +0.000 HD
BRANCH  20  23
ATOM     23  C   UNL     1      49.098   6.491  16.100  0.00  0.00    +0.000 A 
ATOM     24  C   UNL     1      50.074   6.832  17.027  0.00  0.00    +0.000 A 
ATOM     25  S   UNL     1      50.176   5.752  18.343  0.00  0.00    +0.000 S 
ATOM     26  C   UNL     1      48.956   4.760  17.692  0.00  0.00    +0.000 A 
ATOM     27  N   UNL     1      48.569   3.619  18.324  0.00  0.00    +0.000 NA
ATOM     28  C   UNL     1      47.657   2.949  17.703  0.00  0.00    +0.000 A 
ATOM     29  N   UNL     1      47.090   3.320  16.513  0.00  0.00    +0.000 N 
ATOM     30  C   UNL     1      47.417   4.485  15.859  0.00  0.00    +0.000 A 
ATOM     31  O   UNL     1      46.847   4.822  14.831  0.00  0.00    +0.000 OA
ATOM     32  C   UNL     1      48.460   5.262  16.504  0.00  0.00    +0.000 A 
ATOM     33  H   UNL     1      46.364   2.760  16.086  0.00  0.00    +0.000 HD
ENDBRANCH  20  23
ENDBRANCH  18  19
ENDBRANCH   5  18
TORSDOF 7
ENDMDL
MODEL 3
REMARK VINA RESULT:    -8.505      1.330      2.155
REMARK INTER + INTRA:         -12.991
REMARK INTER:                 -11.886
REMARK INTRA:                  -1.104
REMARK UNBOUND:                -1.005
REMARK  Name = 
REMARK  8 active torsions:
REMARK  status: ('A' for Active; 'I' for Inactive)
REMARK    1  A    between atoms: C_1  and  C_2
REMARK    2  A    between atoms: C_2  and  N_3
REMARK    3  A    between atoms: C_2  and  C_25
REMARK    4  A    between atoms: N_3  and  C_4
REMARK    5  A    between atoms: C_4  and  C_5
REMARK    6  A    between atoms: C_9  and  C_10
REMARK    7  A    between atoms: C_10  and  N_11
REMARK    8  A    between atoms: C_12  and  C_14
REMARK                            x       y       z     vdW  Elec       q    Type
REMARK                         _______ _______ _______ _____ _____    ______ ____
ROOT
ATOM      1  C   UNL     1      46.043   5.740  11.625  0.00  0.00    +0.000 A 
ATOM      2  C   UNL     1      47.052   6.708  11.641  0.00  0.00    +0.000 A 
ATOM      3  C   UNL     1      47.958   6.704  12.689  0.00  0.00    +0.000 A 
ATOM      4  N   UNL     1      47.925   5.827  13.715  0.00  0.00    +0.000 NA
ATOM      5  C   UNL     1      46.930   4.903  13.711  0.00  0.00    +0.000 A 
ATOM      6  C   UNL     1      46.000   4.817  12.677  0.00  0.00    +0.000 A 
ENDROOT
BRANCH   1   7
ATOM      7  C   UNL     1      45.030   5.690  10.505  0.00  0.00    +0.000 C 
BRANCH   7   8
ATOM      8  N   UNL     1      45.620   5.141   9.285  0.00  0.00    +0.000 NA
ATOM      9  H   UNL     1      45.619   5.860   8.564  0.00  0.00    +0.000 HD
BRANCH   8  11
ATOM     10  C   UNL     1      44.154   3.199   9.836  0.00  0.00    +0.000 C 
ATOM     11  C   UNL     1      44.916   3.967   8.749  0.00  0.00    +0.000 C 
BRANCH  11  12
ATOM     12  C   UNL     1      45.928   3.046   8.077  0.00  0.00    +0.000 A 
ATOM     13  C   UNL     1      45.936   1.669   8.325  0.00  0.00    +0.000 A 
ATOM     14  C   UNL     1      46.873   0.877   7.671  0.00  0.00    +0.000 A 
ATOM     15  N   UNL     1      47.788   1.355   6.800  0.00  0.00    +0.000 NA
ATOM     16  C   UNL     1      47.766   2.683   6.572  0.00  0.00    +0.000 A 
ATOM     17  C   UNL     1      46.874   3.553   7.177  0.00  0.00    +0.000 A 
ENDBRANCH  11  12
ENDBRANCH   8  11
ENDBRANCH   7   8
ENDBRANCH   1   7
BRANCH   5  18
ATOM     18  C   UNL     1      46.867   3.930  14.867  0.00  0.00    +0.000 C 
BRANCH  18  19
ATOM     19  N   UNL     1      47.656   4.386  15.987  0.00  0.00    +0.000 N 
ATOM     20  C   UNL     1      48.520   3.561  16.661  0.00  0.00    +0.000 C 
ATOM     21  O   UNL     1      48.722   2.401  16.314  0.00  0.00    +0.000 OA
ATOM     22  H   UNL     1      47.306   5.220  16.451  0.00  0.00    +0.000 HD
BRANCH  20  23
ATOM     23  C   UNL     1      49.262   4.167  17.772  0.00  0.00    +0.000 A 
ATOM     24  C   UNL     1      50.628   3.947  17.893  0.00  0.00    +0.000 A 
ATOM     25  S   UNL     1      51.339   4.767  19.209  0.00  0.00    +0.000 S 
ATOM     26  C   UNL     1      49.836   5.400  19.695  0.00  0.00    +0.000 A 
ATOM     27  N   UNL     1      49.731   6.185  20.802  0.00  0.00    +0.000 NA
ATOM     28  C   UNL     1      48.529   6.568  21.071  0.00  0.00    +0.000 A 
ATOM     29  N   UNL     1      47.423   6.248  20.330  0.00  0.00    +0.000 N 
ATOM     30  C   UNL     1      47.485   5.494  19.181  0.00  0.00    +0.000 A 
ATOM     31  O   UNL     1      46.489   5.280  18.504  0.00  0.00    +0.000 OA
ATOM     32  C   UNL     1      48.813   5.014  18.850  0.00  0.00    +0.000 A 
ATOM     33  H   UNL     1      46.508   6.598  20.583  0.00  0.00    +0.000 HD
ENDBRANCH  20  23
ENDBRANCH  18  19
ENDBRANCH   5  18
TORSDOF 7
ENDMDL
MODEL 4
REMARK VINA RESULT:    -8.231      1.804      2.453
REMARK INTER + INTRA:         -12.604
REMARK INTER:                 -11.858
REMARK INTRA:                  -0.746
REMARK UNBOUND:                -1.005
REMARK  Name = 
REMARK  8 active torsions:
REMARK  status: ('A' for Active; 'I' for Inactive)
REMARK    1  A    between atoms: C_1  and  C_2
REMARK    2  A    between atoms: C_2  and  N_3
REMARK    3  A    between atoms: C_2  and  C_25
REMARK    4  A    between atoms: N_3  and  C_4
REMARK    5  A    between atoms: C_4  and  C_5
REMARK    6  A    between atoms: C_9  and  C_10
REMARK    7  A    between atoms: C_10  and  N_11
REMARK    8  A    between atoms: C_12  and  C_14
REMARK                            x       y       z     vdW  Elec       q    Type
REMARK                         _______ _______ _______ _____ _____    ______ ____
ROOT
ATOM      1  C   UNL     1      45.790   5.215  11.816  0.00  0.00    +0.000 A 
ATOM      2  C   UNL     1      45.766   3.959  12.430  0.00  0.00    +0.000 A 
ATOM      3  C   UNL     1      46.573   3.745  13.535  0.00  0.00    +0.000 A 
ATOM      4  N   UNL     1      47.400   4.674  14.059  0.00  0.00    +0.000 NA
ATOM      5  C   UNL     1      47.442   5.885  13.448  0.00  0.00    +0.000 A 
ATOM      6  C   UNL     1      46.637   6.193  12.352  0.00  0.00    +0.000 A 
ENDROOT
BRANCH   1   7
ATOM      7  C   UNL     1      44.928   5.510  10.612  0.00  0.00    +0.000 C 
BRANCH   7   8
ATOM      8  N   UNL     1      45.566   5.050   9.380  0.00  0.00    +0.000 NA
ATOM      9  H   UNL     1      45.606   5.823   8.718  0.00  0.00    +0.000 HD
BRANCH   8  11
ATOM     10  C   UNL     1      44.029   3.111   9.704  0.00  0.00    +0.000 C 
ATOM     11  C   UNL     1      44.874   3.932   8.722  0.00  0.00    +0.000 C 
BRANCH  11  12
ATOM     12  C   UNL     1      45.909   3.033   8.053  0.00  0.00    +0.000 A 
ATOM     13  C   UNL     1      45.962   1.661   8.320  0.00  0.00    +0.000 A 
ATOM     14  C   UNL     1      46.917   0.889   7.668  0.00  0.00    +0.000 A 
ATOM     15  N   UNL     1      47.808   1.382   6.782  0.00  0.00    +0.000 NA
ATOM     16  C   UNL     1      47.742   2.706   6.535  0.00  0.00    +0.000 A 
ATOM     17  C   UNL     1      46.829   3.557   7.136  0.00  0.00    +0.000 A 
ENDBRANCH  11  12
ENDBRANCH   8  11
ENDBRANCH   7   8
ENDBRANCH   1   7
BRANCH   5  18
ATOM     18  C   UNL     1      48.384   6.927  14.010  0.00  0.00    +0.000 C 
BRANCH  18  19
ATOM     19  N   UNL     1      48.208   7.086  15.434  0.00  0.00    +0.000 N 
ATOM     20  C   UNL     1      49.146   6.663  16.341  0.00  0.00    +0.000 C 
ATOM     21  O   UNL     1      50.219   6.178  15.995  0.00  0.00    +0.000 OA
ATOM     22  H   UNL     1      47.247   7.214  15.740  0.00  0.00    +0.000 HD
BRANCH  20  23
ATOM     23  C   UNL     1      48.834   6.900  17.755  0.00  0.00    +0.000 A 
ATOM     24  C   UNL     1      48.611   8.193  18.207  0.00  0.00    +0.000 A 
ATOM     25  S   UNL     1      48.211   8.281  19.863  0.00  0.00    +0.000 S 
ATOM     26  C   UNL     1      48.377   6.597  20.046  0.00  0.00    +0.000 A 
ATOM     27  N   UNL     1      48.196   6.003  21.257  0.00  0.00    +0.000 NA
ATOM     28  C   UNL     1      48.383   4.726  21.257  0.00  0.00    +0.000 A 
ATOM     29  N   UNL     1      48.725   3.987  20.156  0.00  0.00    +0.000 N 
ATOM     30  C   UNL     1      48.877   4.536  18.904  0.00  0.00    +0.000 A 
ATOM     31  O   UNL     1      49.118   3.841  17.927  0.00  0.00    +0.000 OA
ATOM     32  C   UNL     1      48.704   5.976  18.856  0.00  0.00    +0.000 A 
ATOM     33  H   UNL     1      48.838   2.983  20.218  0.00  0.00    +0.000 HD
ENDBRANCH  20  23
ENDBRANCH  18  19
ENDBRANCH   5  18
TORSDOF 7
ENDMDL
MODEL 5
REMARK VINA RESULT:    -8.155      2.130      3.392
REMARK INTER + INTRA:         -12.497
REMARK INTER:                 -11.426
REMARK INTRA:                  -1.071
REMARK UNBOUND:                -1.005
REMARK  Name = 
REMARK  8 active torsions:
REMARK  status: ('A' for Active; 'I' for Inactive)
REMARK    1  A    between atoms: C_1  and  C_2
REMARK    2  A    between atoms: C_2  and  N_3
REMARK    3  A    between atoms: C_2  and  C_25
REMARK    4  A    between atoms: N_3  and  C_4
REMARK    5  A    between atoms: C_4  and  C_5
REMARK    6  A    between atoms: C_9  and  C_10
REMARK    7  A    between atoms: C_10  and  N_11
REMARK    8  A    between atoms: C_12  and  C_14
REMARK                            x       y       z     vdW  Elec       q    Type
REMARK                         _______ _______ _______ _____ _____    ______ ____
ROOT
ATOM      1  C   UNL     1      44.499   4.305  11.480  0.00  0.00    +0.000 A 
ATOM      2  C   UNL     1      43.225   4.835  11.257  0.00  0.00    +0.000 A 
ATOM      3  C   UNL     1      43.035   6.197  11.424  0.00  0.00    +0.000 A 
ATOM      4  N   UNL     1      44.005   7.056  11.802  0.00  0.00    +0.000 NA
ATOM      5  C   UNL     1      45.236   6.537  12.042  0.00  0.00    +0.000 A 
ATOM      6  C   UNL     1      45.519   5.183  11.864  0.00  0.00    +0.000 A 
ENDROOT
BRANCH   1   7
ATOM      7  C   UNL     1      44.769   2.829  11.308  0.00  0.00    +0.000 C 
BRANCH   7   8
ATOM      8  N   UNL     1      44.559   2.412   9.922  0.00  0.00    +0.000 NA
ATOM      9  H   UNL     1      44.996   1.502   9.780  0.00  0.00    +0.000 HD
BRANCH   8  11
ATOM     10  C   UNL     1      44.026   3.937   8.021  0.00  0.00    +0.000 C 
ATOM     11  C   UNL     1      45.113   3.336   8.923  0.00  0.00    +0.000 C 
BRANCH  11  12
ATOM     12  C   UNL     1      46.136   2.591   8.072  0.00  0.00    +0.000 A 
ATOM     13  C   UNL     1      47.045   3.277   7.260  0.00  0.00    +0.000 A 
ATOM     14  C   UNL     1      47.966   2.545   6.519  0.00  0.00    +0.000 A 
ATOM     15  N   UNL     1      48.043   1.197   6.533  0.00  0.00    +0.000 NA
ATOM     16  C   UNL     1      47.162   0.551   7.323  0.00  0.00    +0.000 A 
ATOM     17  C   UNL     1      46.206   1.192   8.094  0.00  0.00    +0.000 A 
ENDBRANCH  11  12
ENDBRANCH   8  11
ENDBRANCH   7   8
ENDBRANCH   1   7
BRANCH   5  18
ATOM     18  C   UNL     1      46.327   7.484  12.491  0.00  0.00    +0.000 C 
BRANCH  18  19
ATOM     19  N   UNL     1      46.890   7.080  13.758  0.00  0.00    +0.000 N 
ATOM     20  C   UNL     1      48.166   6.589  13.870  0.00  0.00    +0.000 C 
ATOM     21  O   UNL     1      48.928   6.519  12.910  0.00  0.00    +0.000 OA
ATOM     22  H   UNL     1      46.212   6.867  14.484  0.00  0.00    +0.000 HD
BRANCH  20  23
ATOM     23  C   UNL     1      48.605   6.228  15.223  0.00  0.00    +0.000 A 
ATOM     24  C   UNL     1      49.600   6.969  15.847  0.00  0.00    +0.000 A 
ATOM     25  S   UNL     1      49.950   6.446  17.432  0.00  0.00    +0.000 S 
ATOM     26  C   UNL     1      48.822   5.176  17.320  0.00  0.00    +0.000 A 
ATOM     27  N   UNL     1      48.642   4.305  18.350  0.00  0.00    +0.000 NA
ATOM     28  C   UNL     1      47.779   3.374  18.115  0.00  0.00    +0.000 A 
ATOM     29  N   UNL     1      47.073   3.240  16.950  0.00  0.00    +0.000 N 
ATOM     30  C   UNL     1      47.189   4.119  15.898  0.00  0.00    +0.000 A 
ATOM     31  O   UNL     1      46.497   4.012  14.896  0.00  0.00    +0.000 OA
ATOM     32  C   UNL     1      48.169   5.170  16.102  0.00  0.00    +0.000 A 
ATOM     33  H   UNL     1      46.394   2.498  16.835  0.00  0.00    +0.000 HD
ENDBRANCH  20  23
ENDBRANCH  18  19
ENDBRANCH   5  18
TORSDOF 7
ENDMDL
MODEL 6
REMARK VINA RESULT:    -8.154      4.516      7.036
REMARK INTER + INTRA:         -12.496
REMARK INTER:                 -11.450
REMARK INTRA:                  -1.046
REMARK UNBOUND:                -1.005
REMARK  Name = 
REMARK  8 active torsions:
REMARK  status: ('A' for Active; 'I' for Inactive)
REMARK    1  A    between atoms: C_1  and  C_2
REMARK    2  A    between atoms: C_2  and  N_3
REMARK    3  A    between atoms: C_2  and  C_25
REMARK    4  A    between atoms: N_3  and  C_4
REMARK    5  A    between atoms: C_4  and  C_5
REMARK    6  A    between atoms: C_9  and  C_10
REMARK    7  A    between atoms: C_10  and  N_11
REMARK    8  A    between atoms: C_12  and  C_14
REMARK                            x       y       z     vdW  Elec       q    Type
REMARK                         _______ _______ _______ _____ _____    ______ ____
ROOT
ATOM      1  C   UNL     1      45.503   4.770  11.765  0.00  0.00    +0.000 A 
ATOM      2  C   UNL     1      45.656   3.625  12.551  0.00  0.00    +0.000 A 
ATOM      3  C   UNL     1      46.603   3.635  13.562  0.00  0.00    +0.000 A 
ATOM      4  N   UNL     1      47.407   4.685  13.835  0.00  0.00    +0.000 NA
ATOM      5  C   UNL     1      47.275   5.788  13.056  0.00  0.00    +0.000 A 
ATOM      6  C   UNL     1      46.323   5.871  12.041  0.00  0.00    +0.000 A 
ENDROOT
BRANCH   1   7
ATOM      7  C   UNL     1      44.483   4.821  10.652  0.00  0.00    +0.000 C 
BRANCH   7   8
ATOM      8  N   UNL     1      45.108   4.584   9.352  0.00  0.00    +0.000 NA
ATOM      9  H   UNL     1      44.873   5.353   8.726  0.00  0.00    +0.000 HD
BRANCH   8  11
ATOM     10  C   UNL     1      44.131   2.315   9.701  0.00  0.00    +0.000 C 
ATOM     11  C   UNL     1      44.693   3.334   8.701  0.00  0.00    +0.000 C 
BRANCH  11  12
ATOM     12  C   UNL     1      45.890   2.735   7.970  0.00  0.00    +0.000 A 
ATOM     13  C   UNL     1      46.745   3.529   7.199  0.00  0.00    +0.000 A 
ATOM     14  C   UNL     1      47.829   2.930   6.569  0.00  0.00    +0.000 A 
ATOM     15  N   UNL     1      48.117   1.613   6.654  0.00  0.00    +0.000 NA
ATOM     16  C   UNL     1      47.284   0.862   7.402  0.00  0.00    +0.000 A 
ATOM     17  C   UNL     1      46.177   1.367   8.064  0.00  0.00    +0.000 A 
ENDBRANCH  11  12
ENDBRANCH   8  11
ENDBRANCH   7   8
ENDBRANCH   1   7
BRANCH   5  18
ATOM     18  C   UNL     1      48.186   6.962  13.335  0.00  0.00    +0.000 C 
BRANCH  18  19
ATOM     19  N   UNL     1      47.507   8.220  13.130  0.00  0.00    +0.000 N 
ATOM     20  C   UNL     1      47.893   9.113  12.163  0.00  0.00    +0.000 C 
ATOM     21  O   UNL     1      48.800   8.871  11.372  0.00  0.00    +0.000 OA
ATOM     22  H   UNL     1      46.965   8.553  13.922  0.00  0.00    +0.000 HD
BRANCH  20  23
ATOM     23  C   UNL     1      47.102  10.346  12.065  0.00  0.00    +0.000 A 
ATOM     24  C   UNL     1      47.718  11.578  12.242  0.00  0.00    +0.000 A 
ATOM     25  S   UNL     1      46.664  12.904  12.043  0.00  0.00    +0.000 S 
ATOM     26  C   UNL     1      45.336  11.875  11.767  0.00  0.00    +0.000 A 
ATOM     27  N   UNL     1      44.091  12.381  11.551  0.00  0.00    +0.000 NA
ATOM     28  C   UNL     1      43.175  11.487  11.388  0.00  0.00    +0.000 A 
ATOM     29  N   UNL     1      43.389  10.135  11.411  0.00  0.00    +0.000 N 
ATOM     30  C   UNL     1      44.636   9.578  11.582  0.00  0.00    +0.000 A 
ATOM     31  O   UNL     1      44.807   8.368  11.533  0.00  0.00    +0.000 OA
ATOM     32  C   UNL     1      45.698  10.542  11.798  0.00  0.00    +0.000 A 
ATOM     33  H   UNL     1      42.630   9.485  11.256  0.00  0.00    +0.000 HD
ENDBRANCH  20  23
ENDBRANCH  18  19
ENDBRANCH   5  18
TORSDOF 7
ENDMDL
MODEL 7
REMARK VINA RESULT:    -7.478      3.497      8.683
REMARK INTER + INTRA:         -11.544
REMARK INTER:                 -10.046
REMARK INTRA:                  -1.498
REMARK UNBOUND:                -1.005
REMARK  Name = 
REMARK  8 active torsions:
REMARK  status: ('A' for Active; 'I' for Inactive)
REMARK    1  A    between atoms: C_1  and  C_2
REMARK    2  A    between atoms: C_2  and  N_3
REMARK    3  A    between atoms: C_2  and  C_25
REMARK    4  A    between atoms: N_3  and  C_4
REMARK    5  A    between atoms: C_4  and  C_5
REMARK    6  A    between atoms: C_9  and  C_10
REMARK    7  A    between atoms: C_10  and  N_11
REMARK    8  A    between atoms: C_12  and  C_14
REMARK                            x       y       z     vdW  Elec       q    Type
REMARK                         _______ _______ _______ _____ _____    ______ ____
ROOT
ATOM      1  C   UNL     1      49.292   7.749  15.590  0.00  0.00    +0.000 A 
ATOM      2  C   UNL     1      50.661   7.780  15.306  0.00  0.00    +0.000 A 
ATOM      3  C   UNL     1      51.063   7.915  13.987  0.00  0.00    +0.000 A 
ATOM      4  N   UNL     1      50.212   8.006  12.943  0.00  0.00    +0.000 NA
ATOM      5  C   UNL     1      48.884   7.951  13.216  0.00  0.00    +0.000 A 
ATOM      6  C   UNL     1      48.397   7.851  14.519  0.00  0.00    +0.000 A 
ENDROOT
BRANCH   1   7
ATOM      7  C   UNL     1      48.794   7.610  17.009  0.00  0.00    +0.000 C 
BRANCH   7   8
ATOM      8  N   UNL     1      48.081   6.348  17.197  0.00  0.00    +0.000 NA
ATOM      9  H   UNL     1      47.129   6.546  17.499  0.00  0.00    +0.000 HD
BRANCH   8  11
ATOM     10  C   UNL     1      49.952   6.054  18.821  0.00  0.00    +0.000 C 
ATOM     11  C   UNL     1      48.689   5.453  18.191  0.00  0.00    +0.000 C 
BRANCH  11  12
ATOM     12  C   UNL     1      49.027   4.125  17.522  0.00  0.00    +0.000 A 
ATOM     13  C   UNL     1      50.278   3.521  17.692  0.00  0.00    +0.000 A 
ATOM     14  C   UNL     1      50.523   2.302  17.070  0.00  0.00    +0.000 A 
ATOM     15  N   UNL     1      49.621   1.653  16.303  0.00  0.00    +0.000 NA
ATOM     16  C   UNL     1      48.420   2.247  16.151  0.00  0.00    +0.000 A 
ATOM     17  C   UNL     1      48.084   3.461  16.728  0.00  0.00    +0.000 A 
ENDBRANCH  11  12
ENDBRANCH   8  11
ENDBRANCH   7   8
ENDBRANCH   1   7
BRANCH   5  18
ATOM     18  C   UNL     1      47.920   8.027  12.053  0.00  0.00    +0.000 C 
BRANCH  18  19
ATOM     19  N   UNL     1      47.117   6.831  11.951  0.00  0.00    +0.000 N 
ATOM     20  C   UNL     1      45.747   6.868  11.915  0.00  0.00    +0.000 C 
ATOM     21  O   UNL     1      45.120   7.924  11.905  0.00  0.00    +0.000 OA
ATOM     22  H   UNL     1      47.581   5.973  12.236  0.00  0.00    +0.000 HD
BRANCH  20  23
ATOM     23  C   UNL     1      45.065   5.573  11.800  0.00  0.00    +0.000 A 
ATOM     24  C   UNL     1      44.369   5.060  12.886  0.00  0.00    +0.000 A 
ATOM     25  S   UNL     1      43.595   3.575  12.562  0.00  0.00    +0.000 S 
ATOM     26  C   UNL     1      44.210   3.539  10.975  0.00  0.00    +0.000 A 
ATOM     27  N   UNL     1      43.944   2.495  10.144  0.00  0.00    +0.000 NA
ATOM     28  C   UNL     1      44.500   2.585   8.982  0.00  0.00    +0.000 A 
ATOM     29  N   UNL     1      45.289   3.627   8.572  0.00  0.00    +0.000 N 
ATOM     30  C   UNL     1      45.550   4.723   9.361  0.00  0.00    +0.000 A 
ATOM     31  O   UNL     1      46.204   5.668   8.943  0.00  0.00    +0.000 OA
ATOM     32  C   UNL     1      44.970   4.658  10.689  0.00  0.00    +0.000 A 
ATOM     33  H   UNL     1      45.679   3.648   7.639  0.00  0.00    +0.000 HD
ENDBRANCH  20  23
ENDBRANCH  18  19
ENDBRANCH   5  18
TORSDOF 7
ENDMDL
MODEL 8
REMARK VINA RESULT:    -7.386      3.754     10.247
REMARK INTER + INTRA:         -11.414
REMARK INTER:                 -10.105
REMARK INTRA:                  -1.309
REMARK UNBOUND:                -1.005
REMARK  Name = 
REMARK  8 active torsions:
REMARK  status: ('A' for Active; 'I' for Inactive)
REMARK    1  A    between atoms: C_1  and  C_2
REMARK    2  A    between atoms: C_2  and  N_3
REMARK    3  A    between atoms: C_2  and  C_25
REMARK    4  A    between atoms: N_3  and  C_4
REMARK    5  A    between atoms: C_4  and  C_5
REMARK    6  A    between atoms: C_9  and  C_10
REMARK    7  A    between atoms: C_10  and  N_11
REMARK    8  A    between atoms: C_12  and  C_14
REMARK                            x       y       z     vdW  Elec       q    Type
REMARK                         _______ _______ _______ _____ _____    ______ ____
ROOT
ATOM      1  C   UNL     1      48.919   4.539  19.047  0.00  0.00    +0.000 A 
ATOM      2  C   UNL     1      48.580   3.248  18.630  0.00  0.00    +0.000 A 
ATOM      3  C   UNL     1      48.319   3.031  17.287  0.00  0.00    +0.000 A 
ATOM      4  N   UNL     1      48.360   3.996  16.343  0.00  0.00    +0.000 NA
ATOM      5  C   UNL     1      48.665   5.254  16.752  0.00  0.00    +0.000 A 
ATOM      6  C   UNL     1      48.974   5.549  18.079  0.00  0.00    +0.000 A 
ENDROOT
BRANCH   1   7
ATOM      7  C   UNL     1      49.220   4.835  20.497  0.00  0.00    +0.000 C 
BRANCH   7   8
ATOM      8  N   UNL     1      49.237   6.275  20.749  0.00  0.00    +0.000 NA
ATOM      9  H   UNL     1      50.182   6.556  21.003  0.00  0.00    +0.000 HD
BRANCH   8  11
ATOM     10  C   UNL     1      47.307   5.635  22.195  0.00  0.00    +0.000 C 
ATOM     11  C   UNL     1      48.335   6.712  21.824  0.00  0.00    +0.000 C 
BRANCH  11  12
ATOM     12  C   UNL     1      47.618   7.983  21.384  0.00  0.00    +0.000 A 
ATOM     13  C   UNL     1      46.859   8.739  22.284  0.00  0.00    +0.000 A 
ATOM     14  C   UNL     1      46.241   9.898  21.830  0.00  0.00    +0.000 A 
ATOM     15  N   UNL     1      46.325  10.349  20.559  0.00  0.00    +0.000 NA
ATOM     16  C   UNL     1      47.061   9.610  19.706  0.00  0.00    +0.000 A 
ATOM     17  C   UNL     1      47.712   8.440  20.064  0.00  0.00    +0.000 A 
ENDBRANCH  11  12
ENDBRANCH   8  11
ENDBRANCH   7   8
ENDBRANCH   1   7
BRANCH   5  18
ATOM     18  C   UNL     1      48.689   6.349  15.709  0.00  0.00    +0.000 C 
BRANCH  18  19
ATOM     19  N   UNL     1      47.557   6.255  14.817  0.00  0.00    +0.000 N 
ATOM     20  C   UNL     1      47.699   6.189  13.455  0.00  0.00    +0.000 C 
ATOM     21  O   UNL     1      48.800   6.142  12.913  0.00  0.00    +0.000 OA
ATOM     22  H   UNL     1      46.673   6.570  15.207  0.00  0.00    +0.000 HD
BRANCH  20  23
ATOM     23  C   UNL     1      46.459   6.087  12.677  0.00  0.00    +0.000 A 
ATOM     24  C   UNL     1      45.942   7.214  12.051  0.00  0.00    +0.000 A 
ATOM     25  S   UNL     1      44.528   6.906  11.148  0.00  0.00    +0.000 S 
ATOM     26  C   UNL     1      44.527   5.267  11.607  0.00  0.00    +0.000 A 
ATOM     27  N   UNL     1      43.544   4.423  11.192  0.00  0.00    +0.000 NA
ATOM     28  C   UNL     1      43.652   3.218  11.641  0.00  0.00    +0.000 A 
ATOM     29  N   UNL     1      44.657   2.776  12.459  0.00  0.00    +0.000 N 
ATOM     30  C   UNL     1      45.696   3.580  12.870  0.00  0.00    +0.000 A 
ATOM     31  O   UNL     1      46.614   3.140  13.546  0.00  0.00    +0.000 OA
ATOM     32  C   UNL     1      45.606   4.955  12.413  0.00  0.00    +0.000 A 
ATOM     33  H   UNL     1      44.696   1.811  12.761  0.00  0.00    +0.000 HD
ENDBRANCH  20  23
ENDBRANCH  18  19
ENDBRANCH   5  18
TORSDOF 7
ENDMDL
MODEL 9
REMARK VINA RESULT:    -7.282      2.651      3.099
REMARK INTER + INTRA:         -11.267
REMARK INTER:                 -10.328
REMARK INTRA:                  -0.939
REMARK UNBOUND:                -1.005
REMARK  Name = 
REMARK  8 active torsions:
REMARK  status: ('A' for Active; 'I' for Inactive)
REMARK    1  A    between atoms: C_1  and  C_2
REMARK    2  A    between atoms: C_2  and  N_3
REMARK    3  A    between atoms: C_2  and  C_25
REMARK    4  A    between atoms: N_3  and  C_4
REMARK    5  A    between atoms: C_4  and  C_5
REMARK    6  A    between atoms: C_9  and  C_10
REMARK    7  A    between atoms: C_10  and  N_11
REMARK    8  A    between atoms: C_12  and  C_14
REMARK                            x       y       z     vdW  Elec       q    Type
REMARK                         _______ _______ _______ _____ _____    ______ ____
ROOT
ATOM      1  C   UNL     1      45.310   6.355  11.164  0.00  0.00    +0.000 A 
ATOM      2  C   UNL     1      44.609   7.506  11.536  0.00  0.00    +0.000 A 
ATOM      3  C   UNL     1      45.320   8.583  12.041  0.00  0.00    +0.000 A 
ATOM      4  N   UNL     1      46.659   8.592  12.211  0.00  0.00    +0.000 NA
ATOM      5  C   UNL     1      47.337   7.465  11.873  0.00  0.00    +0.000 A 
ATOM      6  C   UNL     1      46.701   6.352  11.327  0.00  0.00    +0.000 A 
ENDROOT
BRANCH   1   7
ATOM      7  C   UNL     1      44.591   5.152  10.602  0.00  0.00    +0.000 C 
BRANCH   7   8
ATOM      8  N   UNL     1      45.150   4.760   9.309  0.00  0.00    +0.000 NA
ATOM      9  H   UNL     1      44.882   5.449   8.609  0.00  0.00    +0.000 HD
BRANCH   8  11
ATOM     10  C   UNL     1      44.231   2.539   9.979  0.00  0.00    +0.000 C 
ATOM     11  C   UNL     1      44.706   3.442   8.833  0.00  0.00    +0.000 C 
BRANCH  11  12
ATOM     12  C   UNL     1      45.854   2.771   8.088  0.00  0.00    +0.000 A 
ATOM     13  C   UNL     1      46.087   1.396   8.195  0.00  0.00    +0.000 A 
ATOM     14  C   UNL     1      47.139   0.837   7.479  0.00  0.00    +0.000 A 
ATOM     15  N   UNL     1      47.963   1.544   6.675  0.00  0.00    +0.000 NA
ATOM     16  C   UNL     1      47.724   2.867   6.581  0.00  0.00    +0.000 A 
ATOM     17  C   UNL     1      46.702   3.515   7.258  0.00  0.00    +0.000 A 
ENDBRANCH  11  12
ENDBRANCH   8  11
ENDBRANCH   7   8
ENDBRANCH   1   7
BRANCH   5  18
ATOM     18  C   UNL     1      48.835   7.454  12.083  0.00  0.00    +0.000 C 
BRANCH  18  19
ATOM     19  N   UNL     1      49.189   6.827  13.335  0.00  0.00    +0.000 N 
ATOM     20  C   UNL     1      49.577   7.549  14.434  0.00  0.00    +0.000 C 
ATOM     21  O   UNL     1      49.588   8.777  14.439  0.00  0.00    +0.000 OA
ATOM     22  H   UNL     1      49.455   5.848  13.268  0.00  0.00    +0.000 HD
BRANCH  20  23
ATOM     23  C   UNL     1      49.899   6.777  15.639  0.00  0.00    +0.000 A 
ATOM     24  C   UNL     1      48.887   6.126  16.333  0.00  0.00    +0.000 A 
ATOM     25  S   UNL     1      49.443   5.234  17.676  0.00  0.00    +0.000 S 
ATOM     26  C   UNL     1      51.050   5.730  17.408  0.00  0.00    +0.000 A 
ATOM     27  N   UNL     1      52.053   5.337  18.239  0.00  0.00    +0.000 NA
ATOM     28  C   UNL     1      53.213   5.812  17.935  0.00  0.00    +0.000 A 
ATOM     29  N   UNL     1      53.465   6.638  16.872  0.00  0.00    +0.000 N 
ATOM     30  C   UNL     1      52.492   7.028  15.980  0.00  0.00    +0.000 A 
ATOM     31  O   UNL     1      52.760   7.712  15.003  0.00  0.00    +0.000 OA
ATOM     32  C   UNL     1      51.162   6.541  16.294  0.00  0.00    +0.000 A 
ATOM     33  H   UNL     1      54.403   6.962  16.675  0.00  0.00    +0.000 HD
ENDBRANCH  20  23
ENDBRANCH  18  19
ENDBRANCH   5  18
TORSDOF 7
ENDMDL
