MODEL 1
REMARK VINA RESULT:    -7.630      0.000      0.000
REMARK INTER + INTRA:         -10.732
REMARK INTER:                  -9.860
REMARK INTRA:                  -0.872
REMARK UNBOUND:                -0.872
REMARK  Name = 
REMARK  5 active torsions:
REMARK  status: ('A' for Active; 'I' for Inactive)
REMARK    1  A    between atoms: C_2  and  C_19
REMARK    2  A    between atoms: N_3  and  C_4
REMARK    3  A    between atoms: C_4  and  C_5
REMARK    4  A    between atoms: C_8  and  C_9
REMARK    5  A    between atoms: C_9  and  C_10
REMARK                            x       y       z     vdW  Elec       q    Type
REMARK                         _______ _______ _______ _____ _____    ______ ____
ROOT
ATOM      1  O   UNL     1      49.928   6.905  14.454  0.00  0.00    +0.000 OA
ATOM      2  C   UNL     1      49.024   7.226  15.209  0.00  0.00    +0.000 C 
ATOM      3  N   UNL     1      47.991   8.069  14.875  0.00  0.00    +0.000 N 
ATOM      4  H   UNL     1      47.178   8.100  15.472  0.00  0.00    +0.000 HD
ENDROOT
BRANCH   2   5
ATOM      5  C   UNL     1      48.795   6.599  16.506  0.00  0.00    +0.000 A 
ATOM      6  C   UNL     1      49.253   7.148  17.691  0.00  0.00    +0.000 A 
ATOM      7  S   UNL     1      49.301   5.984  18.951  0.00  0.00    +0.000 S 
ATOM      8  C   UNL     1      48.598   4.790  17.955  0.00  0.00    +0.000 A 
ATOM      9  N   UNL     1      48.468   3.494  18.346  0.00  0.00    +0.000 NA
ATOM     10  C   UNL     1      47.870   2.738  17.484  0.00  0.00    +0.000 A 
ATOM     11  N   UNL     1      47.352   3.165  16.285  0.00  0.00    +0.000 N 
ATOM     12  C   UNL     1      47.432   4.474  15.864  0.00  0.00    +0.000 A 
ATOM     13  O   UNL     1      46.867   4.863  14.847  0.00  0.00    +0.000 OA
ATOM     14  C   UNL     1      48.210   5.315  16.741  0.00  0.00    +0.000 A 
ATOM     15  H   UNL     1      46.811   2.548  15.698  0.00  0.00    +0.000 HD
ENDBRANCH   2   5
BRANCH   3  16
ATOM     16  C   UNL     1      47.787   8.542  13.522  0.00  0.00    +0.000 C 
BRANCH  16  17
ATOM     17  C   UNL     1      46.753   7.705  12.795  0.00  0.00    +0.000 A 
ATOM     18  N   UNL     1      47.144   6.528  12.272  0.00  0.00    +0.000 NA
ATOM     19  C   UNL     1      46.217   5.824  11.594  0.00  0.00    +0.000 A 
ATOM     20  C   UNL     1      44.917   6.242  11.405  0.00  0.00    +0.000 A 
ATOM     21  C   UNL     1      44.628   7.476  11.951  0.00  0.00    +0.000 A 
ATOM     22  N   UNL     1      45.520   8.232  12.626  0.00  0.00    +0.000 NA
BRANCH  20  23
ATOM     23  C   UNL     1      43.903   5.427  10.660  0.00  0.00    +0.000 C 
BRANCH  23  24
ATOM     24  C   UNL     1      44.468   4.287   9.852  0.00  0.00    +0.000 A 
ATOM     25  C   UNL     1      45.227   4.548   8.701  0.00  0.00    +0.000 A 
ATOM     26  C   UNL     1      45.799   3.500   7.984  0.00  0.00    +0.000 A 
ATOM     27  C   UNL     1      45.590   2.207   8.432  0.00  0.00    +0.000 A 
ATOM     28  N   UNL     1      44.849   1.908   9.515  0.00  0.00    +0.000 NA
ATOM     29  C   UNL     1      44.305   2.944  10.192  0.00  0.00    +0.000 A 
ATOM     30 CL   UNL     1      43.396   2.426  11.558  0.00  0.00    +0.000 Cl
ENDBRANCH  23  24
ENDBRANCH  20  23
ENDBRANCH  16  17
ENDBRANCH   3  16
TORSDOF 5
ENDMDL
MODEL 2
REMARK VINA RESULT:    -7.449      3.725      8.129
REMARK INTER + INTRA:         -10.498
REMARK INTER:                  -9.616
REMARK INTRA:                  -0.882
REMARK UNBOUND:                -0.872
REMARK  Name = 
REMARK  5 active torsions:
REMARK  status: ('A' for Active; 'I' for Inactive)
REMARK    1  A    between atoms: C_2  and  C_19
REMARK    2  A    between atoms: N_3  and  C_4
REMARK    3  A    between atoms: C_4  and  C_5
REMARK    4  A    between atoms: C_8  and  C_9
REMARK    5  A    between atoms: C_9  and  C_10
REMARK                            x       y       z     vdW  Elec       q    Type
REMARK                         _______ _______ _______ _____ _____    ______ ____
ROOT
ATOM      1  O   UNL     1      44.883   7.240  11.512  0.00  0.00    +0.000 OA
ATOM      2  C   UNL     1      45.358   6.116  11.480  0.00  0.00    +0.000 C 
ATOM      3  N   UNL     1      46.585   5.772  11.997  0.00  0.00    +0.000 N 
ATOM      4  H   UNL     1      46.798   4.796  12.130  0.00  0.00    +0.000 HD
ENDROOT
BRANCH   2   5
ATOM      5  C   UNL     1      44.607   4.934  11.074  0.00  0.00    +0.000 A 
ATOM      6  C   UNL     1      43.571   4.412  11.829  0.00  0.00    +0.000 A 
ATOM      7  S   UNL     1      43.231   2.786  11.400  0.00  0.00    +0.000 S 
ATOM      8  C   UNL     1      44.371   2.820  10.131  0.00  0.00    +0.000 A 
ATOM      9  N   UNL     1      44.705   1.713   9.417  0.00  0.00    +0.000 NA
ATOM     10  C   UNL     1      45.550   1.932   8.462  0.00  0.00    +0.000 A 
ATOM     11  N   UNL     1      46.062   3.163   8.129  0.00  0.00    +0.000 N 
ATOM     12  C   UNL     1      45.726   4.316   8.805  0.00  0.00    +0.000 A 
ATOM     13  O   UNL     1      46.100   5.421   8.426  0.00  0.00    +0.000 OA
ATOM     14  C   UNL     1      44.889   4.086   9.958  0.00  0.00    +0.000 A 
ATOM     15  H   UNL     1      46.642   3.286   7.314  0.00  0.00    +0.000 HD
ENDBRANCH   2   5
BRANCH   3  16
ATOM     16  C   UNL     1      47.377   6.695  12.782  0.00  0.00    +0.000 C 
BRANCH  16  17
ATOM     17  C   UNL     1      47.715   6.112  14.142  0.00  0.00    +0.000 A 
ATOM     18  N   UNL     1      48.572   6.791  14.926  0.00  0.00    +0.000 NA
ATOM     19  C   UNL     1      48.890   6.231  16.110  0.00  0.00    +0.000 A 
ATOM     20  C   UNL     1      48.398   5.018  16.546  0.00  0.00    +0.000 A 
ATOM     21  C   UNL     1      47.556   4.388  15.652  0.00  0.00    +0.000 A 
ATOM     22  N   UNL     1      47.216   4.895  14.448  0.00  0.00    +0.000 NA
BRANCH  20  23
ATOM     23  C   UNL     1      48.757   4.428  17.877  0.00  0.00    +0.000 C 
BRANCH  23  24
ATOM     24  C   UNL     1      50.039   3.636  17.900  0.00  0.00    +0.000 A 
ATOM     25  C   UNL     1      50.067   2.328  17.392  0.00  0.00    +0.000 A 
ATOM     26  C   UNL     1      51.262   1.613  17.359  0.00  0.00    +0.000 A 
ATOM     27  C   UNL     1      52.405   2.223  17.846  0.00  0.00    +0.000 A 
ATOM     28  N   UNL     1      52.421   3.465  18.364  0.00  0.00    +0.000 NA
ATOM     29  C   UNL     1      51.247   4.136  18.385  0.00  0.00    +0.000 A 
ATOM     30 CL   UNL     1      51.408   5.711  19.059  0.00  0.00    +0.000 Cl
ENDBRANCH  23  24
ENDBRANCH  20  23
ENDBRANCH  16  17
ENDBRANCH   3  16
TORSDOF 5
ENDMDL
MODEL 3
REMARK VINA RESULT:    -7.403      1.494      1.708
REMARK INTER + INTRA:         -10.439
REMARK INTER:                  -9.435
REMARK INTRA:                  -1.004
REMARK UNBOUND:                -0.872
REMARK  Name = 
REMARK  5 active torsions:
REMARK  status: ('A' for Active; 'I' for Inactive)
REMARK    1  A    between atoms: C_2  and  C_19
REMARK    2  A    between atoms: N_3  and  C_4
REMARK    3  A    between atoms: C_4  and  C_5
REMARK    4  A    between atoms: C_8  and  C_9
REMARK    5  A    between atoms: C_9  and  C_10
REMARK                            x       y       z     vdW  Elec       q    Type
REMARK                         _______ _______ _______ _____ _____    ______ ____
ROOT
ATOM      1  O   UNL     1      48.513   8.066  17.124  0.00  0.00    +0.000 OA
ATOM      2  C   UNL     1      48.879   7.000  16.655  0.00  0.00    +0.000 C 
ATOM      3  N   UNL     1      48.790   6.660  15.326  0.00  0.00    +0.000 N 
ATOM      4  H   UNL     1      49.315   5.866  14.992  0.00  0.00    +0.000 HD
ENDROOT
BRANCH   2   5
ATOM      5  C   UNL     1      49.653   6.015  17.401  0.00  0.00    +0.000 A 
ATOM      6  C   UNL     1      50.767   6.351  18.149  0.00  0.00    +0.000 A 
ATOM      7  S   UNL     1      51.748   4.982  18.475  0.00  0.00    +0.000 S 
ATOM      8  C   UNL     1      50.630   3.929  17.731  0.00  0.00    +0.000 A 
ATOM      9  N   UNL     1      50.890   2.610  17.526  0.00  0.00    +0.000 NA
ATOM     10  C   UNL     1      49.911   1.954  16.993  0.00  0.00    +0.000 A 
ATOM     11  N   UNL     1      48.682   2.483  16.684  0.00  0.00    +0.000 N 
ATOM     12  C   UNL     1      48.364   3.806  16.904  0.00  0.00    +0.000 A 
ATOM     13  O   UNL     1      47.229   4.237  16.730  0.00  0.00    +0.000 OA
ATOM     14  C   UNL     1      49.477   4.595  17.374  0.00  0.00    +0.000 A 
ATOM     15  H   UNL     1      47.926   1.899  16.359  0.00  0.00    +0.000 HD
ENDBRANCH   2   5
BRANCH   3  16
ATOM     16  C   UNL     1      48.390   7.612  14.311  0.00  0.00    +0.000 C 
BRANCH  16  17
ATOM     17  C   UNL     1      47.291   7.049  13.430  0.00  0.00    +0.000 A 
ATOM     18  N   UNL     1      46.668   7.887  12.581  0.00  0.00    +0.000 NA
ATOM     19  C   UNL     1      45.667   7.372  11.841  0.00  0.00    +0.000 A 
ATOM     20  C   UNL     1      45.250   6.060  11.913  0.00  0.00    +0.000 A 
ATOM     21  C   UNL     1      45.931   5.294  12.839  0.00  0.00    +0.000 A 
ATOM     22  N   UNL     1      46.930   5.761  13.617  0.00  0.00    +0.000 NA
BRANCH  20  23
ATOM     23  C   UNL     1      44.143   5.512  11.064  0.00  0.00    +0.000 C 
BRANCH  23  24
ATOM     24  C   UNL     1      44.551   4.413  10.114  0.00  0.00    +0.000 A 
ATOM     25  C   UNL     1      45.329   4.711   8.986  0.00  0.00    +0.000 A 
ATOM     26  C   UNL     1      45.755   3.691   8.137  0.00  0.00    +0.000 A 
ATOM     27  C   UNL     1      45.383   2.392   8.435  0.00  0.00    +0.000 A 
ATOM     28  N   UNL     1      44.618   2.063   9.492  0.00  0.00    +0.000 NA
ATOM     29  C   UNL     1      44.217   3.072  10.298  0.00  0.00    +0.000 A 
ATOM     30 CL   UNL     1      43.259   2.514  11.614  0.00  0.00    +0.000 Cl
ENDBRANCH  23  24
ENDBRANCH  20  23
ENDBRANCH  16  17
ENDBRANCH   3  16
TORSDOF 5
ENDMDL
MODEL 4
REMARK VINA RESULT:    -7.396      2.042      3.538
REMARK INTER + INTRA:         -10.429
REMARK INTER:                  -9.690
REMARK INTRA:                  -0.739
REMARK UNBOUND:                -0.872
REMARK  Name = 
REMARK  5 active torsions:
REMARK  status: ('A' for Active; 'I' for Inactive)
REMARK    1  A    between atoms: C_2  and  C_19
REMARK    2  A    between atoms: N_3  and  C_4
REMARK    3  A    between atoms: C_4  and  C_5
REMARK    4  A    between atoms: C_8  and  C_9
REMARK    5  A    between atoms: C_9  and  C_10
REMARK                            x       y       z     vdW  Elec       q    Type
REMARK                         _______ _______ _______ _____ _____    ______ ____
ROOT
ATOM      1  O   UNL     1      45.904   3.991  14.050  0.00  0.00    +0.000 OA
ATOM      2  C   UNL     1      46.479   5.064  14.151  0.00  0.00    +0.000 C 
ATOM      3  N   UNL     1      46.022   6.246  13.618  0.00  0.00    +0.000 N 
ATOM      4  H   UNL     1      46.432   7.111  13.937  0.00  0.00    +0.000 HD
ENDROOT
BRANCH   2   5
ATOM      5  C   UNL     1      47.623   5.286  15.025  0.00  0.00    +0.000 A 
ATOM      6  C   UNL     1      47.781   4.626  16.231  0.00  0.00    +0.000 A 
ATOM      7  S   UNL     1      48.896   5.434  17.255  0.00  0.00    +0.000 S 
ATOM      8  C   UNL     1      49.260   6.585  16.049  0.00  0.00    +0.000 A 
ATOM      9  N   UNL     1      50.047   7.669  16.285  0.00  0.00    +0.000 NA
ATOM     10  C   UNL     1      50.255   8.409  15.245  0.00  0.00    +0.000 A 
ATOM     11  N   UNL     1      49.782   8.145  13.981  0.00  0.00    +0.000 N 
ATOM     12  C   UNL     1      49.009   7.042  13.691  0.00  0.00    +0.000 A 
ATOM     13  O   UNL     1      48.691   6.759  12.541  0.00  0.00    +0.000 OA
ATOM     14  C   UNL     1      48.649   6.269  14.855  0.00  0.00    +0.000 A 
ATOM     15  H   UNL     1      50.058   8.707  13.191  0.00  0.00    +0.000 HD
ENDBRANCH   2   5
BRANCH   3  16
ATOM     16  C   UNL     1      44.714   6.365  13.009  0.00  0.00    +0.000 C 
BRANCH  16  17
ATOM     17  C   UNL     1      44.700   5.770  11.614  0.00  0.00    +0.000 A 
ATOM     18  N   UNL     1      43.672   4.970  11.277  0.00  0.00    +0.000 NA
ATOM     19  C   UNL     1      43.705   4.420  10.048  0.00  0.00    +0.000 A 
ATOM     20  C   UNL     1      44.721   4.624   9.138  0.00  0.00    +0.000 A 
ATOM     21  C   UNL     1      45.743   5.432   9.595  0.00  0.00    +0.000 A 
ATOM     22  N   UNL     1      45.770   5.996  10.821  0.00  0.00    +0.000 NA
BRANCH  20  23
ATOM     23  C   UNL     1      44.721   4.011   7.770  0.00  0.00    +0.000 C 
BRANCH  23  24
ATOM     24  C   UNL     1      45.780   2.964   7.539  0.00  0.00    +0.000 A 
ATOM     25  C   UNL     1      46.878   3.244   6.712  0.00  0.00    +0.000 A 
ATOM     26  C   UNL     1      47.888   2.299   6.541  0.00  0.00    +0.000 A 
ATOM     27  C   UNL     1      47.770   1.087   7.198  0.00  0.00    +0.000 A 
ATOM     28  N   UNL     1      46.724   0.766   7.981  0.00  0.00    +0.000 NA
ATOM     29  C   UNL     1      45.758   1.700   8.129  0.00  0.00    +0.000 A 
ATOM     30 CL   UNL     1      44.488   1.169   9.161  0.00  0.00    +0.000 Cl
ENDBRANCH  23  24
ENDBRANCH  20  23
ENDBRANCH  16  17
ENDBRANCH   3  16
TORSDOF 5
ENDMDL
MODEL 5
REMARK VINA RESULT:    -7.335      2.388      3.591
REMARK INTER + INTRA:         -10.351
REMARK INTER:                 -10.626
REMARK INTRA:                   0.276
REMARK UNBOUND:                -0.872
REMARK  Name = 
REMARK  5 active torsions:
REMARK  status: ('A' for Active; 'I' for Inactive)
REMARK    1  A    between atoms: C_2  and  C_19
REMARK    2  A    between atoms: N_3  and  C_4
REMARK    3  A    between atoms: C_4  and  C_5
REMARK    4  A    between atoms: C_8  and  C_9
REMARK    5  A    between atoms: C_9  and  C_10
REMARK                            x       y       z     vdW  Elec       q    Type
REMARK                         _______ _______ _______ _____ _____    ______ ____
ROOT
ATOM      1  O   UNL     1      46.535   3.816  14.393  0.00  0.00    +0.000 OA
ATOM      2  C   UNL     1      46.655   5.022  14.248  0.00  0.00    +0.000 C 
ATOM      3  N   UNL     1      45.715   5.833  13.658  0.00  0.00    +0.000 N 
ATOM      4  H   UNL     1      45.790   6.832  13.782  0.00  0.00    +0.000 HD
ENDROOT
BRANCH   2   5
ATOM      5  C   UNL     1      47.718   5.807  14.863  0.00  0.00    +0.000 A 
ATOM      6  C   UNL     1      48.351   6.849  14.209  0.00  0.00    +0.000 A 
ATOM      7  S   UNL     1      49.855   7.235  14.938  0.00  0.00    +0.000 S 
ATOM      8  C   UNL     1      49.605   6.105  16.192  0.00  0.00    +0.000 A 
ATOM      9  N   UNL     1      50.562   5.806  17.110  0.00  0.00    +0.000 NA
ATOM     10  C   UNL     1      50.183   4.964  18.016  0.00  0.00    +0.000 A 
ATOM     11  N   UNL     1      48.923   4.423  18.113  0.00  0.00    +0.000 N 
ATOM     12  C   UNL     1      47.914   4.724  17.224  0.00  0.00    +0.000 A 
ATOM     13  O   UNL     1      46.766   4.324  17.389  0.00  0.00    +0.000 OA
ATOM     14  C   UNL     1      48.342   5.556  16.126  0.00  0.00    +0.000 A 
ATOM     15  H   UNL     1      48.659   3.847  18.897  0.00  0.00    +0.000 HD
ENDBRANCH   2   5
BRANCH   3  16
ATOM     16  C   UNL     1      44.401   5.351  13.287  0.00  0.00    +0.000 C 
BRANCH  16  17
ATOM     17  C   UNL     1      44.469   4.448  12.069  0.00  0.00    +0.000 A 
ATOM     18  N   UNL     1      43.880   3.241  12.143  0.00  0.00    +0.000 NA
ATOM     19  C   UNL     1      43.992   2.442  11.064  0.00  0.00    +0.000 A 
ATOM     20  C   UNL     1      44.673   2.787   9.915  0.00  0.00    +0.000 A 
ATOM     21  C   UNL     1      45.269   4.031   9.956  0.00  0.00    +0.000 A 
ATOM     22  N   UNL     1      45.203   4.866  11.015  0.00  0.00    +0.000 NA
BRANCH  20  23
ATOM     23  C   UNL     1      44.765   1.882   8.723  0.00  0.00    +0.000 C 
BRANCH  23  24
ATOM     24  C   UNL     1      45.943   2.137   7.817  0.00  0.00    +0.000 A 
ATOM     25  C   UNL     1      46.218   3.438   7.370  0.00  0.00    +0.000 A 
ATOM     26  C   UNL     1      47.338   3.687   6.579  0.00  0.00    +0.000 A 
ATOM     27  C   UNL     1      48.154   2.622   6.245  0.00  0.00    +0.000 A 
ATOM     28  N   UNL     1      47.916   1.354   6.631  0.00  0.00    +0.000 NA
ATOM     29  C   UNL     1      46.823   1.140   7.396  0.00  0.00    +0.000 A 
ATOM     30 CL   UNL     1      46.642  -0.515   7.828  0.00  0.00    +0.000 Cl
ENDBRANCH  23  24
ENDBRANCH  20  23
ENDBRANCH  16  17
ENDBRANCH   3  16
TORSDOF 5
ENDMDL
MODEL 6
REMARK VINA RESULT:    -7.226      2.118      2.589
REMARK INTER + INTRA:         -10.210
REMARK INTER:                  -9.196
REMARK INTRA:                  -1.014
REMARK UNBOUND:                -0.872
REMARK  Name = 
REMARK  5 active torsions:
REMARK  status: ('A' for Active; 'I' for Inactive)
REMARK    1  A    between atoms: C_2  and  C_19
REMARK    2  A    between atoms: N_3  and  C_4
REMARK    3  A    between atoms: C_4  and  C_5
REMARK    4  A    between atoms: C_8  and  C_9
REMARK    5  A    between atoms: C_9  and  C_10
REMARK                            x       y       z     vdW  Elec       q    Type
REMARK                         _______ _______ _______ _____ _____    ______ ____
ROOT
ATOM      1  O   UNL     1      50.305   7.724  16.726  0.00  0.00    +0.000 OA
ATOM      2  C   UNL     1      49.088   7.808  16.777  0.00  0.00    +0.000 C 
ATOM      3  N   UNL     1      48.234   7.346  15.804  0.00  0.00    +0.000 N 
ATOM      4  H   UNL     1      47.254   7.252  16.025  0.00  0.00    +0.000 HD
ENDROOT
BRANCH   2   5
ATOM      5  C   UNL     1      48.357   8.225  17.967  0.00  0.00    +0.000 A 
ATOM      6  C   UNL     1      48.222   9.552  18.334  0.00  0.00    +0.000 A 
ATOM      7  S   UNL     1      47.787   9.712  19.986  0.00  0.00    +0.000 S 
ATOM      8  C   UNL     1      47.657   8.021  20.177  0.00  0.00    +0.000 A 
ATOM      9  N   UNL     1      47.447   7.434  21.385  0.00  0.00    +0.000 NA
ATOM     10  C   UNL     1      47.328   6.147  21.336  0.00  0.00    +0.000 A 
ATOM     11  N   UNL     1      47.357   5.395  20.186  0.00  0.00    +0.000 N 
ATOM     12  C   UNL     1      47.535   5.952  18.938  0.00  0.00    +0.000 A 
ATOM     13  O   UNL     1      47.446   5.284  17.913  0.00  0.00    +0.000 OA
ATOM     14  C   UNL     1      47.804   7.369  18.971  0.00  0.00    +0.000 A 
ATOM     15  H   UNL     1      47.162   4.406  20.201  0.00  0.00    +0.000 HD
ENDBRANCH   2   5
BRANCH   3  16
ATOM     16  C   UNL     1      48.696   6.560  14.680  0.00  0.00    +0.000 C 
BRANCH  16  17
ATOM     17  C   UNL     1      47.572   6.289  13.697  0.00  0.00    +0.000 A 
ATOM     18  N   UNL     1      46.788   5.217  13.912  0.00  0.00    +0.000 NA
ATOM     19  C   UNL     1      45.825   4.974  13.002  0.00  0.00    +0.000 A 
ATOM     20  C   UNL     1      45.612   5.747  11.880  0.00  0.00    +0.000 A 
ATOM     21  C   UNL     1      46.492   6.801  11.735  0.00  0.00    +0.000 A 
ATOM     22  N   UNL     1      47.483   7.082  12.606  0.00  0.00    +0.000 NA
BRANCH  20  23
ATOM     23  C   UNL     1      44.520   5.461  10.893  0.00  0.00    +0.000 C 
BRANCH  23  24
ATOM     24  C   UNL     1      44.815   4.350   9.917  0.00  0.00    +0.000 A 
ATOM     25  C   UNL     1      45.600   4.602   8.781  0.00  0.00    +0.000 A 
ATOM     26  C   UNL     1      45.923   3.566   7.907  0.00  0.00    +0.000 A 
ATOM     27  C   UNL     1      45.443   2.298   8.187  0.00  0.00    +0.000 A 
ATOM     28  N   UNL     1      44.668   2.016   9.250  0.00  0.00    +0.000 NA
ATOM     29  C   UNL     1      44.369   3.039  10.081  0.00  0.00    +0.000 A 
ATOM     30 CL   UNL     1      43.385   2.541  11.402  0.00  0.00    +0.000 Cl
ENDBRANCH  23  24
ENDBRANCH  20  23
ENDBRANCH  16  17
ENDBRANCH   3  16
TORSDOF 5
ENDMDL
MODEL 7
REMARK VINA RESULT:    -6.990      2.433      3.207
REMARK INTER + INTRA:          -9.904
REMARK INTER:                  -8.974
REMARK INTRA:                  -0.931
REMARK UNBOUND:                -0.872
REMARK  Name = 
REMARK  5 active torsions:
REMARK  status: ('A' for Active; 'I' for Inactive)
REMARK    1  A    between atoms: C_2  and  C_19
REMARK    2  A    between atoms: N_3  and  C_4
REMARK    3  A    between atoms: C_4  and  C_5
REMARK    4  A    between atoms: C_8  and  C_9
REMARK    5  A    between atoms: C_9  and  C_10
REMARK                            x       y       z     vdW  Elec       q    Type
REMARK                         _______ _______ _______ _____ _____    ______ ____
ROOT
ATOM      1  O   UNL     1      49.750   5.035  16.651  0.00  0.00    +0.000 OA
ATOM      2  C   UNL     1      48.866   5.864  16.501  0.00  0.00    +0.000 C 
ATOM      3  N   UNL     1      47.700   5.643  15.807  0.00  0.00    +0.000 N 
ATOM      4  H   UNL     1      46.937   6.293  15.923  0.00  0.00    +0.000 HD
ENDROOT
BRANCH   2   5
ATOM      5  C   UNL     1      48.827   7.138  17.208  0.00  0.00    +0.000 A 
ATOM      6  C   UNL     1      49.437   8.280  16.722  0.00  0.00    +0.000 A 
ATOM      7  S   UNL     1      49.673   9.448  17.957  0.00  0.00    +0.000 S 
ATOM      8  C   UNL     1      48.854   8.486  19.105  0.00  0.00    +0.000 A 
ATOM      9  N   UNL     1      48.796   8.809  20.423  0.00  0.00    +0.000 NA
ATOM     10  C   UNL     1      48.093   7.993  21.139  0.00  0.00    +0.000 A 
ATOM     11  N   UNL     1      47.409   6.904  20.653  0.00  0.00    +0.000 N 
ATOM     12  C   UNL     1      47.414   6.558  19.319  0.00  0.00    +0.000 A 
ATOM     13  O   UNL     1      46.710   5.655  18.882  0.00  0.00    +0.000 OA
ATOM     14  C   UNL     1      48.296   7.371  18.516  0.00  0.00    +0.000 A 
ATOM     15  H   UNL     1      46.800   6.361  21.244  0.00  0.00    +0.000 HD
ENDBRANCH   2   5
BRANCH   3  16
ATOM     16  C   UNL     1      47.331   4.333  15.313  0.00  0.00    +0.000 C 
BRANCH  16  17
ATOM     17  C   UNL     1      46.570   4.432  14.004  0.00  0.00    +0.000 A 
ATOM     18  N   UNL     1      46.113   3.294  13.450  0.00  0.00    +0.000 NA
ATOM     19  C   UNL     1      45.478   3.404  12.267  0.00  0.00    +0.000 A 
ATOM     20  C   UNL     1      45.285   4.598  11.604  0.00  0.00    +0.000 A 
ATOM     21  C   UNL     1      45.822   5.699  12.240  0.00  0.00    +0.000 A 
ATOM     22  N   UNL     1      46.480   5.645  13.417  0.00  0.00    +0.000 NA
BRANCH  20  23
ATOM     23  C   UNL     1      44.558   4.691  10.295  0.00  0.00    +0.000 C 
BRANCH  23  24
ATOM     24  C   UNL     1      45.283   4.088   9.119  0.00  0.00    +0.000 A 
ATOM     25  C   UNL     1      46.151   4.876   8.348  0.00  0.00    +0.000 A 
ATOM     26  C   UNL     1      46.866   4.309   7.295  0.00  0.00    +0.000 A 
ATOM     27  C   UNL     1      46.687   2.963   7.031  0.00  0.00    +0.000 A 
ATOM     28  N   UNL     1      45.848   2.174   7.728  0.00  0.00    +0.000 NA
ATOM     29  C   UNL     1      45.166   2.750   8.743  0.00  0.00    +0.000 A 
ATOM     30 CL   UNL     1      44.141   1.633   9.557  0.00  0.00    +0.000 Cl
ENDBRANCH  23  24
ENDBRANCH  20  23
ENDBRANCH  16  17
ENDBRANCH   3  16
TORSDOF 5
ENDMDL
MODEL 8
REMARK VINA RESULT:    -6.972      2.799      4.636
REMARK INTER + INTRA:          -9.882
REMARK INTER:                  -9.415
REMARK INTRA:                  -0.466
REMARK UNBOUND:                -0.872
REMARK  Name = 
REMARK  5 active torsions:
REMARK  status: ('A' for Active; 'I' for Inactive)
REMARK    1  A    between atoms: C_2  and  C_19
REMARK    2  A    between atoms: N_3  and  C_4
REMARK    3  A    between atoms: C_4  and  C_5
REMARK    4  A    between atoms: C_8  and  C_9
REMARK    5  A    between atoms: C_9  and  C_10
REMARK                            x       y       z     vdW  Elec       q    Type
REMARK                         _______ _______ _______ _____ _____    ______ ____
ROOT
ATOM      1  O   UNL     1      47.502   4.674  13.918  0.00  0.00    +0.000 OA
ATOM      2  C   UNL     1      47.331   5.870  13.740  0.00  0.00    +0.000 C 
ATOM      3  N   UNL     1      46.142   6.439  13.349  0.00  0.00    +0.000 N 
ATOM      4  H   UNL     1      46.027   7.436  13.445  0.00  0.00    +0.000 HD
ENDROOT
BRANCH   2   5
ATOM      5  C   UNL     1      48.305   6.888  14.114  0.00  0.00    +0.000 A 
ATOM      6  C   UNL     1      48.848   6.971  15.384  0.00  0.00    +0.000 A 
ATOM      7  S   UNL     1      49.534   8.516  15.680  0.00  0.00    +0.000 S 
ATOM      8  C   UNL     1      49.220   9.027  14.082  0.00  0.00    +0.000 A 
ATOM      9  N   UNL     1      49.426  10.306  13.670  0.00  0.00    +0.000 NA
ATOM     10  C   UNL     1      49.181  10.504  12.415  0.00  0.00    +0.000 A 
ATOM     11  N   UNL     1      48.788   9.533  11.525  0.00  0.00    +0.000 N 
ATOM     12  C   UNL     1      48.599   8.219  11.894  0.00  0.00    +0.000 A 
ATOM     13  O   UNL     1      48.360   7.344  11.068  0.00  0.00    +0.000 OA
ATOM     14  C   UNL     1      48.735   7.992  13.313  0.00  0.00    +0.000 A 
ATOM     15  H   UNL     1      48.705   9.728  10.540  0.00  0.00    +0.000 HD
ENDBRANCH   2   5
BRANCH   3  16
ATOM     16  C   UNL     1      44.914   5.677  13.262  0.00  0.00    +0.000 C 
BRANCH  16  17
ATOM     17  C   UNL     1      44.909   4.775  12.043  0.00  0.00    +0.000 A 
ATOM     18  N   UNL     1      44.546   5.308  10.862  0.00  0.00    +0.000 NA
ATOM     19  C   UNL     1      44.508   4.476   9.803  0.00  0.00    +0.000 A 
ATOM     20  C   UNL     1      44.809   3.132   9.867  0.00  0.00    +0.000 A 
ATOM     21  C   UNL     1      45.135   2.679  11.130  0.00  0.00    +0.000 A 
ATOM     22  N   UNL     1      45.174   3.463  12.228  0.00  0.00    +0.000 NA
BRANCH  20  23
ATOM     23  C   UNL     1      44.775   2.234   8.667  0.00  0.00    +0.000 C 
BRANCH  23  24
ATOM     24  C   UNL     1      45.960   2.359   7.742  0.00  0.00    +0.000 A 
ATOM     25  C   UNL     1      46.303   3.607   7.202  0.00  0.00    +0.000 A 
ATOM     26  C   UNL     1      47.431   3.736   6.394  0.00  0.00    +0.000 A 
ATOM     27  C   UNL     1      48.186   2.606   6.136  0.00  0.00    +0.000 A 
ATOM     28  N   UNL     1      47.881   1.384   6.613  0.00  0.00    +0.000 NA
ATOM     29  C   UNL     1      46.781   1.287   7.393  0.00  0.00    +0.000 A 
ATOM     30 CL   UNL     1      46.512  -0.320   7.944  0.00  0.00    +0.000 Cl
ENDBRANCH  23  24
ENDBRANCH  20  23
ENDBRANCH  16  17
ENDBRANCH   3  16
TORSDOF 5
ENDMDL
MODEL 9
REMARK VINA RESULT:    -6.766      1.971      2.525
REMARK INTER + INTRA:          -9.615
REMARK INTER:                  -8.695
REMARK INTRA:                  -0.920
REMARK UNBOUND:                -0.872
REMARK  Name = 
REMARK  5 active torsions:
REMARK  status: ('A' for Active; 'I' for Inactive)
REMARK    1  A    between atoms: C_2  and  C_19
REMARK    2  A    between atoms: N_3  and  C_4
REMARK    3  A    between atoms: C_4  and  C_5
REMARK    4  A    between atoms: C_8  and  C_9
REMARK    5  A    between atoms: C_9  and  C_10
REMARK                            x       y       z     vdW  Elec       q    Type
REMARK                         _______ _______ _______ _____ _____    ______ ____
ROOT
ATOM      1  O   UNL     1      48.425   8.273  17.131  0.00  0.00    +0.000 OA
ATOM      2  C   UNL     1      48.414   7.052  17.098  0.00  0.00    +0.000 C 
ATOM      3  N   UNL     1      48.445   6.304  15.945  0.00  0.00    +0.000 N 
ATOM      4  H   UNL     1      48.661   5.320  16.011  0.00  0.00    +0.000 HD
ENDROOT
BRANCH   2   5
ATOM      5  C   UNL     1      48.573   6.211  18.277  0.00  0.00    +0.000 A 
ATOM      6  C   UNL     1      47.573   6.051  19.220  0.00  0.00    +0.000 A 
ATOM      7  S   UNL     1      48.192   5.456  20.706  0.00  0.00    +0.000 S 
ATOM      8  C   UNL     1      49.762   5.295  20.056  0.00  0.00    +0.000 A 
ATOM      9  N   UNL     1      50.839   4.963  20.816  0.00  0.00    +0.000 NA
ATOM     10  C   UNL     1      51.940   4.839  20.149  0.00  0.00    +0.000 A 
ATOM     11  N   UNL     1      52.057   4.976  18.787  0.00  0.00    +0.000 N 
ATOM     12  C   UNL     1      50.987   5.279  17.974  0.00  0.00    +0.000 A 
ATOM     13  O   UNL     1      51.083   5.286  16.752  0.00  0.00    +0.000 OA
ATOM     14  C   UNL     1      49.771   5.555  18.702  0.00  0.00    +0.000 A 
ATOM     15  H   UNL     1      52.923   4.772  18.312  0.00  0.00    +0.000 HD
ENDBRANCH   2   5
BRANCH   3  16
ATOM     16  C   UNL     1      48.658   6.900  14.643  0.00  0.00    +0.000 C 
BRANCH  16  17
ATOM     17  C   UNL     1      47.518   6.577  13.696  0.00  0.00    +0.000 A 
ATOM     18  N   UNL     1      47.131   5.293  13.586  0.00  0.00    +0.000 NA
ATOM     19  C   UNL     1      46.145   5.026  12.706  0.00  0.00    +0.000 A 
ATOM     20  C   UNL     1      45.532   5.981  11.922  0.00  0.00    +0.000 A 
ATOM     21  C   UNL     1      46.027   7.259  12.086  0.00  0.00    +0.000 A 
ATOM     22  N   UNL     1      47.022   7.581  12.940  0.00  0.00    +0.000 NA
BRANCH  20  23
ATOM     23  C   UNL     1      44.426   5.656  10.964  0.00  0.00    +0.000 C 
BRANCH  23  24
ATOM     24  C   UNL     1      44.705   4.503  10.033  0.00  0.00    +0.000 A 
ATOM     25  C   UNL     1      45.463   4.706   8.871  0.00  0.00    +0.000 A 
ATOM     26  C   UNL     1      45.772   3.632   8.037  0.00  0.00    +0.000 A 
ATOM     27  C   UNL     1      45.304   2.377   8.384  0.00  0.00    +0.000 A 
ATOM     28  N   UNL     1      44.553   2.140   9.477  0.00  0.00    +0.000 NA
ATOM     29  C   UNL     1      44.268   3.200  10.267  0.00  0.00    +0.000 A 
ATOM     30 CL   UNL     1      43.315   2.759  11.630  0.00  0.00    +0.000 Cl
ENDBRANCH  23  24
ENDBRANCH  20  23
ENDBRANCH  16  17
ENDBRANCH   3  16
TORSDOF 5
ENDMDL
