MODEL 1
REMARK VINA RESULT:    -8.657      0.000      0.000
REMARK INTER + INTRA:         -12.849
REMARK INTER:                 -12.200
REMARK INTRA:                  -0.649
REMARK UNBOUND:                -0.649
REMARK  Name = 
REMARK  7 active torsions:
REMARK  status: ('A' for Active; 'I' for Inactive)
REMARK    1  A    between atoms: C_2  and  C_3
REMARK    2  A    between atoms: C_3  and  C_4
REMARK    3  A    between atoms: C_3  and  N_11
REMARK    4  A    between atoms: C_4  and  C_5
REMARK    5  A    between atoms: C_15  and  C_16
REMARK    6  A    between atoms: C_16  and  N_17
REMARK    7  A    between atoms: C_18  and  C_20
REMARK                            x       y       z     vdW  Elec       q    Type
REMARK                         _______ _______ _______ _____ _____    ______ ____
ROOT
ATOM      1  N   UNL     1      45.283   3.179  11.972  0.00  0.00    +0.000 N 
ATOM      2  C   UNL     1      46.005   4.075  12.779  0.00  0.00    +0.000 A 
ATOM      3  C   UNL     1      46.580   3.586  13.950  0.00  0.00    +0.000 A 
ATOM      4  C   UNL     1      47.329   4.439  14.759  0.00  0.00    +0.000 A 
ATOM      5  C   UNL     1      47.483   5.773  14.392  0.00  0.00    +0.000 A 
ATOM      6  C   UNL     1      46.870   6.177  13.214  0.00  0.00    +0.000 A 
ATOM      7  N   UNL     1      46.136   5.364  12.417  0.00  0.00    +0.000 NA
ATOM      8  H   UNL     1      45.899   2.402  11.749  0.00  0.00    +0.000 HD
ENDROOT
BRANCH   1   9
ATOM      9  C   UNL     1      44.700   3.783  10.756  0.00  0.00    +0.000 C 
BRANCH   9  11
ATOM     10  N   UNL     1      42.462   5.087  11.335  0.00  0.00    +0.000 NA
ATOM     11  C   UNL     1      43.428   4.499  11.053  0.00  0.00    +0.000 C 
ENDBRANCH   9  11
BRANCH   9  12
ATOM     12  C   UNL     1      44.387   2.667   9.732  0.00  0.00    +0.000 C 
BRANCH  12  13
ATOM     13  C   UNL     1      45.347   2.543   8.562  0.00  0.00    +0.000 A 
ATOM     14  C   UNL     1      45.649   3.666   7.779  0.00  0.00    +0.000 A 
ATOM     15  C   UNL     1      46.660   3.614   6.818  0.00  0.00    +0.000 A 
ATOM     16  C   UNL     1      47.373   2.434   6.619  0.00  0.00    +0.000 A 
ATOM     17  C   UNL     1      47.051   1.298   7.355  0.00  0.00    +0.000 A 
ATOM     18  C   UNL     1      46.042   1.348   8.320  0.00  0.00    +0.000 A 
ENDBRANCH  12  13
ENDBRANCH   9  12
ENDBRANCH   1   9
BRANCH   5  19
ATOM     19  C   UNL     1      48.330   6.724  15.184  0.00  0.00    +0.000 C 
BRANCH  19  20
ATOM     20  N   UNL     1      49.471   6.041  15.742  0.00  0.00    +0.000 N 
ATOM     21  C   UNL     1      49.497   5.642  17.053  0.00  0.00    +0.000 C 
ATOM     22  O   UNL     1      48.537   5.810  17.801  0.00  0.00    +0.000 OA
ATOM     23  H   UNL     1      50.342   6.087  15.222  0.00  0.00    +0.000 HD
BRANCH  21  24
ATOM     24  C   UNL     1      50.708   4.942  17.497  0.00  0.00    +0.000 A 
ATOM     25  C   UNL     1      51.771   5.673  18.011  0.00  0.00    +0.000 A 
ATOM     26  S   UNL     1      53.078   4.708  18.530  0.00  0.00    +0.000 S 
ATOM     27  C   UNL     1      52.291   3.282  18.038  0.00  0.00    +0.000 A 
ATOM     28  N   UNL     1      52.890   2.069  18.182  0.00  0.00    +0.000 NA
ATOM     29  C   UNL     1      52.196   1.076  17.735  0.00  0.00    +0.000 A 
ATOM     30  N   UNL     1      50.954   1.186  17.162  0.00  0.00    +0.000 N 
ATOM     31  C   UNL     1      50.296   2.384  17.032  0.00  0.00    +0.000 A 
ATOM     32  O   UNL     1      49.163   2.442  16.567  0.00  0.00    +0.000 OA
ATOM     33  C   UNL     1      51.041   3.538  17.502  0.00  0.00    +0.000 A 
ATOM     34  H   UNL     1      50.459   0.366  16.843  0.00  0.00    +0.000 HD
ENDBRANCH  21  24
ENDBRANCH  19  20
ENDBRANCH   5  19
TORSDOF 7
ENDMDL
MODEL 2
REMARK VINA RESULT:    -8.355      2.506      3.708
REMARK INTER + INTRA:         -12.423
REMARK INTER:                 -11.677
REMARK INTRA:                  -0.746
REMARK UNBOUND:                -0.649
REMARK  Name = 
REMARK  7 active torsions:
REMARK  status: ('A' for Active; 'I' for Inactive)
REMARK    1  A    between atoms: C_2  and  C_3
REMARK    2  A    between atoms: C_3  and  C_4
REMARK    3  A    between atoms: C_3  and  N_11
REMARK    4  A    between atoms: C_4  and  C_5
REMARK    5  A    between atoms: C_15  and  C_16
REMARK    6  A    between atoms: C_16  and  N_17
REMARK    7  A    between atoms: C_18  and  C_20
REMARK                            x       y       z     vdW  Elec       q    Type
REMARK                         _______ _______ _______ _____ _____    ______ ____
ROOT
ATOM      1  N   UNL     1      45.217   3.230  11.861  0.00  0.00    +0.000 N 
ATOM      2  C   UNL     1      45.992   4.109  12.636  0.00  0.00    +0.000 A 
ATOM      3  C   UNL     1      46.515   3.638  13.837  0.00  0.00    +0.000 A 
ATOM      4  C   UNL     1      47.314   4.473  14.617  0.00  0.00    +0.000 A 
ATOM      5  C   UNL     1      47.570   5.773  14.189  0.00  0.00    +0.000 A 
ATOM      6  C   UNL     1      47.002   6.162  12.984  0.00  0.00    +0.000 A 
ATOM      7  N   UNL     1      46.222   5.367  12.215  0.00  0.00    +0.000 NA
ATOM      8  H   UNL     1      45.777   2.400  11.685  0.00  0.00    +0.000 HD
ENDROOT
BRANCH   1   9
ATOM      9  C   UNL     1      44.695   3.815  10.607  0.00  0.00    +0.000 C 
BRANCH   9  11
ATOM     10  N   UNL     1      42.496   5.232  11.054  0.00  0.00    +0.000 NA
ATOM     11  C   UNL     1      43.442   4.585  10.841  0.00  0.00    +0.000 C 
ENDBRANCH   9  11
BRANCH   9  12
ATOM     12  C   UNL     1      44.373   2.677   9.609  0.00  0.00    +0.000 C 
BRANCH  12  13
ATOM     13  C   UNL     1      45.347   2.501   8.459  0.00  0.00    +0.000 A 
ATOM     14  C   UNL     1      45.655   3.587   7.627  0.00  0.00    +0.000 A 
ATOM     15  C   UNL     1      46.678   3.493   6.681  0.00  0.00    +0.000 A 
ATOM     16  C   UNL     1      47.396   2.308   6.545  0.00  0.00    +0.000 A 
ATOM     17  C   UNL     1      47.068   1.206   7.331  0.00  0.00    +0.000 A 
ATOM     18  C   UNL     1      46.048   1.298   8.281  0.00  0.00    +0.000 A 
ENDBRANCH  12  13
ENDBRANCH   9  12
ENDBRANCH   1   9
BRANCH   5  19
ATOM     19  C   UNL     1      48.474   6.698  14.948  0.00  0.00    +0.000 C 
BRANCH  19  20
ATOM     20  N   UNL     1      48.274   6.548  16.368  0.00  0.00    +0.000 N 
ATOM     21  C   UNL     1      49.196   5.911  17.159  0.00  0.00    +0.000 C 
ATOM     22  O   UNL     1      50.251   5.478  16.703  0.00  0.00    +0.000 OA
ATOM     23  H   UNL     1      47.335   6.694  16.725  0.00  0.00    +0.000 HD
BRANCH  21  24
ATOM     24  C   UNL     1      48.885   5.837  18.591  0.00  0.00    +0.000 A 
ATOM     25  C   UNL     1      49.144   4.663  19.287  0.00  0.00    +0.000 A 
ATOM     26  S   UNL     1      48.776   4.758  20.949  0.00  0.00    +0.000 S 
ATOM     27  C   UNL     1      48.210   6.355  20.789  0.00  0.00    +0.000 A 
ATOM     28  N   UNL     1      47.718   7.033  21.861  0.00  0.00    +0.000 NA
ATOM     29  C   UNL     1      47.291   8.220  21.590  0.00  0.00    +0.000 A 
ATOM     30  N   UNL     1      47.316   8.794  20.344  0.00  0.00    +0.000 N 
ATOM     31  C   UNL     1      47.838   8.163  19.242  0.00  0.00    +0.000 A 
ATOM     32  O   UNL     1      47.898   8.724  18.155  0.00  0.00    +0.000 OA
ATOM     33  C   UNL     1      48.317   6.814  19.488  0.00  0.00    +0.000 A 
ATOM     34  H   UNL     1      46.975   9.734  20.203  0.00  0.00    +0.000 HD
ENDBRANCH  21  24
ENDBRANCH  19  20
ENDBRANCH   5  19
TORSDOF 7
ENDMDL
MODEL 3
REMARK VINA RESULT:    -8.227      2.536      3.011
REMARK INTER + INTRA:         -12.243
REMARK INTER:                 -11.488
REMARK INTRA:                  -0.755
REMARK UNBOUND:                -0.649
REMARK  Name = 
REMARK  7 active torsions:
REMARK  status: ('A' for Active; 'I' for Inactive)
REMARK    1  A    between atoms: C_2  and  C_3
REMARK    2  A    between atoms: C_3  and  C_4
REMARK    3  A    between atoms: C_3  and  N_11
REMARK    4  A    between atoms: C_4  and  C_5
REMARK    5  A    between atoms: C_15  and  C_16
REMARK    6  A    between atoms: C_16  and  N_17
REMARK    7  A    between atoms: C_18  and  C_20
REMARK                            x       y       z     vdW  Elec       q    Type
REMARK                         _______ _______ _______ _____ _____    ______ ____
ROOT
ATOM      1  N   UNL     1      45.216   3.607  11.938  0.00  0.00    +0.000 N 
ATOM      2  C   UNL     1      46.057   4.516  12.602  0.00  0.00    +0.000 A 
ATOM      3  C   UNL     1      46.615   4.127  13.818  0.00  0.00    +0.000 A 
ATOM      4  C   UNL     1      47.478   4.991  14.489  0.00  0.00    +0.000 A 
ATOM      5  C   UNL     1      47.763   6.239  13.940  0.00  0.00    +0.000 A 
ATOM      6  C   UNL     1      47.158   6.548  12.730  0.00  0.00    +0.000 A 
ATOM      7  N   UNL     1      46.314   5.723  12.065  0.00  0.00    +0.000 NA
ATOM      8  H   UNL     1      45.736   2.743  11.812  0.00  0.00    +0.000 HD
ENDROOT
BRANCH   1   9
ATOM      9  C   UNL     1      44.661   4.104  10.662  0.00  0.00    +0.000 C 
BRANCH   9  11
ATOM     10  N   UNL     1      42.435   5.493  11.063  0.00  0.00    +0.000 NA
ATOM     11  C   UNL     1      43.393   4.858  10.870  0.00  0.00    +0.000 C 
ENDBRANCH   9  11
BRANCH   9  12
ATOM     12  C   UNL     1      44.352   2.903   9.737  0.00  0.00    +0.000 C 
BRANCH  12  13
ATOM     13  C   UNL     1      45.334   2.658   8.607  0.00  0.00    +0.000 A 
ATOM     14  C   UNL     1      45.783   3.730   7.821  0.00  0.00    +0.000 A 
ATOM     15  C   UNL     1      46.816   3.555   6.899  0.00  0.00    +0.000 A 
ATOM     16  C   UNL     1      47.406   2.303   6.742  0.00  0.00    +0.000 A 
ATOM     17  C   UNL     1      46.939   1.219   7.481  0.00  0.00    +0.000 A 
ATOM     18  C   UNL     1      45.907   1.392   8.407  0.00  0.00    +0.000 A 
ENDBRANCH  12  13
ENDBRANCH   9  12
ENDBRANCH   1   9
BRANCH   5  19
ATOM     19  C   UNL     1      48.734   7.187  14.579  0.00  0.00    +0.000 C 
BRANCH  19  20
ATOM     20  N   UNL     1      48.443   7.339  15.983  0.00  0.00    +0.000 N 
ATOM     21  C   UNL     1      49.285   6.848  16.947  0.00  0.00    +0.000 C 
ATOM     22  O   UNL     1      50.344   6.295  16.662  0.00  0.00    +0.000 OA
ATOM     23  H   UNL     1      47.492   7.587  16.238  0.00  0.00    +0.000 HD
BRANCH  21  24
ATOM     24  C   UNL     1      48.886   7.080  18.340  0.00  0.00    +0.000 A 
ATOM     25  C   UNL     1      48.643   8.376  18.775  0.00  0.00    +0.000 A 
ATOM     26  S   UNL     1      48.138   8.469  20.402  0.00  0.00    +0.000 S 
ATOM     27  C   UNL     1      48.276   6.784  20.598  0.00  0.00    +0.000 A 
ATOM     28  N   UNL     1      48.005   6.195  21.794  0.00  0.00    +0.000 NA
ATOM     29  C   UNL     1      48.185   4.917  21.811  0.00  0.00    +0.000 A 
ATOM     30  N   UNL     1      48.607   4.173  20.739  0.00  0.00    +0.000 N 
ATOM     31  C   UNL     1      48.855   4.718  19.503  0.00  0.00    +0.000 A 
ATOM     32  O   UNL     1      49.174   4.019  18.549  0.00  0.00    +0.000 OA
ATOM     33  C   UNL     1      48.685   6.159  19.432  0.00  0.00    +0.000 A 
ATOM     34  H   UNL     1      48.717   3.172  20.817  0.00  0.00    +0.000 HD
ENDBRANCH  21  24
ENDBRANCH  19  20
ENDBRANCH   5  19
TORSDOF 7
ENDMDL
MODEL 4
REMARK VINA RESULT:    -7.984      3.570      4.410
REMARK INTER + INTRA:         -11.900
REMARK INTER:                 -11.119
REMARK INTRA:                  -0.781
REMARK UNBOUND:                -0.649
REMARK  Name = 
REMARK  7 active torsions:
REMARK  status: ('A' for Active; 'I' for Inactive)
REMARK    1  A    between atoms: C_2  and  C_3
REMARK    2  A    between atoms: C_3  and  C_4
REMARK    3  A    between atoms: C_3  and  N_11
REMARK    4  A    between atoms: C_4  and  C_5
REMARK    5  A    between atoms: C_15  and  C_16
REMARK    6  A    between atoms: C_16  and  N_17
REMARK    7  A    between atoms: C_18  and  C_20
REMARK                            x       y       z     vdW  Elec       q    Type
REMARK                         _______ _______ _______ _____ _____    ______ ____
ROOT
ATOM      1  N   UNL     1      45.393   4.454  11.547  0.00  0.00    +0.000 N 
ATOM      2  C   UNL     1      45.984   5.554  12.193  0.00  0.00    +0.000 A 
ATOM      3  C   UNL     1      46.951   5.301  13.164  0.00  0.00    +0.000 A 
ATOM      4  C   UNL     1      47.580   6.368  13.804  0.00  0.00    +0.000 A 
ATOM      5  C   UNL     1      47.226   7.673  13.472  0.00  0.00    +0.000 A 
ATOM      6  C   UNL     1      46.249   7.832  12.499  0.00  0.00    +0.000 A 
ATOM      7  N   UNL     1      45.624   6.809  11.870  0.00  0.00    +0.000 NA
ATOM      8  H   UNL     1      46.140   3.896  11.145  0.00  0.00    +0.000 HD
ENDROOT
BRANCH   1   9
ATOM      9  C   UNL     1      44.373   4.812  10.539  0.00  0.00    +0.000 C 
BRANCH   9  11
ATOM     10  N   UNL     1      42.111   5.526  11.730  0.00  0.00    +0.000 NA
ATOM     11  C   UNL     1      43.092   5.227  11.176  0.00  0.00    +0.000 C 
ENDBRANCH   9  11
BRANCH   9  12
ATOM     12  C   UNL     1      44.082   3.581   9.649  0.00  0.00    +0.000 C 
BRANCH  12  13
ATOM     13  C   UNL     1      45.232   3.091   8.788  0.00  0.00    +0.000 A 
ATOM     14  C   UNL     1      45.572   1.730   8.779  0.00  0.00    +0.000 A 
ATOM     15  C   UNL     1      46.503   1.234   7.865  0.00  0.00    +0.000 A 
ATOM     16  C   UNL     1      47.116   2.094   6.957  0.00  0.00    +0.000 A 
ATOM     17  C   UNL     1      46.824   3.455   6.987  0.00  0.00    +0.000 A 
ATOM     18  C   UNL     1      45.889   3.954   7.898  0.00  0.00    +0.000 A 
ENDBRANCH  12  13
ENDBRANCH   9  12
ENDBRANCH   1   9
BRANCH   5  19
ATOM     19  C   UNL     1      47.912   8.863  14.075  0.00  0.00    +0.000 C 
BRANCH  19  20
ATOM     20  N   UNL     1      47.635   8.943  15.487  0.00  0.00    +0.000 N 
ATOM     21  C   UNL     1      48.370   9.750  16.318  0.00  0.00    +0.000 C 
ATOM     22  O   UNL     1      49.269  10.470  15.892  0.00  0.00    +0.000 OA
ATOM     23  H   UNL     1      47.060   8.211  15.892  0.00  0.00    +0.000 HD
BRANCH  21  24
ATOM     24  C   UNL     1      47.980   9.756  17.733  0.00  0.00    +0.000 A 
ATOM     25  C   UNL     1      47.603  10.951  18.333  0.00  0.00    +0.000 A 
ATOM     26  S   UNL     1      47.129  10.779  19.961  0.00  0.00    +0.000 S 
ATOM     27  C   UNL     1      47.458   9.109  19.938  0.00  0.00    +0.000 A 
ATOM     28  N   UNL     1      47.282   8.347  21.051  0.00  0.00    +0.000 NA
ATOM     29  C   UNL     1      47.603   7.105  20.902  0.00  0.00    +0.000 A 
ATOM     30  N   UNL     1      48.080   6.556  19.740  0.00  0.00    +0.000 N 
ATOM     31  C   UNL     1      48.238   7.278  18.582  0.00  0.00    +0.000 A 
ATOM     32  O   UNL     1      48.611   6.745  17.544  0.00  0.00    +0.000 OA
ATOM     33  C   UNL     1      47.907   8.687  18.699  0.00  0.00    +0.000 A 
ATOM     34  H   UNL     1      48.303   5.572  19.688  0.00  0.00    +0.000 HD
ENDBRANCH  21  24
ENDBRANCH  19  20
ENDBRANCH   5  19
TORSDOF 7
ENDMDL
MODEL 5
REMARK VINA RESULT:    -7.784      2.330      3.028
REMARK INTER + INTRA:         -11.618
REMARK INTER:                 -12.122
REMARK INTRA:                   0.504
REMARK UNBOUND:                -0.649
REMARK  Name = 
REMARK  7 active torsions:
REMARK  status: ('A' for Active; 'I' for Inactive)
REMARK    1  A    between atoms: C_2  and  C_3
REMARK    2  A    between atoms: C_3  and  C_4
REMARK    3  A    between atoms: C_3  and  N_11
REMARK    4  A    between atoms: C_4  and  C_5
REMARK    5  A    between atoms: C_15  and  C_16
REMARK    6  A    between atoms: C_16  and  N_17
REMARK    7  A    between atoms: C_18  and  C_20
REMARK                            x       y       z     vdW  Elec       q    Type
REMARK                         _______ _______ _______ _____ _____    ______ ____
ROOT
ATOM      1  N   UNL     1      43.659   5.721  10.392  0.00  0.00    +0.000 N 
ATOM      2  C   UNL     1      44.622   6.420  11.140  0.00  0.00    +0.000 A 
ATOM      3  C   UNL     1      44.290   7.686  11.617  0.00  0.00    +0.000 A 
ATOM      4  C   UNL     1      45.209   8.396  12.388  0.00  0.00    +0.000 A 
ATOM      5  C   UNL     1      46.453   7.834  12.663  0.00  0.00    +0.000 A 
ATOM      6  C   UNL     1      46.703   6.572  12.142  0.00  0.00    +0.000 A 
ATOM      7  N   UNL     1      45.824   5.869  11.388  0.00  0.00    +0.000 NA
ATOM      8  H   UNL     1      42.816   5.661  10.957  0.00  0.00    +0.000 HD
ENDROOT
BRANCH   1   9
ATOM      9  C   UNL     1      44.098   4.391   9.919  0.00  0.00    +0.000 C 
BRANCH   9  11
ATOM     10  N   UNL     1      44.385   2.729  11.969  0.00  0.00    +0.000 NA
ATOM     11  C   UNL     1      44.254   3.431  11.047  0.00  0.00    +0.000 C 
ENDBRANCH   9  11
BRANCH   9  12
ATOM     12  C   UNL     1      45.470   4.526   9.218  0.00  0.00    +0.000 C 
BRANCH  12  13
ATOM     13  C   UNL     1      45.857   3.397   8.281  0.00  0.00    +0.000 A 
ATOM     14  C   UNL     1      46.359   3.686   7.004  0.00  0.00    +0.000 A 
ATOM     15  C   UNL     1      46.886   2.674   6.199  0.00  0.00    +0.000 A 
ATOM     16  C   UNL     1      46.905   1.358   6.656  0.00  0.00    +0.000 A 
ATOM     17  C   UNL     1      46.366   1.050   7.902  0.00  0.00    +0.000 A 
ATOM     18  C   UNL     1      45.841   2.062   8.711  0.00  0.00    +0.000 A 
ENDBRANCH  12  13
ENDBRANCH   9  12
ENDBRANCH   1   9
BRANCH   5  19
ATOM     19  C   UNL     1      47.460   8.517  13.540  0.00  0.00    +0.000 C 
BRANCH  19  20
ATOM     20  N   UNL     1      47.762   7.703  14.691  0.00  0.00    +0.000 N 
ATOM     21  C   UNL     1      49.008   7.161  14.878  0.00  0.00    +0.000 C 
ATOM     22  O   UNL     1      49.932   7.376  14.099  0.00  0.00    +0.000 OA
ATOM     23  H   UNL     1      46.978   7.334  15.220  0.00  0.00    +0.000 HD
BRANCH  21  24
ATOM     24  C   UNL     1      49.194   6.364  16.097  0.00  0.00    +0.000 A 
ATOM     25  C   UNL     1      50.173   6.732  17.011  0.00  0.00    +0.000 A 
ATOM     26  S   UNL     1      50.225   5.736  18.395  0.00  0.00    +0.000 S 
ATOM     27  C   UNL     1      48.976   4.747  17.798  0.00  0.00    +0.000 A 
ATOM     28  N   UNL     1      48.541   3.668  18.503  0.00  0.00    +0.000 NA
ATOM     29  C   UNL     1      47.614   2.987  17.917  0.00  0.00    +0.000 A 
ATOM     30  N   UNL     1      47.079   3.289  16.691  0.00  0.00    +0.000 N 
ATOM     31  C   UNL     1      47.459   4.389  15.961  0.00  0.00    +0.000 A 
ATOM     32  O   UNL     1      46.921   4.664  14.895  0.00  0.00    +0.000 OA
ATOM     33  C   UNL     1      48.514   5.182  16.567  0.00  0.00    +0.000 A 
ATOM     34  H   UNL     1      46.346   2.719  16.293  0.00  0.00    +0.000 HD
ENDBRANCH  21  24
ENDBRANCH  19  20
ENDBRANCH   5  19
TORSDOF 7
ENDMDL
MODEL 6
REMARK VINA RESULT:    -7.377      3.663      8.989
REMARK INTER + INTRA:         -11.044
REMARK INTER:                  -9.737
REMARK INTRA:                  -1.307
REMARK UNBOUND:                -0.649
REMARK  Name = 
REMARK  7 active torsions:
REMARK  status: ('A' for Active; 'I' for Inactive)
REMARK    1  A    between atoms: C_2  and  C_3
REMARK    2  A    between atoms: C_3  and  C_4
REMARK    3  A    between atoms: C_3  and  N_11
REMARK    4  A    between atoms: C_4  and  C_5
REMARK    5  A    between atoms: C_15  and  C_16
REMARK    6  A    between atoms: C_16  and  N_17
REMARK    7  A    between atoms: C_18  and  C_20
REMARK                            x       y       z     vdW  Elec       q    Type
REMARK                         _______ _______ _______ _____ _____    ______ ____
ROOT
ATOM      1  N   UNL     1      50.754   7.357  16.841  0.00  0.00    +0.000 N 
ATOM      2  C   UNL     1      50.052   7.489  15.630  0.00  0.00    +0.000 A 
ATOM      3  C   UNL     1      50.752   7.929  14.510  0.00  0.00    +0.000 A 
ATOM      4  C   UNL     1      50.094   8.042  13.286  0.00  0.00    +0.000 A 
ATOM      5  C   UNL     1      48.741   7.724  13.202  0.00  0.00    +0.000 A 
ATOM      6  C   UNL     1      48.120   7.302  14.370  0.00  0.00    +0.000 A 
ATOM      7  N   UNL     1      48.741   7.189  15.568  0.00  0.00    +0.000 NA
ATOM      8  H   UNL     1      51.545   6.742  16.671  0.00  0.00    +0.000 HD
ENDROOT
BRANCH   1   9
ATOM      9  C   UNL     1      49.933   6.894  17.979  0.00  0.00    +0.000 C 
BRANCH   9  11
ATOM     10  N   UNL     1      49.869   8.736  19.889  0.00  0.00    +0.000 NA
ATOM     11  C   UNL     1      49.896   7.902  19.076  0.00  0.00    +0.000 C 
ENDBRANCH   9  11
BRANCH   9  12
ATOM     12  C   UNL     1      50.543   5.593  18.552  0.00  0.00    +0.000 C 
BRANCH  12  13
ATOM     13  C   UNL     1      50.010   4.294  17.975  0.00  0.00    +0.000 A 
ATOM     14  C   UNL     1      48.661   4.189  17.611  0.00  0.00    +0.000 A 
ATOM     15  C   UNL     1      48.194   3.071  16.917  0.00  0.00    +0.000 A 
ATOM     16  C   UNL     1      49.069   2.038  16.590  0.00  0.00    +0.000 A 
ATOM     17  C   UNL     1      50.401   2.107  16.988  0.00  0.00    +0.000 A 
ATOM     18  C   UNL     1      50.872   3.226  17.680  0.00  0.00    +0.000 A 
ENDBRANCH  12  13
ENDBRANCH   9  12
ENDBRANCH   1   9
BRANCH   5  19
ATOM     19  C   UNL     1      47.992   7.762  11.903  0.00  0.00    +0.000 C 
BRANCH  19  20
ATOM     20  N   UNL     1      47.210   6.563  11.736  0.00  0.00    +0.000 N 
ATOM     21  C   UNL     1      45.840   6.586  11.794  0.00  0.00    +0.000 C 
ATOM     22  O   UNL     1      45.216   7.632  11.949  0.00  0.00    +0.000 OA
ATOM     23  H   UNL     1      47.693   5.674  11.827  0.00  0.00    +0.000 HD
BRANCH  21  24
ATOM     24  C   UNL     1      45.158   5.302  11.592  0.00  0.00    +0.000 A 
ATOM     25  C   UNL     1      44.477   4.716  12.651  0.00  0.00    +0.000 A 
ATOM     26  S   UNL     1      43.695   3.257  12.238  0.00  0.00    +0.000 S 
ATOM     27  C   UNL     1      44.282   3.330  10.643  0.00  0.00    +0.000 A 
ATOM     28  N   UNL     1      43.994   2.349   9.746  0.00  0.00    +0.000 NA
ATOM     29  C   UNL     1      44.532   2.513   8.584  0.00  0.00    +0.000 A 
ATOM     30  N   UNL     1      45.330   3.573   8.236  0.00  0.00    +0.000 N 
ATOM     31  C   UNL     1      45.616   4.606   9.095  0.00  0.00    +0.000 A 
ATOM     32  O   UNL     1      46.285   5.568   8.736  0.00  0.00    +0.000 OA
ATOM     33  C   UNL     1      45.049   4.462  10.424  0.00  0.00    +0.000 A 
ATOM     34  H   UNL     1      45.712   3.647   7.304  0.00  0.00    +0.000 HD
ENDBRANCH  21  24
ENDBRANCH  19  20
ENDBRANCH   5  19
TORSDOF 7
ENDMDL
MODEL 7
REMARK VINA RESULT:    -7.242      5.513      6.869
REMARK INTER + INTRA:         -10.854
REMARK INTER:                  -9.851
REMARK INTRA:                  -1.004
REMARK UNBOUND:                -0.649
REMARK  Name = 
REMARK  7 active torsions:
REMARK  status: ('A' for Active; 'I' for Inactive)
REMARK    1  A    between atoms: C_2  and  C_3
REMARK    2  A    between atoms: C_3  and  C_4
REMARK    3  A    between atoms: C_3  and  N_11
REMARK    4  A    between atoms: C_4  and  C_5
REMARK    5  A    between atoms: C_15  and  C_16
REMARK    6  A    between atoms: C_16  and  N_17
REMARK    7  A    between atoms: C_18  and  C_20
REMARK                            x       y       z     vdW  Elec       q    Type
REMARK                         _______ _______ _______ _____ _____    ______ ____
ROOT
ATOM      1  N   UNL     1      45.091   4.750  12.327  0.00  0.00    +0.000 N 
ATOM      2  C   UNL     1      46.249   5.543  12.403  0.00  0.00    +0.000 A 
ATOM      3  C   UNL     1      47.073   5.397  13.516  0.00  0.00    +0.000 A 
ATOM      4  C   UNL     1      48.245   6.146  13.610  0.00  0.00    +0.000 A 
ATOM      5  C   UNL     1      48.572   7.039  12.593  0.00  0.00    +0.000 A 
ATOM      6  C   UNL     1      47.690   7.127  11.525  0.00  0.00    +0.000 A 
ATOM      7  N   UNL     1      46.546   6.411  11.418  0.00  0.00    +0.000 NA
ATOM      8  H   UNL     1      45.378   3.779  12.412  0.00  0.00    +0.000 HD
ENDROOT
BRANCH   1   9
ATOM      9  C   UNL     1      44.271   4.976  11.118  0.00  0.00    +0.000 C 
BRANCH   9  11
ATOM     10  N   UNL     1      41.891   5.943  11.787  0.00  0.00    +0.000 NA
ATOM     11  C   UNL     1      42.924   5.511  11.460  0.00  0.00    +0.000 C 
ENDBRANCH   9  11
BRANCH   9  12
ATOM     12  C   UNL     1      44.073   3.632  10.378  0.00  0.00    +0.000 C 
BRANCH  12  13
ATOM     13  C   UNL     1      45.090   3.305   9.300  0.00  0.00    +0.000 A 
ATOM     14  C   UNL     1      45.459   1.974   9.063  0.00  0.00    +0.000 A 
ATOM     15  C   UNL     1      46.252   1.638   7.964  0.00  0.00    +0.000 A 
ATOM     16  C   UNL     1      46.697   2.632   7.096  0.00  0.00    +0.000 A 
ATOM     17  C   UNL     1      46.379   3.964   7.347  0.00  0.00    +0.000 A 
ATOM     18  C   UNL     1      45.583   4.302   8.444  0.00  0.00    +0.000 A 
ENDBRANCH  12  13
ENDBRANCH   9  12
ENDBRANCH   1   9
BRANCH   5  19
ATOM     19  C   UNL     1      49.850   7.824  12.603  0.00  0.00    +0.000 C 
BRANCH  19  20
ATOM     20  N   UNL     1      50.667   7.473  11.468  0.00  0.00    +0.000 N 
ATOM     21  C   UNL     1      51.868   8.091  11.231  0.00  0.00    +0.000 C 
ATOM     22  O   UNL     1      52.322   8.939  11.993  0.00  0.00    +0.000 OA
ATOM     23  H   UNL     1      50.224   6.949  10.720  0.00  0.00    +0.000 HD
BRANCH  21  24
ATOM     24  C   UNL     1      52.614   7.634  10.052  0.00  0.00    +0.000 A 
ATOM     25  C   UNL     1      53.023   6.309   9.973  0.00  0.00    +0.000 A 
ATOM     26  S   UNL     1      53.829   5.928   8.519  0.00  0.00    +0.000 S 
ATOM     27  C   UNL     1      53.705   7.532   7.965  0.00  0.00    +0.000 A 
ATOM     28  N   UNL     1      54.228   7.899   6.764  0.00  0.00    +0.000 NA
ATOM     29  C   UNL     1      54.094   9.153   6.486  0.00  0.00    +0.000 A 
ATOM     30  N   UNL     1      53.479  10.072   7.297  0.00  0.00    +0.000 N 
ATOM     31  C   UNL     1      52.903   9.740   8.499  0.00  0.00    +0.000 A 
ATOM     32  O   UNL     1      52.311  10.573   9.174  0.00  0.00    +0.000 OA
ATOM     33  C   UNL     1      53.041   8.343   8.871  0.00  0.00    +0.000 A 
ATOM     34  H   UNL     1      53.398  11.038   7.013  0.00  0.00    +0.000 HD
ENDBRANCH  21  24
ENDBRANCH  19  20
ENDBRANCH   5  19
TORSDOF 7
ENDMDL
MODEL 8
REMARK VINA RESULT:    -7.133      4.490      6.602
REMARK INTER + INTRA:         -10.700
REMARK INTER:                  -9.704
REMARK INTRA:                  -0.996
REMARK UNBOUND:                -0.649
REMARK  Name = 
REMARK  7 active torsions:
REMARK  status: ('A' for Active; 'I' for Inactive)
REMARK    1  A    between atoms: C_2  and  C_3
REMARK    2  A    between atoms: C_3  and  C_4
REMARK    3  A    between atoms: C_3  and  N_11
REMARK    4  A    between atoms: C_4  and  C_5
REMARK    5  A    between atoms: C_15  and  C_16
REMARK    6  A    between atoms: C_16  and  N_17
REMARK    7  A    between atoms: C_18  and  C_20
REMARK                            x       y       z     vdW  Elec       q    Type
REMARK                         _______ _______ _______ _____ _____    ______ ____
ROOT
ATOM      1  N   UNL     1      45.131   4.017  12.279  0.00  0.00    +0.000 N 
ATOM      2  C   UNL     1      46.105   4.924  12.732  0.00  0.00    +0.000 A 
ATOM      3  C   UNL     1      46.767   4.635  13.923  0.00  0.00    +0.000 A 
ATOM      4  C   UNL     1      47.760   5.496  14.387  0.00  0.00    +0.000 A 
ATOM      5  C   UNL     1      48.069   6.643  13.660  0.00  0.00    +0.000 A 
ATOM      6  C   UNL     1      47.354   6.857  12.489  0.00  0.00    +0.000 A 
ATOM      7  N   UNL     1      46.384   6.034  12.024  0.00  0.00    +0.000 NA
ATOM      8  H   UNL     1      45.572   3.104  12.208  0.00  0.00    +0.000 HD
ENDROOT
BRANCH   1   9
ATOM      9  C   UNL     1      44.473   4.407  11.014  0.00  0.00    +0.000 C 
BRANCH   9  11
ATOM     10  N   UNL     1      42.058   5.431  11.422  0.00  0.00    +0.000 NA
ATOM     11  C   UNL     1      43.133   5.012  11.256  0.00  0.00    +0.000 C 
ENDBRANCH   9  11
BRANCH   9  12
ATOM     12  C   UNL     1      44.273   3.150  10.135  0.00  0.00    +0.000 C 
BRANCH  12  13
ATOM     13  C   UNL     1      45.291   2.938   9.029  0.00  0.00    +0.000 A 
ATOM     14  C   UNL     1      45.750   1.646   8.734  0.00  0.00    +0.000 A 
ATOM     15  C   UNL     1      46.544   1.410   7.611  0.00  0.00    +0.000 A 
ATOM     16  C   UNL     1      46.900   2.466   6.774  0.00  0.00    +0.000 A 
ATOM     17  C   UNL     1      46.492   3.761   7.082  0.00  0.00    +0.000 A 
ATOM     18  C   UNL     1      45.694   3.999   8.204  0.00  0.00    +0.000 A 
ENDBRANCH  12  13
ENDBRANCH   9  12
ENDBRANCH   1   9
BRANCH   5  19
ATOM     19  C   UNL     1      49.170   7.574  14.070  0.00  0.00    +0.000 C 
BRANCH  19  20
ATOM     20  N   UNL     1      49.574   8.400  12.959  0.00  0.00    +0.000 N 
ATOM     21  C   UNL     1      50.729   9.138  12.997  0.00  0.00    +0.000 C 
ATOM     22  O   UNL     1      51.493   9.098  13.958  0.00  0.00    +0.000 OA
ATOM     23  H   UNL     1      48.869   8.621  12.262  0.00  0.00    +0.000 HD
BRANCH  21  24
ATOM     24  C   UNL     1      51.038   9.926  11.797  0.00  0.00    +0.000 A 
ATOM     25  C   UNL     1      52.352  10.014  11.357  0.00  0.00    +0.000 A 
ATOM     26  S   UNL     1      52.534  10.921   9.924  0.00  0.00    +0.000 S 
ATOM     27  C   UNL     1      50.869  11.270   9.869  0.00  0.00    +0.000 A 
ATOM     28  N   UNL     1      50.350  12.044   8.878  0.00  0.00    +0.000 NA
ATOM     29  C   UNL     1      49.081  12.257   8.978  0.00  0.00    +0.000 A 
ATOM     30  N   UNL     1      48.282  11.761   9.977  0.00  0.00    +0.000 N 
ATOM     31  C   UNL     1      48.755  10.945  10.975  0.00  0.00    +0.000 A 
ATOM     32  O   UNL     1      48.005  10.471  11.820  0.00  0.00    +0.000 OA
ATOM     33  C   UNL     1      50.183  10.687  10.920  0.00  0.00    +0.000 A 
ATOM     34  H   UNL     1      47.291  11.958   9.990  0.00  0.00    +0.000 HD
ENDBRANCH  21  24
ENDBRANCH  19  20
ENDBRANCH   5  19
TORSDOF 7
ENDMDL
MODEL 9
REMARK VINA RESULT:    -7.104      4.950      6.226
REMARK INTER + INTRA:         -10.660
REMARK INTER:                  -9.684
REMARK INTRA:                  -0.977
REMARK UNBOUND:                -0.649
REMARK  Name = 
REMARK  7 active torsions:
REMARK  status: ('A' for Active; 'I' for Inactive)
REMARK    1  A    between atoms: C_2  and  C_3
REMARK    2  A    between atoms: C_3  and  C_4
REMARK    3  A    between atoms: C_3  and  N_11
REMARK    4  A    between atoms: C_4  and  C_5
REMARK    5  A    between atoms: C_15  and  C_16
REMARK    6  A    between atoms: C_16  and  N_17
REMARK    7  A    between atoms: C_18  and  C_20
REMARK                            x       y       z     vdW  Elec       q    Type
REMARK                         _______ _______ _______ _____ _____    ______ ____
ROOT
ATOM      1  N   UNL     1      45.127   4.182  12.444  0.00  0.00    +0.000 N 
ATOM      2  C   UNL     1      46.183   5.051  12.771  0.00  0.00    +0.000 A 
ATOM      3  C   UNL     1      46.848   4.850  13.978  0.00  0.00    +0.000 A 
ATOM      4  C   UNL     1      47.919   5.674  14.321  0.00  0.00    +0.000 A 
ATOM      5  C   UNL     1      48.303   6.696  13.456  0.00  0.00    +0.000 A 
ATOM      6  C   UNL     1      47.580   6.828  12.278  0.00  0.00    +0.000 A 
ATOM      7  N   UNL     1      46.535   6.041  11.930  0.00  0.00    +0.000 NA
ATOM      8  H   UNL     1      45.489   3.233  12.479  0.00  0.00    +0.000 HD
ENDROOT
BRANCH   1   9
ATOM      9  C   UNL     1      44.472   4.472  11.151  0.00  0.00    +0.000 C 
BRANCH   9  11
ATOM     10  N   UNL     1      42.125   5.658  11.509  0.00  0.00    +0.000 NA
ATOM     11  C   UNL     1      43.139   5.107  11.341  0.00  0.00    +0.000 C 
ENDBRANCH   9  11
BRANCH   9  12
ATOM     12  C   UNL     1      44.261   3.148  10.379  0.00  0.00    +0.000 C 
BRANCH  12  13
ATOM     13  C   UNL     1      45.120   2.950   9.143  0.00  0.00    +0.000 A 
ATOM     14  C   UNL     1      45.565   4.059   8.411  0.00  0.00    +0.000 A 
ATOM     15  C   UNL     1      46.498   3.909   7.383  0.00  0.00    +0.000 A 
ATOM     16  C   UNL     1      46.988   2.644   7.067  0.00  0.00    +0.000 A 
ATOM     17  C   UNL     1      46.519   1.528   7.753  0.00  0.00    +0.000 A 
ATOM     18  C   UNL     1      45.588   1.676   8.784  0.00  0.00    +0.000 A 
ENDBRANCH  12  13
ENDBRANCH   9  12
ENDBRANCH   1   9
BRANCH   5  19
ATOM     19  C   UNL     1      49.487   7.573  13.735  0.00  0.00    +0.000 C 
BRANCH  19  20
ATOM     20  N   UNL     1      49.912   8.245  12.532  0.00  0.00    +0.000 N 
ATOM     21  C   UNL     1      51.045   9.018  12.505  0.00  0.00    +0.000 C 
ATOM     22  O   UNL     1      51.770   9.139  13.489  0.00  0.00    +0.000 OA
ATOM     23  H   UNL     1      49.231   8.341  11.786  0.00  0.00    +0.000 HD
BRANCH  21  24
ATOM     24  C   UNL     1      51.381   9.637  11.217  0.00  0.00    +0.000 A 
ATOM     25  C   UNL     1      50.869  10.890  10.907  0.00  0.00    +0.000 A 
ATOM     26  S   UNL     1      51.396  11.489   9.400  0.00  0.00    +0.000 S 
ATOM     27  C   UNL     1      52.286  10.073   9.085  0.00  0.00    +0.000 A 
ATOM     28  N   UNL     1      52.974   9.925   7.921  0.00  0.00    +0.000 NA
ATOM     29  C   UNL     1      53.575   8.789   7.799  0.00  0.00    +0.000 A 
ATOM     30  N   UNL     1      53.554   7.789   8.738  0.00  0.00    +0.000 N 
ATOM     31  C   UNL     1      52.905   7.909   9.942  0.00  0.00    +0.000 A 
ATOM     32  O   UNL     1      52.952   7.020  10.784  0.00  0.00    +0.000 OA
ATOM     33  C   UNL     1      52.196   9.163  10.125  0.00  0.00    +0.000 A 
ATOM     34  H   UNL     1      54.055   6.926   8.584  0.00  0.00    +0.000 HD
ENDBRANCH  21  24
ENDBRANCH  19  20
ENDBRANCH   5  19
TORSDOF 7
ENDMDL
