MODEL 1
REMARK VINA RESULT:    -7.755      0.000      0.000
REMARK INTER + INTRA:         -12.071
REMARK INTER:                 -10.929
REMARK INTRA:                  -1.142
REMARK UNBOUND:                -1.142
REMARK  Name = 
REMARK  9 active torsions:
REMARK  status: ('A' for Active; 'I' for Inactive)
REMARK    1  A    between atoms: C_1  and  C_2
REMARK    2  A    between atoms: C_2  and  C_3
REMARK    3  A    between atoms: C_2  and  C_4
REMARK    4  A    between atoms: C_8  and  C_9
REMARK    5  A    between atoms: C_9  and  O_10
REMARK    6  A    between atoms: O_10  and  C_11
REMARK    7  A    between atoms: C_14  and  C_15
REMARK    8  A    between atoms: C_15  and  N_16
REMARK    9  A    between atoms: C_17  and  C_19
REMARK                            x       y       z     vdW  Elec       q    Type
REMARK                         _______ _______ _______ _____ _____    ______ ____
ROOT
ATOM      1  C   UNL     1      45.143   5.347  12.373  0.00  0.00    +0.000 A 
ATOM      2  C   UNL     1      45.940   4.513  13.151  0.00  0.00    +0.000 A 
ATOM      3  C   UNL     1      47.070   5.027  13.782  0.00  0.00    +0.000 A 
ATOM      4  C   UNL     1      47.396   6.365  13.596  0.00  0.00    +0.000 A 
ATOM      5  N   UNL     1      46.635   7.202  12.847  0.00  0.00    +0.000 NA
ATOM      6  C   UNL     1      45.537   6.673  12.252  0.00  0.00    +0.000 A 
ENDROOT
BRANCH   1   7
ATOM      7  O   UNL     1      44.028   4.967  11.681  0.00  0.00    +0.000 OA
BRANCH   7   8
ATOM      8  C   UNL     1      44.075   5.221  10.277  0.00  0.00    +0.000 C 
BRANCH   8  13
ATOM      9  C   UNL     1      46.103   2.998   7.921  0.00  0.00    +0.000 A 
ATOM     10  C   UNL     1      45.670   1.730   8.335  0.00  0.00    +0.000 A 
ATOM     11  C   UNL     1      44.690   1.593   9.318  0.00  0.00    +0.000 A 
ATOM     12  C   UNL     1      44.140   2.722   9.921  0.00  0.00    +0.000 A 
ATOM     13  C   UNL     1      44.572   3.999   9.547  0.00  0.00    +0.000 A 
ATOM     14  C   UNL     1      45.539   4.128   8.534  0.00  0.00    +0.000 A 
BRANCH   9  16
ATOM     15  C   UNL     1      48.132   1.931   6.867  0.00  0.00    +0.000 C 
ATOM     16  C   UNL     1      47.163   3.115   6.840  0.00  0.00    +0.000 C 
ATOM     17  C   UNL     1      46.552   3.279   5.445  0.00  0.00    +0.000 C 
ENDBRANCH   9  16
ENDBRANCH   8  13
ENDBRANCH   7   8
ENDBRANCH   1   7
BRANCH   4  18
ATOM     18  C   UNL     1      48.628   6.937  14.252  0.00  0.00    +0.000 C 
BRANCH  18  19
ATOM     19  N   UNL     1      48.472   7.062  15.681  0.00  0.00    +0.000 N 
ATOM     20  C   UNL     1      49.361   6.552  16.587  0.00  0.00    +0.000 C 
ATOM     21  O   UNL     1      50.374   5.945  16.247  0.00  0.00    +0.000 OA
ATOM     22  H   UNL     1      47.534   7.305  15.984  0.00  0.00    +0.000 HD
BRANCH  20  23
ATOM     23  C   UNL     1      49.073   6.850  17.995  0.00  0.00    +0.000 A 
ATOM     24  C   UNL     1      48.979   8.169  18.422  0.00  0.00    +0.000 A 
ATOM     25  S   UNL     1      48.561   8.323  20.071  0.00  0.00    +0.000 S 
ATOM     26  C   UNL     1      48.538   6.634  20.282  0.00  0.00    +0.000 A 
ATOM     27  N   UNL     1      48.254   6.082  21.492  0.00  0.00    +0.000 NA
ATOM     28  C   UNL     1      48.294   4.789  21.512  0.00  0.00    +0.000 A 
ATOM     29  N   UNL     1      48.589   4.003  20.432  0.00  0.00    +0.000 N 
ATOM     30  C   UNL     1      48.844   4.516  19.184  0.00  0.00    +0.000 A 
ATOM     31  O   UNL     1      49.038   3.773  18.225  0.00  0.00    +0.000 OA
ATOM     32  C   UNL     1      48.830   5.962  19.108  0.00  0.00    +0.000 A 
ATOM     33  H   UNL     1      48.592   2.996  20.507  0.00  0.00    +0.000 HD
ENDBRANCH  20  23
ENDBRANCH  18  19
ENDBRANCH   4  18
TORSDOF 7
ENDMDL
MODEL 2
REMARK VINA RESULT:    -7.642      1.283      1.849
REMARK INTER + INTRA:         -11.911
REMARK INTER:                 -10.616
REMARK INTRA:                  -1.295
REMARK UNBOUND:                -1.142
REMARK  Name = 
REMARK  9 active torsions:
REMARK  status: ('A' for Active; 'I' for Inactive)
REMARK    1  A    between atoms: C_1  and  C_2
REMARK    2  A    between atoms: C_2  and  C_3
REMARK    3  A    between atoms: C_2  and  C_4
REMARK    4  A    between atoms: C_8  and  C_9
REMARK    5  A    between atoms: C_9  and  O_10
REMARK    6  A    between atoms: O_10  and  C_11
REMARK    7  A    between atoms: C_14  and  C_15
REMARK    8  A    between atoms: C_15  and  N_16
REMARK    9  A    between atoms: C_17  and  C_19
REMARK                            x       y       z     vdW  Elec       q    Type
REMARK                         _______ _______ _______ _____ _____    ______ ____
ROOT
ATOM      1  C   UNL     1      44.999   5.315  12.160  0.00  0.00    +0.000 A 
ATOM      2  C   UNL     1      45.707   4.420  12.956  0.00  0.00    +0.000 A 
ATOM      3  C   UNL     1      46.773   4.875  13.729  0.00  0.00    +0.000 A 
ATOM      4  C   UNL     1      47.126   6.217  13.666  0.00  0.00    +0.000 A 
ATOM      5  N   UNL     1      46.451   7.113  12.901  0.00  0.00    +0.000 NA
ATOM      6  C   UNL     1      45.414   6.640  12.167  0.00  0.00    +0.000 A 
ENDROOT
BRANCH   1   7
ATOM      7  O   UNL     1      43.956   4.998  11.336  0.00  0.00    +0.000 OA
BRANCH   7   8
ATOM      8  C   UNL     1      44.185   5.247   9.949  0.00  0.00    +0.000 C 
BRANCH   8  13
ATOM      9  C   UNL     1      46.253   2.937   7.716  0.00  0.00    +0.000 A 
ATOM     10  C   UNL     1      45.819   1.685   8.176  0.00  0.00    +0.000 A 
ATOM     11  C   UNL     1      44.825   1.585   9.150  0.00  0.00    +0.000 A 
ATOM     12  C   UNL     1      44.264   2.735   9.698  0.00  0.00    +0.000 A 
ATOM     13  C   UNL     1      44.696   3.997   9.277  0.00  0.00    +0.000 A 
ATOM     14  C   UNL     1      45.677   4.089   8.274  0.00  0.00    +0.000 A 
BRANCH   9  16
ATOM     15  C   UNL     1      48.303   1.837   6.737  0.00  0.00    +0.000 C 
ATOM     16  C   UNL     1      47.327   3.013   6.644  0.00  0.00    +0.000 C 
ATOM     17  C   UNL     1      46.735   3.112   5.236  0.00  0.00    +0.000 C 
ENDBRANCH   9  16
ENDBRANCH   8  13
ENDBRANCH   7   8
ENDBRANCH   1   7
BRANCH   4  18
ATOM     18  C   UNL     1      48.291   6.726  14.478  0.00  0.00    +0.000 C 
BRANCH  18  19
ATOM     19  N   UNL     1      48.163   6.393  15.876  0.00  0.00    +0.000 N 
ATOM     20  C   UNL     1      49.214   6.008  16.661  0.00  0.00    +0.000 C 
ATOM     21  O   UNL     1      50.361   5.920  16.230  0.00  0.00    +0.000 OA
ATOM     22  H   UNL     1      47.214   6.194  16.178  0.00  0.00    +0.000 HD
BRANCH  20  23
ATOM     23  C   UNL     1      48.900   5.789  18.078  0.00  0.00    +0.000 A 
ATOM     24  C   UNL     1      49.148   4.553  18.662  0.00  0.00    +0.000 A 
ATOM     25  S   UNL     1      48.796   4.505  20.333  0.00  0.00    +0.000 S 
ATOM     26  C   UNL     1      48.256   6.119  20.323  0.00  0.00    +0.000 A 
ATOM     27  N   UNL     1      47.794   6.712  21.457  0.00  0.00    +0.000 NA
ATOM     28  C   UNL     1      47.396   7.932  21.298  0.00  0.00    +0.000 A 
ATOM     29  N   UNL     1      47.421   8.611  20.110  0.00  0.00    +0.000 N 
ATOM     30  C   UNL     1      47.912   8.065  18.950  0.00  0.00    +0.000 A 
ATOM     31  O   UNL     1      47.979   8.730  17.919  0.00  0.00    +0.000 OA
ATOM     32  C   UNL     1      48.357   6.691  19.067  0.00  0.00    +0.000 A 
ATOM     33  H   UNL     1      47.107   9.569  20.051  0.00  0.00    +0.000 HD
ENDBRANCH  20  23
ENDBRANCH  18  19
ENDBRANCH   4  18
TORSDOF 7
ENDMDL
MODEL 3
REMARK VINA RESULT:    -7.505      2.771      3.559
REMARK INTER + INTRA:         -11.718
REMARK INTER:                 -10.557
REMARK INTRA:                  -1.160
REMARK UNBOUND:                -1.142
REMARK  Name = 
REMARK  9 active torsions:
REMARK  status: ('A' for Active; 'I' for Inactive)
REMARK    1  A    between atoms: C_1  and  C_2
REMARK    2  A    between atoms: C_2  and  C_3
REMARK    3  A    between atoms: C_2  and  C_4
REMARK    4  A    between atoms: C_8  and  C_9
REMARK    5  A    between atoms: C_9  and  O_10
REMARK    6  A    between atoms: O_10  and  C_11
REMARK    7  A    between atoms: C_14  and  C_15
REMARK    8  A    between atoms: C_15  and  N_16
REMARK    9  A    between atoms: C_17  and  C_19
REMARK                            x       y       z     vdW  Elec       q    Type
REMARK                         _______ _______ _______ _____ _____    ______ ____
ROOT
ATOM      1  C   UNL     1      47.440   6.829  12.495  0.00  0.00    +0.000 A 
ATOM      2  C   UNL     1      47.701   8.097  13.006  0.00  0.00    +0.000 A 
ATOM      3  C   UNL     1      48.192   8.232  14.303  0.00  0.00    +0.000 A 
ATOM      4  C   UNL     1      48.387   7.090  15.072  0.00  0.00    +0.000 A 
ATOM      5  N   UNL     1      48.144   5.842  14.597  0.00  0.00    +0.000 NA
ATOM      6  C   UNL     1      47.674   5.745  13.329  0.00  0.00    +0.000 A 
ENDROOT
BRANCH   1   7
ATOM      7  O   UNL     1      46.932   6.559  11.255  0.00  0.00    +0.000 OA
BRANCH   7   8
ATOM      8  C   UNL     1      45.507   6.532  11.180  0.00  0.00    +0.000 C 
BRANCH   8  13
ATOM      9  C   UNL     1      45.209   3.385   9.033  0.00  0.00    +0.000 A 
ATOM     10  C   UNL     1      44.365   2.608   9.840  0.00  0.00    +0.000 A 
ATOM     11  C   UNL     1      43.847   3.114  11.032  0.00  0.00    +0.000 A 
ATOM     12  C   UNL     1      44.182   4.399  11.450  0.00  0.00    +0.000 A 
ATOM     13  C   UNL     1      45.041   5.188  10.678  0.00  0.00    +0.000 A 
ATOM     14  C   UNL     1      45.535   4.680   9.464  0.00  0.00    +0.000 A 
BRANCH   9  16
ATOM     15  C   UNL     1      46.698   3.784   7.036  0.00  0.00    +0.000 C 
ATOM     16  C   UNL     1      45.746   2.810   7.734  0.00  0.00    +0.000 C 
ATOM     17  C   UNL     1      46.420   1.450   7.937  0.00  0.00    +0.000 C 
ENDBRANCH   9  16
ENDBRANCH   8  13
ENDBRANCH   7   8
ENDBRANCH   1   7
BRANCH   4  18
ATOM     18  C   UNL     1      48.897   7.215  16.486  0.00  0.00    +0.000 C 
BRANCH  18  19
ATOM     19  N   UNL     1      49.981   6.302  16.753  0.00  0.00    +0.000 N 
ATOM     20  C   UNL     1      50.434   6.012  18.010  0.00  0.00    +0.000 C 
ATOM     21  O   UNL     1      49.943   6.512  19.019  0.00  0.00    +0.000 OA
ATOM     22  H   UNL     1      50.569   6.097  15.951  0.00  0.00    +0.000 HD
BRANCH  20  23
ATOM     23  C   UNL     1      51.492   4.997  18.085  0.00  0.00    +0.000 A 
ATOM     24  C   UNL     1      52.764   5.349  18.520  0.00  0.00    +0.000 A 
ATOM     25  S   UNL     1      53.841   4.027  18.618  0.00  0.00    +0.000 S 
ATOM     26  C   UNL     1      52.659   2.948  18.038  0.00  0.00    +0.000 A 
ATOM     27  N   UNL     1      52.937   1.628  17.869  0.00  0.00    +0.000 NA
ATOM     28  C   UNL     1      51.953   0.930  17.400  0.00  0.00    +0.000 A 
ATOM     29  N   UNL     1      50.720   1.434  17.091  0.00  0.00    +0.000 N 
ATOM     30  C   UNL     1      50.384   2.752  17.281  0.00  0.00    +0.000 A 
ATOM     31  O   UNL     1      49.245   3.151  17.053  0.00  0.00    +0.000 OA
ATOM     32  C   UNL     1      51.456   3.584  17.788  0.00  0.00    +0.000 A 
ATOM     33  H   UNL     1      49.987   0.836  16.740  0.00  0.00    +0.000 HD
ENDBRANCH  20  23
ENDBRANCH  18  19
ENDBRANCH   4  18
TORSDOF 7
ENDMDL
MODEL 4
REMARK VINA RESULT:    -7.474      3.688      5.557
REMARK INTER + INTRA:         -11.674
REMARK INTER:                 -10.503
REMARK INTRA:                  -1.171
REMARK UNBOUND:                -1.142
REMARK  Name = 
REMARK  9 active torsions:
REMARK  status: ('A' for Active; 'I' for Inactive)
REMARK    1  A    between atoms: C_1  and  C_2
REMARK    2  A    between atoms: C_2  and  C_3
REMARK    3  A    between atoms: C_2  and  C_4
REMARK    4  A    between atoms: C_8  and  C_9
REMARK    5  A    between atoms: C_9  and  O_10
REMARK    6  A    between atoms: O_10  and  C_11
REMARK    7  A    between atoms: C_14  and  C_15
REMARK    8  A    between atoms: C_15  and  N_16
REMARK    9  A    between atoms: C_17  and  C_19
REMARK                            x       y       z     vdW  Elec       q    Type
REMARK                         _______ _______ _______ _____ _____    ______ ____
ROOT
ATOM      1  C   UNL     1      44.986   3.499  12.558  0.00  0.00    +0.000 A 
ATOM      2  C   UNL     1      44.639   4.791  12.943  0.00  0.00    +0.000 A 
ATOM      3  C   UNL     1      45.543   5.561  13.670  0.00  0.00    +0.000 A 
ATOM      4  C   UNL     1      46.770   5.009  14.022  0.00  0.00    +0.000 A 
ATOM      5  N   UNL     1      47.135   3.755  13.656  0.00  0.00    +0.000 NA
ATOM      6  C   UNL     1      46.235   3.033  12.942  0.00  0.00    +0.000 A 
ENDROOT
BRANCH   1   7
ATOM      7  O   UNL     1      44.186   2.631  11.870  0.00  0.00    +0.000 OA
BRANCH   7   8
ATOM      8  C   UNL     1      43.604   3.162  10.679  0.00  0.00    +0.000 C 
BRANCH   8  13
ATOM      9  C   UNL     1      46.123   2.641   7.854  0.00  0.00    +0.000 A 
ATOM     10  C   UNL     1      46.505   3.968   7.609  0.00  0.00    +0.000 A 
ATOM     11  C   UNL     1      46.005   5.013   8.386  0.00  0.00    +0.000 A 
ATOM     12  C   UNL     1      45.096   4.753   9.408  0.00  0.00    +0.000 A 
ATOM     13  C   UNL     1      44.678   3.442   9.659  0.00  0.00    +0.000 A 
ATOM     14  C   UNL     1      45.210   2.391   8.890  0.00  0.00    +0.000 A 
BRANCH   9  16
ATOM     15  C   UNL     1      48.100   1.861   6.493  0.00  0.00    +0.000 C 
ATOM     16  C   UNL     1      46.696   1.523   7.000  0.00  0.00    +0.000 C 
ATOM     17  C   UNL     1      46.695   0.177   7.730  0.00  0.00    +0.000 C 
ENDBRANCH   9  16
ENDBRANCH   8  13
ENDBRANCH   7   8
ENDBRANCH   1   7
BRANCH   4  18
ATOM     18  C   UNL     1      47.754   5.819  14.828  0.00  0.00    +0.000 C 
BRANCH  18  19
ATOM     19  N   UNL     1      47.913   7.155  14.306  0.00  0.00    +0.000 N 
ATOM     20  C   UNL     1      48.661   7.451  13.200  0.00  0.00    +0.000 C 
ATOM     21  O   UNL     1      49.259   6.591  12.558  0.00  0.00    +0.000 OA
ATOM     22  H   UNL     1      47.668   7.894  14.957  0.00  0.00    +0.000 HD
BRANCH  20  23
ATOM     23  C   UNL     1      48.637   8.856  12.776  0.00  0.00    +0.000 A 
ATOM     24  C   UNL     1      49.827   9.544  12.578  0.00  0.00    +0.000 A 
ATOM     25  S   UNL     1      49.606  11.140  12.010  0.00  0.00    +0.000 S 
ATOM     26  C   UNL     1      47.912  10.982  12.056  0.00  0.00    +0.000 A 
ATOM     27  N   UNL     1      47.101  12.014  11.697  0.00  0.00    +0.000 NA
ATOM     28  C   UNL     1      45.837  11.761  11.802  0.00  0.00    +0.000 A 
ATOM     29  N   UNL     1      45.313  10.572  12.229  0.00  0.00    +0.000 N 
ATOM     30  C   UNL     1      46.093   9.492  12.566  0.00  0.00    +0.000 A 
ATOM     31  O   UNL     1      45.583   8.420  12.880  0.00  0.00    +0.000 OA
ATOM     32  C   UNL     1      47.521   9.726  12.483  0.00  0.00    +0.000 A 
ATOM     33  H   UNL     1      44.315  10.430  12.278  0.00  0.00    +0.000 HD
ENDBRANCH  20  23
ENDBRANCH  18  19
ENDBRANCH   4  18
TORSDOF 7
ENDMDL
MODEL 5
REMARK VINA RESULT:    -7.149      3.538      9.088
REMARK INTER + INTRA:         -11.217
REMARK INTER:                  -9.728
REMARK INTRA:                  -1.489
REMARK UNBOUND:                -1.142
REMARK  Name = 
REMARK  9 active torsions:
REMARK  status: ('A' for Active; 'I' for Inactive)
REMARK    1  A    between atoms: C_1  and  C_2
REMARK    2  A    between atoms: C_2  and  C_3
REMARK    3  A    between atoms: C_2  and  C_4
REMARK    4  A    between atoms: C_8  and  C_9
REMARK    5  A    between atoms: C_9  and  O_10
REMARK    6  A    between atoms: O_10  and  C_11
REMARK    7  A    between atoms: C_14  and  C_15
REMARK    8  A    between atoms: C_15  and  N_16
REMARK    9  A    between atoms: C_17  and  C_19
REMARK                            x       y       z     vdW  Elec       q    Type
REMARK                         _______ _______ _______ _____ _____    ______ ____
ROOT
ATOM      1  C   UNL     1      49.709   8.585  15.614  0.00  0.00    +0.000 A 
ATOM      2  C   UNL     1      48.405   9.005  15.369  0.00  0.00    +0.000 A 
ATOM      3  C   UNL     1      47.827   8.772  14.124  0.00  0.00    +0.000 A 
ATOM      4  C   UNL     1      48.579   8.145  13.137  0.00  0.00    +0.000 A 
ATOM      5  N   UNL     1      49.850   7.721  13.351  0.00  0.00    +0.000 NA
ATOM      6  C   UNL     1      50.383   7.957  14.576  0.00  0.00    +0.000 A 
ENDROOT
BRANCH   1   7
ATOM      7  O   UNL     1      50.403   8.774  16.776  0.00  0.00    +0.000 OA
BRANCH   7   8
ATOM      8  C   UNL     1      50.682   7.584  17.513  0.00  0.00    +0.000 C 
BRANCH   8  13
ATOM      9  C   UNL     1      47.833   5.037  17.549  0.00  0.00    +0.000 A 
ATOM     10  C   UNL     1      47.131   5.459  18.687  0.00  0.00    +0.000 A 
ATOM     11  C   UNL     1      47.534   6.589  19.400  0.00  0.00    +0.000 A 
ATOM     12  C   UNL     1      48.660   7.304  19.000  0.00  0.00    +0.000 A 
ATOM     13  C   UNL     1      49.394   6.892  17.883  0.00  0.00    +0.000 A 
ATOM     14  C   UNL     1      48.964   5.769  17.153  0.00  0.00    +0.000 A 
BRANCH   9  16
ATOM     15  C   UNL     1      47.053   4.139  15.323  0.00  0.00    +0.000 C 
ATOM     16  C   UNL     1      47.362   3.811  16.786  0.00  0.00    +0.000 C 
ATOM     17  C   UNL     1      48.358   2.652  16.880  0.00  0.00    +0.000 C 
ENDBRANCH   9  16
ENDBRANCH   8  13
ENDBRANCH   7   8
ENDBRANCH   1   7
BRANCH   4  18
ATOM     18  C   UNL     1      47.978   7.903  11.775  0.00  0.00    +0.000 C 
BRANCH  18  19
ATOM     19  N   UNL     1      47.146   6.725  11.752  0.00  0.00    +0.000 N 
ATOM     20  C   UNL     1      45.779   6.765  11.752  0.00  0.00    +0.000 C 
ATOM     21  O   UNL     1      45.149   7.820  11.768  0.00  0.00    +0.000 OA
ATOM     22  H   UNL     1      47.621   5.866  12.013  0.00  0.00    +0.000 HD
BRANCH  20  23
ATOM     23  C   UNL     1      45.106   5.464  11.645  0.00  0.00    +0.000 A 
ATOM     24  C   UNL     1      44.405   4.952  12.729  0.00  0.00    +0.000 A 
ATOM     25  S   UNL     1      43.624   3.470  12.397  0.00  0.00    +0.000 S 
ATOM     26  C   UNL     1      44.234   3.438  10.809  0.00  0.00    +0.000 A 
ATOM     27  N   UNL     1      43.948   2.409   9.968  0.00  0.00    +0.000 NA
ATOM     28  C   UNL     1      44.497   2.504   8.800  0.00  0.00    +0.000 A 
ATOM     29  N   UNL     1      45.301   3.536   8.400  0.00  0.00    +0.000 N 
ATOM     30  C   UNL     1      45.587   4.613   9.203  0.00  0.00    +0.000 A 
ATOM     31  O   UNL     1      46.258   5.552   8.783  0.00  0.00    +0.000 OA
ATOM     32  C   UNL     1      45.011   4.550  10.531  0.00  0.00    +0.000 A 
ATOM     33  H   UNL     1      45.691   3.561   7.469  0.00  0.00    +0.000 HD
ENDBRANCH  20  23
ENDBRANCH  18  19
ENDBRANCH   4  18
TORSDOF 7
ENDMDL
MODEL 6
REMARK VINA RESULT:    -7.123      1.812      2.512
REMARK INTER + INTRA:         -11.179
REMARK INTER:                  -9.693
REMARK INTRA:                  -1.486
REMARK UNBOUND:                -1.142
REMARK  Name = 
REMARK  9 active torsions:
REMARK  status: ('A' for Active; 'I' for Inactive)
REMARK    1  A    between atoms: C_1  and  C_2
REMARK    2  A    between atoms: C_2  and  C_3
REMARK    3  A    between atoms: C_2  and  C_4
REMARK    4  A    between atoms: C_8  and  C_9
REMARK    5  A    between atoms: C_9  and  O_10
REMARK    6  A    between atoms: O_10  and  C_11
REMARK    7  A    between atoms: C_14  and  C_15
REMARK    8  A    between atoms: C_15  and  N_16
REMARK    9  A    between atoms: C_17  and  C_19
REMARK                            x       y       z     vdW  Elec       q    Type
REMARK                         _______ _______ _______ _____ _____    ______ ____
ROOT
ATOM      1  C   UNL     1      46.316   7.520  11.893  0.00  0.00    +0.000 A 
ATOM      2  C   UNL     1      47.532   6.844  11.869  0.00  0.00    +0.000 A 
ATOM      3  C   UNL     1      48.545   7.214  12.749  0.00  0.00    +0.000 A 
ATOM      4  C   UNL     1      48.329   8.276  13.620  0.00  0.00    +0.000 A 
ATOM      5  N   UNL     1      47.151   8.950  13.667  0.00  0.00    +0.000 NA
ATOM      6  C   UNL     1      46.182   8.561  12.802  0.00  0.00    +0.000 A 
ENDROOT
BRANCH   1   7
ATOM      7  O   UNL     1      45.253   7.279  11.068  0.00  0.00    +0.000 OA
BRANCH   7   8
ATOM      8  C   UNL     1      44.134   6.652  11.695  0.00  0.00    +0.000 C 
BRANCH   8  13
ATOM      9  C   UNL     1      44.603   3.484   9.611  0.00  0.00    +0.000 A 
ATOM     10  C   UNL     1      43.986   2.540  10.444  0.00  0.00    +0.000 A 
ATOM     11  C   UNL     1      43.370   2.928  11.634  0.00  0.00    +0.000 A 
ATOM     12  C   UNL     1      43.379   4.265  12.024  0.00  0.00    +0.000 A 
ATOM     13  C   UNL     1      44.010   5.225  11.225  0.00  0.00    +0.000 A 
ATOM     14  C   UNL     1      44.603   4.829  10.013  0.00  0.00    +0.000 A 
BRANCH   9  16
ATOM     15  C   UNL     1      46.253   4.068   7.793  0.00  0.00    +0.000 C 
ATOM     16  C   UNL     1      45.254   3.032   8.315  0.00  0.00    +0.000 C 
ATOM     17  C   UNL     1      45.921   1.660   8.449  0.00  0.00    +0.000 C 
ENDBRANCH   9  16
ENDBRANCH   8  13
ENDBRANCH   7   8
ENDBRANCH   1   7
BRANCH   4  18
ATOM     18  C   UNL     1      49.421   8.706  14.566  0.00  0.00    +0.000 C 
BRANCH  18  19
ATOM     19  N   UNL     1      49.461   7.890  15.755  0.00  0.00    +0.000 N 
ATOM     20  C   UNL     1      48.734   8.158  16.882  0.00  0.00    +0.000 C 
ATOM     21  O   UNL     1      47.981   9.125  16.966  0.00  0.00    +0.000 OA
ATOM     22  H   UNL     1      50.259   7.265  15.812  0.00  0.00    +0.000 HD
BRANCH  20  23
ATOM     23  C   UNL     1      48.846   7.167  17.959  0.00  0.00    +0.000 A 
ATOM     24  C   UNL     1      49.168   7.573  19.248  0.00  0.00    +0.000 A 
ATOM     25  S   UNL     1      49.176   6.298  20.383  0.00  0.00    +0.000 S 
ATOM     26  C   UNL     1      48.795   5.152  19.184  0.00  0.00    +0.000 A 
ATOM     27  N   UNL     1      48.663   3.833  19.490  0.00  0.00    +0.000 NA
ATOM     28  C   UNL     1      48.395   3.074  18.477  0.00  0.00    +0.000 A 
ATOM     29  N   UNL     1      48.245   3.516  17.191  0.00  0.00    +0.000 N 
ATOM     30  C   UNL     1      48.333   4.842  16.843  0.00  0.00    +0.000 A 
ATOM     31  O   UNL     1      48.125   5.205  15.689  0.00  0.00    +0.000 OA
ATOM     32  C   UNL     1      48.650   5.736  17.938  0.00  0.00    +0.000 A 
ATOM     33  H   UNL     1      48.023   2.875  16.443  0.00  0.00    +0.000 HD
ENDBRANCH  20  23
ENDBRANCH  18  19
ENDBRANCH   4  18
TORSDOF 7
ENDMDL
MODEL 7
REMARK VINA RESULT:    -6.997      3.396      9.303
REMARK INTER + INTRA:         -11.002
REMARK INTER:                  -9.896
REMARK INTRA:                  -1.107
REMARK UNBOUND:                -1.142
REMARK  Name = 
REMARK  9 active torsions:
REMARK  status: ('A' for Active; 'I' for Inactive)
REMARK    1  A    between atoms: C_1  and  C_2
REMARK    2  A    between atoms: C_2  and  C_3
REMARK    3  A    between atoms: C_2  and  C_4
REMARK    4  A    between atoms: C_8  and  C_9
REMARK    5  A    between atoms: C_9  and  O_10
REMARK    6  A    between atoms: O_10  and  C_11
REMARK    7  A    between atoms: C_14  and  C_15
REMARK    8  A    between atoms: C_15  and  N_16
REMARK    9  A    between atoms: C_17  and  C_19
REMARK                            x       y       z     vdW  Elec       q    Type
REMARK                         _______ _______ _______ _____ _____    ______ ____
ROOT
ATOM      1  C   UNL     1      49.391   7.872  15.959  0.00  0.00    +0.000 A 
ATOM      2  C   UNL     1      48.435   8.827  15.629  0.00  0.00    +0.000 A 
ATOM      3  C   UNL     1      47.830   8.795  14.375  0.00  0.00    +0.000 A 
ATOM      4  C   UNL     1      48.217   7.819  13.464  0.00  0.00    +0.000 A 
ATOM      5  N   UNL     1      49.144   6.873  13.762  0.00  0.00    +0.000 NA
ATOM      6  C   UNL     1      49.709   6.927  14.993  0.00  0.00    +0.000 A 
ENDROOT
BRANCH   1   7
ATOM      7  O   UNL     1      50.079   7.806  17.138  0.00  0.00    +0.000 OA
BRANCH   7   8
ATOM      8  C   UNL     1      49.418   7.094  18.183  0.00  0.00    +0.000 C 
BRANCH   8  13
ATOM      9  C   UNL     1      50.744   3.542  17.706  0.00  0.00    +0.000 A 
ATOM     10  C   UNL     1      49.538   2.833  17.608  0.00  0.00    +0.000 A 
ATOM     11  C   UNL     1      48.312   3.498  17.631  0.00  0.00    +0.000 A 
ATOM     12  C   UNL     1      48.269   4.882  17.777  0.00  0.00    +0.000 A 
ATOM     13  C   UNL     1      49.455   5.612  17.903  0.00  0.00    +0.000 A 
ATOM     14  C   UNL     1      50.687   4.937  17.849  0.00  0.00    +0.000 A 
BRANCH   9  16
ATOM     15  C   UNL     1      52.941   3.122  18.874  0.00  0.00    +0.000 C 
ATOM     16  C   UNL     1      52.064   2.791  17.665  0.00  0.00    +0.000 C 
ATOM     17  C   UNL     1      51.866   1.278  17.540  0.00  0.00    +0.000 C 
ENDBRANCH   9  16
ENDBRANCH   8  13
ENDBRANCH   7   8
ENDBRANCH   1   7
BRANCH   4  18
ATOM     18  C   UNL     1      47.590   7.780  12.094  0.00  0.00    +0.000 C 
BRANCH  18  19
ATOM     19  N   UNL     1      46.858   6.558  11.867  0.00  0.00    +0.000 N 
ATOM     20  C   UNL     1      45.507   6.440  12.048  0.00  0.00    +0.000 C 
ATOM     21  O   UNL     1      44.807   7.379  12.418  0.00  0.00    +0.000 OA
ATOM     22  H   UNL     1      47.432   5.721  11.833  0.00  0.00    +0.000 HD
BRANCH  20  23
ATOM     23  C   UNL     1      44.931   5.138  11.690  0.00  0.00    +0.000 A 
ATOM     24  C   UNL     1      44.196   4.421  12.625  0.00  0.00    +0.000 A 
ATOM     25  S   UNL     1      43.537   2.971  12.009  0.00  0.00    +0.000 S 
ATOM     26  C   UNL     1      44.250   3.228  10.485  0.00  0.00    +0.000 A 
ATOM     27  N   UNL     1      44.087   2.332   9.474  0.00  0.00    +0.000 NA
ATOM     28  C   UNL     1      44.703   2.644   8.379  0.00  0.00    +0.000 A 
ATOM     29  N   UNL     1      45.462   3.769   8.207  0.00  0.00    +0.000 N 
ATOM     30  C   UNL     1      45.623   4.718   9.187  0.00  0.00    +0.000 A 
ATOM     31  O   UNL     1      46.257   5.747   8.970  0.00  0.00    +0.000 OA
ATOM     32  C   UNL     1      44.968   4.410  10.442  0.00  0.00    +0.000 A 
ATOM     33  H   UNL     1      45.909   3.965   7.323  0.00  0.00    +0.000 HD
ENDBRANCH  20  23
ENDBRANCH  18  19
ENDBRANCH   4  18
TORSDOF 7
ENDMDL
MODEL 8
REMARK VINA RESULT:    -6.920      4.111      9.529
REMARK INTER + INTRA:         -10.894
REMARK INTER:                  -9.785
REMARK INTRA:                  -1.109
REMARK UNBOUND:                -1.142
REMARK  Name = 
REMARK  9 active torsions:
REMARK  status: ('A' for Active; 'I' for Inactive)
REMARK    1  A    between atoms: C_1  and  C_2
REMARK    2  A    between atoms: C_2  and  C_3
REMARK    3  A    between atoms: C_2  and  C_4
REMARK    4  A    between atoms: C_8  and  C_9
REMARK    5  A    between atoms: C_9  and  O_10
REMARK    6  A    between atoms: O_10  and  C_11
REMARK    7  A    between atoms: C_14  and  C_15
REMARK    8  A    between atoms: C_15  and  N_16
REMARK    9  A    between atoms: C_17  and  C_19
REMARK                            x       y       z     vdW  Elec       q    Type
REMARK                         _______ _______ _______ _____ _____    ______ ____
ROOT
ATOM      1  C   UNL     1      49.083   5.481  17.099  0.00  0.00    +0.000 A 
ATOM      2  C   UNL     1      49.805   6.580  16.642  0.00  0.00    +0.000 A 
ATOM      3  C   UNL     1      49.522   7.120  15.390  0.00  0.00    +0.000 A 
ATOM      4  C   UNL     1      48.537   6.529  14.607  0.00  0.00    +0.000 A 
ATOM      5  N   UNL     1      47.815   5.461  15.030  0.00  0.00    +0.000 NA
ATOM      6  C   UNL     1      48.109   4.962  16.256  0.00  0.00    +0.000 A 
ENDROOT
BRANCH   1   7
ATOM      7  O   UNL     1      49.276   4.839  18.290  0.00  0.00    +0.000 OA
BRANCH   7   8
ATOM      8  C   UNL     1      50.629   4.805  18.743  0.00  0.00    +0.000 C 
BRANCH   8  13
ATOM      9  C   UNL     1      53.281   2.105  18.215  0.00  0.00    +0.000 A 
ATOM     10  C   UNL     1      52.521   1.130  17.555  0.00  0.00    +0.000 A 
ATOM     11  C   UNL     1      51.185   1.363  17.226  0.00  0.00    +0.000 A 
ATOM     12  C   UNL     1      50.579   2.568  17.573  0.00  0.00    +0.000 A 
ATOM     13  C   UNL     1      51.306   3.549  18.255  0.00  0.00    +0.000 A 
ATOM     14  C   UNL     1      52.660   3.317  18.556  0.00  0.00    +0.000 A 
BRANCH   9  16
ATOM     15  C   UNL     1      55.048   2.122  20.017  0.00  0.00    +0.000 C 
ATOM     16  C   UNL     1      54.737   1.827  18.547  0.00  0.00    +0.000 C 
ATOM     17  C   UNL     1      55.151   0.398  18.185  0.00  0.00    +0.000 C 
ENDBRANCH   9  16
ENDBRANCH   8  13
ENDBRANCH   7   8
ENDBRANCH   1   7
BRANCH   4  18
ATOM     18  C   UNL     1      48.231   7.086  13.239  0.00  0.00    +0.000 C 
BRANCH  18  19
ATOM     19  N   UNL     1      47.412   6.189  12.460  0.00  0.00    +0.000 N 
ATOM     20  C   UNL     1      46.346   6.598  11.708  0.00  0.00    +0.000 C 
ATOM     21  O   UNL     1      46.003   7.776  11.635  0.00  0.00    +0.000 OA
ATOM     22  H   UNL     1      47.497   5.210  12.716  0.00  0.00    +0.000 HD
BRANCH  20  23
ATOM     23  C   UNL     1      45.684   5.549  10.922  0.00  0.00    +0.000 A 
ATOM     24  C   UNL     1      45.766   5.563   9.535  0.00  0.00    +0.000 A 
ATOM     25  S   UNL     1      45.005   4.226   8.794  0.00  0.00    +0.000 S 
ATOM     26  C   UNL     1      44.500   3.608  10.297  0.00  0.00    +0.000 A 
ATOM     27  N   UNL     1      43.775   2.460  10.376  0.00  0.00    +0.000 NA
ATOM     28  C   UNL     1      43.440   2.120  11.579  0.00  0.00    +0.000 A 
ATOM     29  N   UNL     1      43.769   2.823  12.705  0.00  0.00    +0.000 N 
ATOM     30  C   UNL     1      44.531   3.966  12.676  0.00  0.00    +0.000 A 
ATOM     31  O   UNL     1      44.861   4.530  13.716  0.00  0.00    +0.000 OA
ATOM     32  C   UNL     1      44.919   4.402  11.350  0.00  0.00    +0.000 A 
ATOM     33  H   UNL     1      43.489   2.500  13.620  0.00  0.00    +0.000 HD
ENDBRANCH  20  23
ENDBRANCH  18  19
ENDBRANCH   4  18
TORSDOF 7
ENDMDL
MODEL 9
REMARK VINA RESULT:    -6.620      3.207      4.337
REMARK INTER + INTRA:         -10.471
REMARK INTER:                  -9.386
REMARK INTRA:                  -1.084
REMARK UNBOUND:                -1.142
REMARK  Name = 
REMARK  9 active torsions:
REMARK  status: ('A' for Active; 'I' for Inactive)
REMARK    1  A    between atoms: C_1  and  C_2
REMARK    2  A    between atoms: C_2  and  C_3
REMARK    3  A    between atoms: C_2  and  C_4
REMARK    4  A    between atoms: C_8  and  C_9
REMARK    5  A    between atoms: C_9  and  O_10
REMARK    6  A    between atoms: O_10  and  C_11
REMARK    7  A    between atoms: C_14  and  C_15
REMARK    8  A    between atoms: C_15  and  N_16
REMARK    9  A    between atoms: C_17  and  C_19
REMARK                            x       y       z     vdW  Elec       q    Type
REMARK                         _______ _______ _______ _____ _____    ______ ____
ROOT
ATOM      1  C   UNL     1      48.175   7.097  12.636  0.00  0.00    +0.000 A 
ATOM      2  C   UNL     1      49.294   7.915  12.756  0.00  0.00    +0.000 A 
ATOM      3  C   UNL     1      50.002   7.947  13.955  0.00  0.00    +0.000 A 
ATOM      4  C   UNL     1      49.555   7.177  15.023  0.00  0.00    +0.000 A 
ATOM      5  N   UNL     1      48.470   6.367  14.932  0.00  0.00    +0.000 NA
ATOM      6  C   UNL     1      47.807   6.353  13.749  0.00  0.00    +0.000 A 
ENDROOT
BRANCH   1   7
ATOM      7  O   UNL     1      47.378   6.992  11.531  0.00  0.00    +0.000 OA
BRANCH   7   8
ATOM      8  C   UNL     1      46.005   7.319  11.745  0.00  0.00    +0.000 C 
BRANCH   8  13
ATOM      9  C   UNL     1      44.871   4.117   9.994  0.00  0.00    +0.000 A 
ATOM     10  C   UNL     1      43.587   3.972  10.540  0.00  0.00    +0.000 A 
ATOM     11  C   UNL     1      43.068   4.928  11.414  0.00  0.00    +0.000 A 
ATOM     12  C   UNL     1      43.831   6.034  11.775  0.00  0.00    +0.000 A 
ATOM     13  C   UNL     1      45.125   6.192  11.266  0.00  0.00    +0.000 A 
ATOM     14  C   UNL     1      45.629   5.239  10.364  0.00  0.00    +0.000 A 
BRANCH   9  16
ATOM     15  C   UNL     1      44.567   1.785   9.079  0.00  0.00    +0.000 C 
ATOM     16  C   UNL     1      45.404   3.066   9.036  0.00  0.00    +0.000 C 
ATOM     17  C   UNL     1      45.511   3.591   7.602  0.00  0.00    +0.000 C 
ENDBRANCH   9  16
ENDBRANCH   8  13
ENDBRANCH   7   8
ENDBRANCH   1   7
BRANCH   4  18
ATOM     18  C   UNL     1      50.294   7.214  16.337  0.00  0.00    +0.000 C 
BRANCH  18  19
ATOM     19  N   UNL     1      50.872   5.935  16.670  0.00  0.00    +0.000 N 
ATOM     20  C   UNL     1      50.311   5.059  17.558  0.00  0.00    +0.000 C 
ATOM     21  O   UNL     1      49.258   5.298  18.144  0.00  0.00    +0.000 OA
ATOM     22  H   UNL     1      51.851   5.836  16.421  0.00  0.00    +0.000 HD
BRANCH  20  23
ATOM     23  C   UNL     1      51.004   3.774  17.705  0.00  0.00    +0.000 A 
ATOM     24  C   UNL     1      50.418   2.608  17.229  0.00  0.00    +0.000 A 
ATOM     25  S   UNL     1      51.401   1.224  17.416  0.00  0.00    +0.000 S 
ATOM     26  C   UNL     1      52.624   2.127  18.181  0.00  0.00    +0.000 A 
ATOM     27  N   UNL     1      53.767   1.532  18.617  0.00  0.00    +0.000 NA
ATOM     28  C   UNL     1      54.599   2.334  19.200  0.00  0.00    +0.000 A 
ATOM     29  N   UNL     1      54.390   3.674  19.382  0.00  0.00    +0.000 N 
ATOM     30  C   UNL     1      53.268   4.322  18.926  0.00  0.00    +0.000 A 
ATOM     31  O   UNL     1      53.150   5.538  19.050  0.00  0.00    +0.000 OA
ATOM     32  C   UNL     1      52.294   3.467  18.280  0.00  0.00    +0.000 A 
ATOM     33  H   UNL     1      55.083   4.251  19.834  0.00  0.00    +0.000 HD
ENDBRANCH  20  23
ENDBRANCH  18  19
ENDBRANCH   4  18
TORSDOF 7
ENDMDL
