MODEL 1
REMARK VINA RESULT:    -8.382      0.000      0.000
REMARK INTER + INTRA:         -13.096
REMARK INTER:                 -12.057
REMARK INTRA:                  -1.038
REMARK UNBOUND:                -1.038
REMARK  Name = 
REMARK  8 active torsions:
REMARK  status: ('A' for Active; 'I' for Inactive)
REMARK    1  A    between atoms: N_1  and  C_2
REMARK    2  A    between atoms: C_2  and  C_3
REMARK    3  A    between atoms: C_2  and  C_24
REMARK    4  A    between atoms: C_3  and  C_4
REMARK    5  A    between atoms: C_7  and  C_8
REMARK    6  A    between atoms: C_8  and  N_9
REMARK    7  A    between atoms: C_10  and  C_12
REMARK    8  A    between atoms: C_24  and  C_26
REMARK                            x       y       z     vdW  Elec       q    Type
REMARK                         _______ _______ _______ _____ _____    ______ ____
ROOT
ATOM      1  C   UNL     1      45.604   4.542  12.115  0.00  0.00    +0.000 A 
ATOM      2  C   UNL     1      46.073   4.020  13.328  0.00  0.00    +0.000 A 
ATOM      3  C   UNL     1      46.977   4.740  14.117  0.00  0.00    +0.000 A 
ATOM      4  C   UNL     1      47.425   6.004  13.715  0.00  0.00    +0.000 A 
ATOM      5  C   UNL     1      46.959   6.527  12.503  0.00  0.00    +0.000 A 
ATOM      6  C   UNL     1      46.054   5.809  11.714  0.00  0.00    +0.000 A 
ENDROOT
BRANCH   1   7
ATOM      7  C   UNL     1      44.683   3.730  11.230  0.00  0.00    +0.000 C 
BRANCH   7   8
ATOM      8  C   UNL     1      44.807   3.918   9.703  0.00  0.00    +0.000 C 
BRANCH   8   9
ATOM      9  N   UNL     1      43.662   4.634   9.105  0.00  0.00    +0.000 NA
ATOM     10  H   UNL     1      42.789   4.307   9.512  0.00  0.00    +0.000 HD
ATOM     11  H   UNL     1      43.627   4.381   8.112  0.00  0.00    +0.000 HD
ENDBRANCH   8   9
BRANCH   8  12
ATOM     12  C   UNL     1      44.998   2.578   8.967  0.00  0.00    +0.000 C 
ATOM     13  O   UNL     1      44.367   1.569   9.288  0.00  0.00    +0.000 OA
BRANCH  12  14
ATOM     14  C   UNL     1      45.981   2.474   7.850  0.00  0.00    +0.000 A 
ATOM     15  C   UNL     1      46.155   3.437   6.853  0.00  0.00    +0.000 A 
ATOM     16  C   UNL     1      47.093   3.222   5.841  0.00  0.00    +0.000 A 
ATOM     17  C   UNL     1      47.835   2.053   5.862  0.00  0.00    +0.000 A 
ATOM     18  N   UNL     1      47.702   1.106   6.811  0.00  0.00    +0.000 NA
ATOM     19  C   UNL     1      46.778   1.335   7.780  0.00  0.00    +0.000 A 
ENDBRANCH  12  14
ENDBRANCH   8  12
ENDBRANCH   7   8
ENDBRANCH   1   7
BRANCH   4  20
ATOM     20  C   UNL     1      48.441   6.759  14.533  0.00  0.00    +0.000 C 
BRANCH  20  21
ATOM     21  N   UNL     1      48.229   6.544  15.944  0.00  0.00    +0.000 N 
ATOM     22  C   UNL     1      49.220   6.050  16.750  0.00  0.00    +0.000 C 
ATOM     23  O   UNL     1      50.342   5.792  16.318  0.00  0.00    +0.000 OA
ATOM     24  H   UNL     1      47.268   6.545  16.270  0.00  0.00    +0.000 HD
BRANCH  22  25
ATOM     25  C   UNL     1      48.899   5.907  18.176  0.00  0.00    +0.000 A 
ATOM     26  C   UNL     1      49.151   4.702  18.819  0.00  0.00    +0.000 A 
ATOM     27  S   UNL     1      48.787   4.724  20.484  0.00  0.00    +0.000 S 
ATOM     28  C   UNL     1      48.226   6.328  20.395  0.00  0.00    +0.000 A 
ATOM     29  N   UNL     1      47.743   6.961  21.498  0.00  0.00    +0.000 NA
ATOM     30  C   UNL     1      47.318   8.160  21.283  0.00  0.00    +0.000 A 
ATOM     31  N   UNL     1      47.336   8.787  20.064  0.00  0.00    +0.000 N 
ATOM     32  C   UNL     1      47.841   8.198  18.929  0.00  0.00    +0.000 A 
ATOM     33  O   UNL     1      47.878   8.803  17.862  0.00  0.00    +0.000 OA
ATOM     34  C   UNL     1      48.326   6.843  19.115  0.00  0.00    +0.000 A 
ATOM     35  H   UNL     1      46.991   9.729  19.960  0.00  0.00    +0.000 HD
ENDBRANCH  22  25
ENDBRANCH  20  21
ENDBRANCH   4  20
TORSDOF 8
ENDMDL
MODEL 2
REMARK VINA RESULT:    -8.349      1.252      1.874
REMARK INTER + INTRA:         -13.048
REMARK INTER:                 -12.230
REMARK INTRA:                  -0.818
REMARK UNBOUND:                -1.038
REMARK  Name = 
REMARK  8 active torsions:
REMARK  status: ('A' for Active; 'I' for Inactive)
REMARK    1  A    between atoms: N_1  and  C_2
REMARK    2  A    between atoms: C_2  and  C_3
REMARK    3  A    between atoms: C_2  and  C_24
REMARK    4  A    between atoms: C_3  and  C_4
REMARK    5  A    between atoms: C_7  and  C_8
REMARK    6  A    between atoms: C_8  and  N_9
REMARK    7  A    between atoms: C_10  and  C_12
REMARK    8  A    between atoms: C_24  and  C_26
REMARK                            x       y       z     vdW  Elec       q    Type
REMARK                         _______ _______ _______ _____ _____    ______ ____
ROOT
ATOM      1  C   UNL     1      45.676   4.800  12.042  0.00  0.00    +0.000 A 
ATOM      2  C   UNL     1      46.159   4.321  13.267  0.00  0.00    +0.000 A 
ATOM      3  C   UNL     1      47.127   5.032  13.984  0.00  0.00    +0.000 A 
ATOM      4  C   UNL     1      47.629   6.244  13.495  0.00  0.00    +0.000 A 
ATOM      5  C   UNL     1      47.149   6.725  12.270  0.00  0.00    +0.000 A 
ATOM      6  C   UNL     1      46.179   6.015  11.555  0.00  0.00    +0.000 A 
ENDROOT
BRANCH   1   7
ATOM      7  C   UNL     1      44.681   3.993  11.235  0.00  0.00    +0.000 C 
BRANCH   7   8
ATOM      8  C   UNL     1      44.765   4.082   9.697  0.00  0.00    +0.000 C 
BRANCH   8   9
ATOM      9  N   UNL     1      43.585   4.721   9.081  0.00  0.00    +0.000 NA
ATOM     10  H   UNL     1      43.691   5.733   9.080  0.00  0.00    +0.000 HD
ATOM     11  H   UNL     1      42.778   4.518   9.681  0.00  0.00    +0.000 HD
ENDBRANCH   8   9
BRANCH   8  12
ATOM     12  C   UNL     1      44.983   2.703   9.047  0.00  0.00    +0.000 C 
ATOM     13  O   UNL     1      44.369   1.705   9.428  0.00  0.00    +0.000 OA
BRANCH  12  14
ATOM     14  C   UNL     1      45.972   2.547   7.941  0.00  0.00    +0.000 A 
ATOM     15  C   UNL     1      46.190   3.487   6.932  0.00  0.00    +0.000 A 
ATOM     16  C   UNL     1      47.130   3.224   5.933  0.00  0.00    +0.000 A 
ATOM     17  C   UNL     1      47.830   2.030   5.979  0.00  0.00    +0.000 A 
ATOM     18  N   UNL     1      47.655   1.103   6.942  0.00  0.00    +0.000 NA
ATOM     19  C   UNL     1      46.730   1.380   7.897  0.00  0.00    +0.000 A 
ENDBRANCH  12  14
ENDBRANCH   8  12
ENDBRANCH   7   8
ENDBRANCH   1   7
BRANCH   4  20
ATOM     20  C   UNL     1      48.712   6.986  14.235  0.00  0.00    +0.000 C 
BRANCH  20  21
ATOM     21  N   UNL     1      48.372   7.139  15.628  0.00  0.00    +0.000 N 
ATOM     22  C   UNL     1      49.170   6.632  16.620  0.00  0.00    +0.000 C 
ATOM     23  O   UNL     1      50.223   6.048  16.374  0.00  0.00    +0.000 OA
ATOM     24  H   UNL     1      47.421   7.420  15.842  0.00  0.00    +0.000 HD
BRANCH  22  25
ATOM     25  C   UNL     1      48.740   6.881  18.002  0.00  0.00    +0.000 A 
ATOM     26  C   UNL     1      48.392   8.168  18.392  0.00  0.00    +0.000 A 
ATOM     27  S   UNL     1      47.850   8.274  20.004  0.00  0.00    +0.000 S 
ATOM     28  C   UNL     1      48.113   6.612  20.259  0.00  0.00    +0.000 A 
ATOM     29  N   UNL     1      47.860   6.041  21.468  0.00  0.00    +0.000 NA
ATOM     30  C   UNL     1      48.139   4.783  21.533  0.00  0.00    +0.000 A 
ATOM     31  N   UNL     1      48.643   4.041  20.497  0.00  0.00    +0.000 N 
ATOM     32  C   UNL     1      48.886   4.566  19.251  0.00  0.00    +0.000 A 
ATOM     33  O   UNL     1      49.301   3.864  18.334  0.00  0.00    +0.000 OA
ATOM     34  C   UNL     1      48.597   5.983  19.125  0.00  0.00    +0.000 A 
ATOM     35  H   UNL     1      48.838   3.057  20.611  0.00  0.00    +0.000 HD
ENDBRANCH  22  25
ENDBRANCH  20  21
ENDBRANCH   4  20
TORSDOF 8
ENDMDL
MODEL 3
REMARK VINA RESULT:    -8.231      2.489      2.911
REMARK INTER + INTRA:         -12.877
REMARK INTER:                 -11.853
REMARK INTRA:                  -1.025
REMARK UNBOUND:                -1.038
REMARK  Name = 
REMARK  8 active torsions:
REMARK  status: ('A' for Active; 'I' for Inactive)
REMARK    1  A    between atoms: N_1  and  C_2
REMARK    2  A    between atoms: C_2  and  C_3
REMARK    3  A    between atoms: C_2  and  C_24
REMARK    4  A    between atoms: C_3  and  C_4
REMARK    5  A    between atoms: C_7  and  C_8
REMARK    6  A    between atoms: C_8  and  N_9
REMARK    7  A    between atoms: C_10  and  C_12
REMARK    8  A    between atoms: C_24  and  C_26
REMARK                            x       y       z     vdW  Elec       q    Type
REMARK                         _______ _______ _______ _____ _____    ______ ____
ROOT
ATOM      1  C   UNL     1      44.903   5.530  10.809  0.00  0.00    +0.000 A 
ATOM      2  C   UNL     1      44.304   6.061  11.960  0.00  0.00    +0.000 A 
ATOM      3  C   UNL     1      45.003   6.945  12.789  0.00  0.00    +0.000 A 
ATOM      4  C   UNL     1      46.314   7.326  12.482  0.00  0.00    +0.000 A 
ATOM      5  C   UNL     1      46.915   6.796  11.332  0.00  0.00    +0.000 A 
ATOM      6  C   UNL     1      46.216   5.914  10.502  0.00  0.00    +0.000 A 
ENDROOT
BRANCH   1   7
ATOM      7  C   UNL     1      44.169   4.520   9.953  0.00  0.00    +0.000 C 
BRANCH   7   8
ATOM      8  C   UNL     1      44.213   3.042  10.394  0.00  0.00    +0.000 C 
BRANCH   8   9
ATOM      9  N   UNL     1      45.209   2.774  11.451  0.00  0.00    +0.000 NA
ATOM     10  H   UNL     1      44.747   2.459  12.300  0.00  0.00    +0.000 HD
ATOM     11  H   UNL     1      45.658   3.666  11.682  0.00  0.00    +0.000 HD
ENDBRANCH   8   9
BRANCH   8  12
ATOM     12  C   UNL     1      44.472   2.091   9.210  0.00  0.00    +0.000 C 
ATOM     13  O   UNL     1      43.745   1.121   8.990  0.00  0.00    +0.000 OA
BRANCH  12  14
ATOM     14  C   UNL     1      45.638   2.322   8.309  0.00  0.00    +0.000 A 
ATOM     15  C   UNL     1      45.966   3.551   7.733  0.00  0.00    +0.000 A 
ATOM     16  C   UNL     1      47.072   3.644   6.885  0.00  0.00    +0.000 A 
ATOM     17  C   UNL     1      47.822   2.505   6.645  0.00  0.00    +0.000 A 
ATOM     18  N   UNL     1      47.543   1.304   7.190  0.00  0.00    +0.000 NA
ATOM     19  C   UNL     1      46.458   1.238   8.004  0.00  0.00    +0.000 A 
ENDBRANCH  12  14
ENDBRANCH   8  12
ENDBRANCH   7   8
ENDBRANCH   1   7
BRANCH   4  20
ATOM     20  C   UNL     1      47.091   8.232  13.401  0.00  0.00    +0.000 C 
BRANCH  20  21
ATOM     21  N   UNL     1      47.523   7.522  14.580  0.00  0.00    +0.000 N 
ATOM     22  C   UNL     1      48.757   6.930  14.647  0.00  0.00    +0.000 C 
ATOM     23  O   UNL     1      49.563   6.998  13.722  0.00  0.00    +0.000 OA
ATOM     24  H   UNL     1      46.808   7.274  15.256  0.00  0.00    +0.000 HD
BRANCH  22  25
ATOM     25  C   UNL     1      49.099   6.266  15.912  0.00  0.00    +0.000 A 
ATOM     26  C   UNL     1      50.160   6.742  16.672  0.00  0.00    +0.000 A 
ATOM     27  S   UNL     1      50.382   5.906  18.141  0.00  0.00    +0.000 S 
ATOM     28  C   UNL     1      49.103   4.841  17.789  0.00  0.00    +0.000 A 
ATOM     29  N   UNL     1      48.768   3.843  18.651  0.00  0.00    +0.000 NA
ATOM     30  C   UNL     1      47.804   3.086  18.244  0.00  0.00    +0.000 A 
ATOM     31  N   UNL     1      47.141   3.240  17.055  0.00  0.00    +0.000 N 
ATOM     32  C   UNL     1      47.424   4.250  16.167  0.00  0.00    +0.000 A 
ATOM     33  O   UNL     1      46.784   4.382  15.128  0.00  0.00    +0.000 OA
ATOM     34  C   UNL     1      48.507   5.126  16.573  0.00  0.00    +0.000 A 
ATOM     35  H   UNL     1      46.392   2.616  16.795  0.00  0.00    +0.000 HD
ENDBRANCH  22  25
ENDBRANCH  20  21
ENDBRANCH   4  20
TORSDOF 8
ENDMDL
MODEL 4
REMARK VINA RESULT:    -7.953      2.471      3.676
REMARK INTER + INTRA:         -12.478
REMARK INTER:                 -11.545
REMARK INTRA:                  -0.933
REMARK UNBOUND:                -1.038
REMARK  Name = 
REMARK  8 active torsions:
REMARK  status: ('A' for Active; 'I' for Inactive)
REMARK    1  A    between atoms: N_1  and  C_2
REMARK    2  A    between atoms: C_2  and  C_3
REMARK    3  A    between atoms: C_2  and  C_24
REMARK    4  A    between atoms: C_3  and  C_4
REMARK    5  A    between atoms: C_7  and  C_8
REMARK    6  A    between atoms: C_8  and  N_9
REMARK    7  A    between atoms: C_10  and  C_12
REMARK    8  A    between atoms: C_24  and  C_26
REMARK                            x       y       z     vdW  Elec       q    Type
REMARK                         _______ _______ _______ _____ _____    ______ ____
ROOT
ATOM      1  C   UNL     1      45.803   4.840  12.620  0.00  0.00    +0.000 A 
ATOM      2  C   UNL     1      45.968   6.215  12.400  0.00  0.00    +0.000 A 
ATOM      3  C   UNL     1      46.857   6.964  13.179  0.00  0.00    +0.000 A 
ATOM      4  C   UNL     1      47.610   6.353  14.188  0.00  0.00    +0.000 A 
ATOM      5  C   UNL     1      47.446   4.979  14.410  0.00  0.00    +0.000 A 
ATOM      6  C   UNL     1      46.558   4.230  13.631  0.00  0.00    +0.000 A 
ENDROOT
BRANCH   1   7
ATOM      7  C   UNL     1      44.788   4.048  11.823  0.00  0.00    +0.000 C 
BRANCH   7   8
ATOM      8  C   UNL     1      44.778   4.232  10.291  0.00  0.00    +0.000 C 
BRANCH   8   9
ATOM      9  N   UNL     1      43.668   5.077   9.808  0.00  0.00    +0.000 NA
ATOM     10  H   UNL     1      43.814   5.330   8.834  0.00  0.00    +0.000 HD
ATOM     11  H   UNL     1      43.696   5.954  10.340  0.00  0.00    +0.000 HD
ENDBRANCH   8   9
BRANCH   8  12
ATOM     12  C   UNL     1      44.741   2.884   9.546  0.00  0.00    +0.000 C 
ATOM     13  O   UNL     1      43.961   1.988   9.871  0.00  0.00    +0.000 OA
BRANCH  12  14
ATOM     14  C   UNL     1      45.679   2.632   8.414  0.00  0.00    +0.000 A 
ATOM     15  C   UNL     1      46.125   3.607   7.519  0.00  0.00    +0.000 A 
ATOM     16  C   UNL     1      46.988   3.249   6.481  0.00  0.00    +0.000 A 
ATOM     17  C   UNL     1      47.386   1.927   6.375  0.00  0.00    +0.000 A 
ATOM     18  N   UNL     1      46.986   0.961   7.224  0.00  0.00    +0.000 NA
ATOM     19  C   UNL     1      46.141   1.332   8.220  0.00  0.00    +0.000 A 
ENDBRANCH  12  14
ENDBRANCH   8  12
ENDBRANCH   7   8
ENDBRANCH   1   7
BRANCH   4  20
ATOM     20  C   UNL     1      48.527   7.164  15.067  0.00  0.00    +0.000 C 
BRANCH  20  21
ATOM     21  N   UNL     1      49.609   6.353  15.569  0.00  0.00    +0.000 N 
ATOM     22  C   UNL     1      49.743   6.084  16.905  0.00  0.00    +0.000 C 
ATOM     23  O   UNL     1      48.936   6.497  17.736  0.00  0.00    +0.000 OA
ATOM     24  H   UNL     1      50.389   6.186  14.941  0.00  0.00    +0.000 HD
BRANCH  22  25
ATOM     25  C   UNL     1      50.863   5.217  17.293  0.00  0.00    +0.000 A 
ATOM     26  C   UNL     1      52.066   5.786  17.691  0.00  0.00    +0.000 A 
ATOM     27  S   UNL     1      53.237   4.647  18.174  0.00  0.00    +0.000 S 
ATOM     28  C   UNL     1      52.199   3.347  17.817  0.00  0.00    +0.000 A 
ATOM     29  N   UNL     1      52.603   2.060  17.994  0.00  0.00    +0.000 NA
ATOM     30  C   UNL     1      51.731   1.174  17.650  0.00  0.00    +0.000 A 
ATOM     31  N   UNL     1      50.487   1.457  17.149  0.00  0.00    +0.000 N 
ATOM     32  C   UNL     1      50.024   2.740  16.981  0.00  0.00    +0.000 A 
ATOM     33  O   UNL     1      48.889   2.958  16.567  0.00  0.00    +0.000 OA
ATOM     34  C   UNL     1      50.971   3.777  17.347  0.00  0.00    +0.000 A 
ATOM     35  H   UNL     1      49.847   0.717  16.901  0.00  0.00    +0.000 HD
ENDBRANCH  22  25
ENDBRANCH  20  21
ENDBRANCH   4  20
TORSDOF 8
ENDMDL
MODEL 5
REMARK VINA RESULT:    -7.335      2.183      3.060
REMARK INTER + INTRA:         -11.589
REMARK INTER:                 -10.427
REMARK INTRA:                  -1.162
REMARK UNBOUND:                -1.038
REMARK  Name = 
REMARK  8 active torsions:
REMARK  status: ('A' for Active; 'I' for Inactive)
REMARK    1  A    between atoms: N_1  and  C_2
REMARK    2  A    between atoms: C_2  and  C_3
REMARK    3  A    between atoms: C_2  and  C_24
REMARK    4  A    between atoms: C_3  and  C_4
REMARK    5  A    between atoms: C_7  and  C_8
REMARK    6  A    between atoms: C_8  and  N_9
REMARK    7  A    between atoms: C_10  and  C_12
REMARK    8  A    between atoms: C_24  and  C_26
REMARK                            x       y       z     vdW  Elec       q    Type
REMARK                         _______ _______ _______ _____ _____    ______ ____
ROOT
ATOM      1  C   UNL     1      46.377   4.876  12.800  0.00  0.00    +0.000 A 
ATOM      2  C   UNL     1      46.235   6.017  11.998  0.00  0.00    +0.000 A 
ATOM      3  C   UNL     1      46.771   7.246  12.398  0.00  0.00    +0.000 A 
ATOM      4  C   UNL     1      47.470   7.360  13.605  0.00  0.00    +0.000 A 
ATOM      5  C   UNL     1      47.612   6.222  14.409  0.00  0.00    +0.000 A 
ATOM      6  C   UNL     1      47.078   4.992  14.009  0.00  0.00    +0.000 A 
ENDROOT
BRANCH   1   7
ATOM      7  C   UNL     1      45.735   3.565  12.399  0.00  0.00    +0.000 C 
BRANCH   7   8
ATOM      8  C   UNL     1      44.215   3.564  12.134  0.00  0.00    +0.000 C 
BRANCH   8   9
ATOM      9  N   UNL     1      43.561   2.284  12.474  0.00  0.00    +0.000 NA
ATOM     10  H   UNL     1      44.076   1.505  12.069  0.00  0.00    +0.000 HD
ATOM     11  H   UNL     1      42.639   2.282  12.025  0.00  0.00    +0.000 HD
ENDBRANCH   8   9
BRANCH   8  12
ATOM     12  C   UNL     1      43.880   3.924  10.674  0.00  0.00    +0.000 C 
ATOM     13  O   UNL     1      42.856   4.544  10.381  0.00  0.00    +0.000 OA
BRANCH  12  14
ATOM     14  C   UNL     1      44.793   3.502   9.573  0.00  0.00    +0.000 A 
ATOM     15  C   UNL     1      45.477   4.379   8.729  0.00  0.00    +0.000 A 
ATOM     16  C   UNL     1      46.292   3.868   7.715  0.00  0.00    +0.000 A 
ATOM     17  C   UNL     1      46.403   2.494   7.583  0.00  0.00    +0.000 A 
ATOM     18  N   UNL     1      45.767   1.617   8.384  0.00  0.00    +0.000 NA
ATOM     19  C   UNL     1      44.976   2.139   9.356  0.00  0.00    +0.000 A 
ENDBRANCH  12  14
ENDBRANCH   8  12
ENDBRANCH   7   8
ENDBRANCH   1   7
BRANCH   4  20
ATOM     20  C   UNL     1      48.000   8.693  14.068  0.00  0.00    +0.000 C 
BRANCH  20  21
ATOM     21  N   UNL     1      47.686   8.917  15.457  0.00  0.00    +0.000 N 
ATOM     22  C   UNL     1      48.445   9.748  16.238  0.00  0.00    +0.000 C 
ATOM     23  O   UNL     1      49.411  10.361  15.789  0.00  0.00    +0.000 OA
ATOM     24  H   UNL     1      47.038   8.269  15.893  0.00  0.00    +0.000 HD
BRANCH  22  25
ATOM     25  C   UNL     1      48.007   9.926  17.629  0.00  0.00    +0.000 A 
ATOM     26  C   UNL     1      47.651  11.191  18.080  0.00  0.00    +0.000 A 
ATOM     27  S   UNL     1      47.101  11.215  19.693  0.00  0.00    +0.000 S 
ATOM     28  C   UNL     1      47.370   9.544  19.866  0.00  0.00    +0.000 A 
ATOM     29  N   UNL     1      47.113   8.913  21.044  0.00  0.00    +0.000 NA
ATOM     30  C   UNL     1      47.397   7.654  21.049  0.00  0.00    +0.000 A 
ATOM     31  N   UNL     1      47.909   6.966  19.980  0.00  0.00    +0.000 N 
ATOM     32  C   UNL     1      48.157   7.554  18.762  0.00  0.00    +0.000 A 
ATOM     33  O   UNL     1      48.579   6.899  17.814  0.00  0.00    +0.000 OA
ATOM     34  C   UNL     1      47.862   8.973  18.705  0.00  0.00    +0.000 A 
ATOM     35  H   UNL     1      48.107   5.978  20.046  0.00  0.00    +0.000 HD
ENDBRANCH  22  25
ENDBRANCH  20  21
ENDBRANCH   4  20
TORSDOF 8
ENDMDL
MODEL 6
REMARK VINA RESULT:    -7.335      2.992      9.511
REMARK INTER + INTRA:         -11.589
REMARK INTER:                  -9.842
REMARK INTRA:                  -1.746
REMARK UNBOUND:                -1.038
REMARK  Name = 
REMARK  8 active torsions:
REMARK  status: ('A' for Active; 'I' for Inactive)
REMARK    1  A    between atoms: N_1  and  C_2
REMARK    2  A    between atoms: C_2  and  C_3
REMARK    3  A    between atoms: C_2  and  C_24
REMARK    4  A    between atoms: C_3  and  C_4
REMARK    5  A    between atoms: C_7  and  C_8
REMARK    6  A    between atoms: C_8  and  N_9
REMARK    7  A    between atoms: C_10  and  C_12
REMARK    8  A    between atoms: C_24  and  C_26
REMARK                            x       y       z     vdW  Elec       q    Type
REMARK                         _______ _______ _______ _____ _____    ______ ____
ROOT
ATOM      1  C   UNL     1      49.063   7.915  16.076  0.00  0.00    +0.000 A 
ATOM      2  C   UNL     1      49.534   6.931  15.197  0.00  0.00    +0.000 A 
ATOM      3  C   UNL     1      49.100   6.890  13.867  0.00  0.00    +0.000 A 
ATOM      4  C   UNL     1      48.192   7.840  13.384  0.00  0.00    +0.000 A 
ATOM      5  C   UNL     1      47.719   8.825  14.261  0.00  0.00    +0.000 A 
ATOM      6  C   UNL     1      48.154   8.867  15.590  0.00  0.00    +0.000 A 
ENDROOT
BRANCH   1   7
ATOM      7  C   UNL     1      49.479   7.913  17.532  0.00  0.00    +0.000 C 
BRANCH   7   8
ATOM      8  C   UNL     1      48.383   7.666  18.590  0.00  0.00    +0.000 C 
BRANCH   8   9
ATOM      9  N   UNL     1      48.358   8.687  19.658  0.00  0.00    +0.000 NA
ATOM     10  H   UNL     1      49.225   9.219  19.658  0.00  0.00    +0.000 HD
ATOM     11  H   UNL     1      48.327   8.191  20.555  0.00  0.00    +0.000 HD
ENDBRANCH   8   9
BRANCH   8  12
ATOM     12  C   UNL     1      48.501   6.272  19.234  0.00  0.00    +0.000 C 
ATOM     13  O   UNL     1      48.709   6.133  20.440  0.00  0.00    +0.000 OA
BRANCH  12  14
ATOM     14  C   UNL     1      48.382   5.048  18.389  0.00  0.00    +0.000 A 
ATOM     15  C   UNL     1      49.444   4.199  18.068  0.00  0.00    +0.000 A 
ATOM     16  C   UNL     1      49.218   3.090  17.248  0.00  0.00    +0.000 A 
ATOM     17  C   UNL     1      47.934   2.861  16.782  0.00  0.00    +0.000 A 
ATOM     18  N   UNL     1      46.884   3.651  17.079  0.00  0.00    +0.000 NA
ATOM     19  C   UNL     1      47.131   4.726  17.870  0.00  0.00    +0.000 A 
ENDBRANCH  12  14
ENDBRANCH   8  12
ENDBRANCH   7   8
ENDBRANCH   1   7
BRANCH   4  20
ATOM     20  C   UNL     1      47.678   7.768  11.969  0.00  0.00    +0.000 C 
BRANCH  20  21
ATOM     21  N   UNL     1      46.973   6.531  11.740  0.00  0.00    +0.000 N 
ATOM     22  C   UNL     1      45.614   6.442  11.892  0.00  0.00    +0.000 C 
ATOM     23  O   UNL     1      44.930   7.414  12.204  0.00  0.00    +0.000 OA
ATOM     24  H   UNL     1      47.531   5.684  11.695  0.00  0.00    +0.000 HD
BRANCH  22  25
ATOM     25  C   UNL     1      45.003   5.140  11.597  0.00  0.00    +0.000 A 
ATOM     26  C   UNL     1      44.309   4.465  12.593  0.00  0.00    +0.000 A 
ATOM     27  S   UNL     1      43.603   3.005  12.069  0.00  0.00    +0.000 S 
ATOM     28  C   UNL     1      44.245   3.193  10.505  0.00  0.00    +0.000 A 
ATOM     29  N   UNL     1      44.024   2.258   9.542  0.00  0.00    +0.000 NA
ATOM     30  C   UNL     1      44.599   2.507   8.413  0.00  0.00    +0.000 A 
ATOM     31  N   UNL     1      45.371   3.611   8.158  0.00  0.00    +0.000 N 
ATOM     32  C   UNL     1      45.597   4.596   9.089  0.00  0.00    +0.000 A 
ATOM     33  O   UNL     1      46.261   5.590   8.814  0.00  0.00    +0.000 OA
ATOM     34  C   UNL     1      44.978   4.360  10.381  0.00  0.00    +0.000 A 
ATOM     35  H   UNL     1      45.791   3.750   7.251  0.00  0.00    +0.000 HD
ENDBRANCH  22  25
ENDBRANCH  20  21
ENDBRANCH   4  20
TORSDOF 8
ENDMDL
MODEL 7
REMARK VINA RESULT:    -7.322      2.339      2.843
REMARK INTER + INTRA:         -11.570
REMARK INTER:                 -10.397
REMARK INTRA:                  -1.173
REMARK UNBOUND:                -1.038
REMARK  Name = 
REMARK  8 active torsions:
REMARK  status: ('A' for Active; 'I' for Inactive)
REMARK    1  A    between atoms: N_1  and  C_2
REMARK    2  A    between atoms: C_2  and  C_3
REMARK    3  A    between atoms: C_2  and  C_24
REMARK    4  A    between atoms: C_3  and  C_4
REMARK    5  A    between atoms: C_7  and  C_8
REMARK    6  A    between atoms: C_8  and  N_9
REMARK    7  A    between atoms: C_10  and  C_12
REMARK    8  A    between atoms: C_24  and  C_26
REMARK                            x       y       z     vdW  Elec       q    Type
REMARK                         _______ _______ _______ _____ _____    ______ ____
ROOT
ATOM      1  C   UNL     1      45.785   5.569  12.884  0.00  0.00    +0.000 A 
ATOM      2  C   UNL     1      46.508   5.072  13.977  0.00  0.00    +0.000 A 
ATOM      3  C   UNL     1      47.743   5.627  14.332  0.00  0.00    +0.000 A 
ATOM      4  C   UNL     1      48.278   6.698  13.607  0.00  0.00    +0.000 A 
ATOM      5  C   UNL     1      47.557   7.196  12.514  0.00  0.00    +0.000 A 
ATOM      6  C   UNL     1      46.322   6.643  12.160  0.00  0.00    +0.000 A 
ENDROOT
BRANCH   1   7
ATOM      7  C   UNL     1      44.485   4.921  12.460  0.00  0.00    +0.000 C 
BRANCH   7   8
ATOM      8  C   UNL     1      44.136   4.930  10.957  0.00  0.00    +0.000 C 
BRANCH   8   9
ATOM      9  N   UNL     1      42.839   5.571  10.659  0.00  0.00    +0.000 NA
ATOM     10  H   UNL     1      42.984   6.445  10.160  0.00  0.00    +0.000 HD
ATOM     11  H   UNL     1      42.408   5.820  11.555  0.00  0.00    +0.000 HD
ENDBRANCH   8   9
BRANCH   8  12
ATOM     12  C   UNL     1      44.145   3.513  10.351  0.00  0.00    +0.000 C 
ATOM     13  O   UNL     1      43.422   2.618  10.792  0.00  0.00    +0.000 OA
BRANCH  12  14
ATOM     14  C   UNL     1      45.057   3.193   9.216  0.00  0.00    +0.000 A 
ATOM     15  C   UNL     1      45.504   1.910   8.893  0.00  0.00    +0.000 A 
ATOM     16  C   UNL     1      46.377   1.732   7.817  0.00  0.00    +0.000 A 
ATOM     17  C   UNL     1      46.770   2.844   7.091  0.00  0.00    +0.000 A 
ATOM     18  N   UNL     1      46.353   4.096   7.366  0.00  0.00    +0.000 NA
ATOM     19  C   UNL     1      45.511   4.243   8.421  0.00  0.00    +0.000 A 
ENDBRANCH  12  14
ENDBRANCH   8  12
ENDBRANCH   7   8
ENDBRANCH   1   7
BRANCH   4  20
ATOM     20  C   UNL     1      49.633   7.263  13.949  0.00  0.00    +0.000 C 
BRANCH  20  21
ATOM     21  N   UNL     1      49.877   7.187  15.369  0.00  0.00    +0.000 N 
ATOM     22  C   UNL     1      51.134   7.352  15.889  0.00  0.00    +0.000 C 
ATOM     23  O   UNL     1      52.106   7.598  15.178  0.00  0.00    +0.000 OA
ATOM     24  H   UNL     1      49.145   6.780  15.941  0.00  0.00    +0.000 HD
BRANCH  22  25
ATOM     25  C   UNL     1      51.254   7.290  17.351  0.00  0.00    +0.000 A 
ATOM     26  C   UNL     1      51.892   8.319  18.033  0.00  0.00    +0.000 A 
ATOM     27  S   UNL     1      51.885   8.128  19.726  0.00  0.00    +0.000 S 
ATOM     28  C   UNL     1      51.078   6.635  19.609  0.00  0.00    +0.000 A 
ATOM     29  N   UNL     1      50.774   5.916  20.723  0.00  0.00    +0.000 NA
ATOM     30  C   UNL     1      50.196   4.786  20.489  0.00  0.00    +0.000 A 
ATOM     31  N   UNL     1      49.889   4.312  19.240  0.00  0.00    +0.000 N 
ATOM     32  C   UNL     1      50.149   5.016  18.088  0.00  0.00    +0.000 A 
ATOM     33  O   UNL     1      49.825   4.578  16.989  0.00  0.00    +0.000 OA
ATOM     34  C   UNL     1      50.807   6.292  18.296  0.00  0.00    +0.000 A 
ATOM     35  H   UNL     1      49.432   3.419  19.122  0.00  0.00    +0.000 HD
ENDBRANCH  22  25
ENDBRANCH  20  21
ENDBRANCH   4  20
TORSDOF 8
ENDMDL
MODEL 8
REMARK VINA RESULT:    -7.166      4.241      8.801
REMARK INTER + INTRA:         -11.346
REMARK INTER:                  -9.367
REMARK INTRA:                  -1.978
REMARK UNBOUND:                -1.038
REMARK  Name = 
REMARK  8 active torsions:
REMARK  status: ('A' for Active; 'I' for Inactive)
REMARK    1  A    between atoms: N_1  and  C_2
REMARK    2  A    between atoms: C_2  and  C_3
REMARK    3  A    between atoms: C_2  and  C_24
REMARK    4  A    between atoms: C_3  and  C_4
REMARK    5  A    between atoms: C_7  and  C_8
REMARK    6  A    between atoms: C_8  and  N_9
REMARK    7  A    between atoms: C_10  and  C_12
REMARK    8  A    between atoms: C_24  and  C_26
REMARK                            x       y       z     vdW  Elec       q    Type
REMARK                         _______ _______ _______ _____ _____    ______ ____
ROOT
ATOM      1  C   UNL     1      50.269   7.139  18.414  0.00  0.00    +0.000 A 
ATOM      2  C   UNL     1      50.989   7.089  17.212  0.00  0.00    +0.000 A 
ATOM      3  C   UNL     1      50.436   7.578  16.023  0.00  0.00    +0.000 A 
ATOM      4  C   UNL     1      49.153   8.138  16.011  0.00  0.00    +0.000 A 
ATOM      5  C   UNL     1      48.431   8.188  17.211  0.00  0.00    +0.000 A 
ATOM      6  C   UNL     1      48.984   7.701  18.400  0.00  0.00    +0.000 A 
ENDROOT
BRANCH   1   7
ATOM      7  C   UNL     1      50.842   6.544  19.682  0.00  0.00    +0.000 C 
BRANCH   7   8
ATOM      8  C   UNL     1      50.515   5.068  19.992  0.00  0.00    +0.000 C 
BRANCH   8   9
ATOM      9  N   UNL     1      51.065   4.604  21.283  0.00  0.00    +0.000 NA
ATOM     10  H   UNL     1      51.439   3.663  21.190  0.00  0.00    +0.000 HD
ATOM     11  H   UNL     1      50.283   4.538  21.943  0.00  0.00    +0.000 HD
ENDBRANCH   8   9
BRANCH   8  12
ATOM     12  C   UNL     1      50.994   4.121  18.876  0.00  0.00    +0.000 C 
ATOM     13  O   UNL     1      52.187   3.855  18.722  0.00  0.00    +0.000 OA
BRANCH  12  14
ATOM     14  C   UNL     1      50.005   3.517  17.936  0.00  0.00    +0.000 A 
ATOM     15  C   UNL     1      48.687   3.951  17.782  0.00  0.00    +0.000 A 
ATOM     16  C   UNL     1      47.843   3.293  16.885  0.00  0.00    +0.000 A 
ATOM     17  C   UNL     1      48.347   2.224  16.162  0.00  0.00    +0.000 A 
ATOM     18  N   UNL     1      49.614   1.783  16.276  0.00  0.00    +0.000 NA
ATOM     19  C   UNL     1      50.413   2.434  17.161  0.00  0.00    +0.000 A 
ENDBRANCH  12  14
ENDBRANCH   8  12
ENDBRANCH   7   8
ENDBRANCH   1   7
BRANCH   4  20
ATOM     20  C   UNL     1      48.530   8.615  14.725  0.00  0.00    +0.000 C 
BRANCH  20  21
ATOM     21  N   UNL     1      47.522   7.690  14.267  0.00  0.00    +0.000 N 
ATOM     22  C   UNL     1      47.825   6.667  13.408  0.00  0.00    +0.000 C 
ATOM     23  O   UNL     1      48.971   6.472  13.007  0.00  0.00    +0.000 OA
ATOM     24  H   UNL     1      46.554   7.957  14.411  0.00  0.00    +0.000 HD
BRANCH  22  25
ATOM     25  C   UNL     1      46.724   5.768  13.041  0.00  0.00    +0.000 A 
ATOM     26  C   UNL     1      46.829   4.408  13.306  0.00  0.00    +0.000 A 
ATOM     27  S   UNL     1      45.440   3.517  12.882  0.00  0.00    +0.000 S 
ATOM     28  C   UNL     1      44.667   4.906  12.277  0.00  0.00    +0.000 A 
ATOM     29  N   UNL     1      43.420   4.833  11.737  0.00  0.00    +0.000 NA
ATOM     30  C   UNL     1      42.968   5.953  11.283  0.00  0.00    +0.000 A 
ATOM     31  N   UNL     1      43.647   7.143  11.326  0.00  0.00    +0.000 N 
ATOM     32  C   UNL     1      44.894   7.272  11.888  0.00  0.00    +0.000 A 
ATOM     33  O   UNL     1      45.457   8.361  11.945  0.00  0.00    +0.000 OA
ATOM     34  C   UNL     1      45.453   6.037  12.407  0.00  0.00    +0.000 A 
ATOM     35  H   UNL     1      43.236   7.988  10.956  0.00  0.00    +0.000 HD
ENDBRANCH  22  25
ENDBRANCH  20  21
ENDBRANCH   4  20
TORSDOF 8
ENDMDL
MODEL 9
REMARK VINA RESULT:    -7.074      4.509      6.360
REMARK INTER + INTRA:         -11.214
REMARK INTER:                 -10.106
REMARK INTRA:                  -1.108
REMARK UNBOUND:                -1.038
REMARK  Name = 
REMARK  8 active torsions:
REMARK  status: ('A' for Active; 'I' for Inactive)
REMARK    1  A    between atoms: N_1  and  C_2
REMARK    2  A    between atoms: C_2  and  C_3
REMARK    3  A    between atoms: C_2  and  C_24
REMARK    4  A    between atoms: C_3  and  C_4
REMARK    5  A    between atoms: C_7  and  C_8
REMARK    6  A    between atoms: C_8  and  N_9
REMARK    7  A    between atoms: C_10  and  C_12
REMARK    8  A    between atoms: C_24  and  C_26
REMARK                            x       y       z     vdW  Elec       q    Type
REMARK                         _______ _______ _______ _____ _____    ______ ____
ROOT
ATOM      1  C   UNL     1      45.491   5.427  12.143  0.00  0.00    +0.000 A 
ATOM      2  C   UNL     1      46.675   5.315  12.885  0.00  0.00    +0.000 A 
ATOM      3  C   UNL     1      47.284   6.448  13.437  0.00  0.00    +0.000 A 
ATOM      4  C   UNL     1      46.718   7.716  13.269  0.00  0.00    +0.000 A 
ATOM      5  C   UNL     1      45.535   7.831  12.527  0.00  0.00    +0.000 A 
ATOM      6  C   UNL     1      44.924   6.699  11.977  0.00  0.00    +0.000 A 
ENDROOT
BRANCH   1   7
ATOM      7  C   UNL     1      44.873   4.210  11.488  0.00  0.00    +0.000 C 
BRANCH   7   8
ATOM      8  C   UNL     1      44.729   4.220   9.951  0.00  0.00    +0.000 C 
BRANCH   8   9
ATOM      9  N   UNL     1      43.501   4.893   9.481  0.00  0.00    +0.000 NA
ATOM     10  H   UNL     1      43.514   5.876   9.744  0.00  0.00    +0.000 HD
ATOM     11  H   UNL     1      42.711   4.474   9.982  0.00  0.00    +0.000 HD
ENDBRANCH   8   9
BRANCH   8  12
ATOM     12  C   UNL     1      44.781   2.801   9.355  0.00  0.00    +0.000 C 
ATOM     13  O   UNL     1      44.050   1.900   9.769  0.00  0.00    +0.000 OA
BRANCH  12  14
ATOM     14  C   UNL     1      45.746   2.486   8.262  0.00  0.00    +0.000 A 
ATOM     15  C   UNL     1      46.375   1.251   8.089  0.00  0.00    +0.000 A 
ATOM     16  C   UNL     1      47.280   1.078   7.039  0.00  0.00    +0.000 A 
ATOM     17  C   UNL     1      47.521   2.144   6.188  0.00  0.00    +0.000 A 
ATOM     18  N   UNL     1      46.927   3.346   6.317  0.00  0.00    +0.000 NA
ATOM     19  C   UNL     1      46.057   3.492   7.350  0.00  0.00    +0.000 A 
ENDBRANCH  12  14
ENDBRANCH   8  12
ENDBRANCH   7   8
ENDBRANCH   1   7
BRANCH   4  20
ATOM     20  C   UNL     1      47.399   8.945  13.813  0.00  0.00    +0.000 C 
BRANCH  20  21
ATOM     21  N   UNL     1      48.620   9.217  13.095  0.00  0.00    +0.000 N 
ATOM     22  C   UNL     1      48.636  10.030  11.992  0.00  0.00    +0.000 C 
ATOM     23  O   UNL     1      47.622  10.586  11.579  0.00  0.00    +0.000 OA
ATOM     24  H   UNL     1      49.411   8.610  13.285  0.00  0.00    +0.000 HD
BRANCH  22  25
ATOM     25  C   UNL     1      49.944  10.262  11.365  0.00  0.00    +0.000 A 
ATOM     26  C   UNL     1      50.310  11.550  10.995  0.00  0.00    +0.000 A 
ATOM     27  S   UNL     1      51.882  11.658  10.346  0.00  0.00    +0.000 S 
ATOM     28  C   UNL     1      52.112   9.978  10.485  0.00  0.00    +0.000 A 
ATOM     29  N   UNL     1      53.273   9.396  10.079  0.00  0.00    +0.000 NA
ATOM     30  C   UNL     1      53.300   8.112  10.206  0.00  0.00    +0.000 A 
ATOM     31  N   UNL     1      52.273   7.356  10.708  0.00  0.00    +0.000 N 
ATOM     32  C   UNL     1      51.094   7.902  11.158  0.00  0.00    +0.000 A 
ATOM     33  O   UNL     1      50.210   7.199  11.638  0.00  0.00    +0.000 OA
ATOM     34  C   UNL     1      51.009   9.345  11.029  0.00  0.00    +0.000 A 
ATOM     35  H   UNL     1      52.357   6.353  10.785  0.00  0.00    +0.000 HD
ENDBRANCH  22  25
ENDBRANCH  20  21
ENDBRANCH   4  20
TORSDOF 8
ENDMDL
