MODEL 1
REMARK VINA RESULT:    -8.014      0.000      0.000
REMARK INTER + INTRA:         -12.012
REMARK INTER:                 -10.824
REMARK INTRA:                  -1.188
REMARK UNBOUND:                -1.188
REMARK  Name = 
REMARK  7 active torsions:
REMARK  status: ('A' for Active; 'I' for Inactive)
REMARK    1  A    between atoms: C_1  and  O_2
REMARK    2  A    between atoms: O_2  and  C_3
REMARK    3  A    between atoms: C_8  and  C_9
REMARK    4  A    between atoms: C_9  and  C_10
REMARK    5  A    between atoms: C_13  and  C_14
REMARK    6  A    between atoms: C_14  and  N_15
REMARK    7  A    between atoms: C_16  and  C_18
REMARK                            x       y       z     vdW  Elec       q    Type
REMARK                         _______ _______ _______ _____ _____    ______ ____
ROOT
ATOM      1  C   UNL     1      47.665   8.421  13.861  0.00  0.00    +0.000 C 
ENDROOT
BRANCH   1   5
ATOM      2  C   UNL     1      44.892   6.366  11.252  0.00  0.00    +0.000 A 
ATOM      3  C   UNL     1      46.104   5.767  11.619  0.00  0.00    +0.000 A 
ATOM      4  C   UNL     1      47.024   6.450  12.420  0.00  0.00    +0.000 A 
ATOM      5  C   UNL     1      46.743   7.742  12.885  0.00  0.00    +0.000 A 
ATOM      6  C   UNL     1      45.569   8.371  12.453  0.00  0.00    +0.000 A 
ATOM      7  C   UNL     1      44.648   7.688  11.651  0.00  0.00    +0.000 A 
BRANCH   2   8
ATOM      8  C   UNL     1      43.872   5.586  10.453  0.00  0.00    +0.000 C 
BRANCH   8  14
ATOM      9  C   UNL     1      44.099   3.055  10.096  0.00  0.00    +0.000 A 
ATOM     10  C   UNL     1      44.703   1.979   9.428  0.00  0.00    +0.000 A 
ATOM     11  C   UNL     1      45.614   2.200   8.394  0.00  0.00    +0.000 A 
ATOM     12  C   UNL     1      45.911   3.498   7.999  0.00  0.00    +0.000 A 
ATOM     13  C   UNL     1      45.311   4.577   8.648  0.00  0.00    +0.000 A 
ATOM     14  C   UNL     1      44.416   4.374   9.715  0.00  0.00    +0.000 A 
BRANCH   9  16
ATOM     15  C   UNL     1      43.721   2.789  12.430  0.00  0.00    +0.000 C 
ATOM     16  O   UNL     1      43.191   2.905  11.113  0.00  0.00    +0.000 OA
ENDBRANCH   9  16
ENDBRANCH   8  14
ENDBRANCH   2   8
ENDBRANCH   1   5
BRANCH   1  17
ATOM     17  N   UNL     1      47.913   7.623  15.032  0.00  0.00    +0.000 N 
ATOM     18  C   UNL     1      49.113   6.968  15.183  0.00  0.00    +0.000 C 
ATOM     19  O   UNL     1      50.026   7.093  14.371  0.00  0.00    +0.000 OA
ATOM     20  H   UNL     1      47.108   7.331  15.577  0.00  0.00    +0.000 HD
BRANCH  18  21
ATOM     21  C   UNL     1      49.273   6.151  16.390  0.00  0.00    +0.000 A 
ATOM     22  C   UNL     1      50.279   6.460  17.296  0.00  0.00    +0.000 A 
ATOM     23  S   UNL     1      50.303   5.445  18.666  0.00  0.00    +0.000 S 
ATOM     24  C   UNL     1      49.005   4.522  18.071  0.00  0.00    +0.000 A 
ATOM     25  N   UNL     1      48.531   3.453  18.764  0.00  0.00    +0.000 NA
ATOM     26  C   UNL     1      47.566   2.824  18.180  0.00  0.00    +0.000 A 
ATOM     27  N   UNL     1      47.027   3.171  16.968  0.00  0.00    +0.000 N 
ATOM     28  C   UNL     1      47.456   4.258  16.246  0.00  0.00    +0.000 A 
ATOM     29  O   UNL     1      46.927   4.563  15.180  0.00  0.00    +0.000 OA
ATOM     30  C   UNL     1      48.547   4.992  16.853  0.00  0.00    +0.000 A 
ATOM     31  H   UNL     1      46.267   2.641  16.569  0.00  0.00    +0.000 HD
ENDBRANCH  18  21
ENDBRANCH   1  17
TORSDOF 6
ENDMDL
MODEL 2
REMARK VINA RESULT:    -7.456      1.301      1.724
REMARK INTER + INTRA:         -11.260
REMARK INTER:                 -10.342
REMARK INTRA:                  -0.918
REMARK UNBOUND:                -1.188
REMARK  Name = 
REMARK  7 active torsions:
REMARK  status: ('A' for Active; 'I' for Inactive)
REMARK    1  A    between atoms: C_1  and  O_2
REMARK    2  A    between atoms: O_2  and  C_3
REMARK    3  A    between atoms: C_8  and  C_9
REMARK    4  A    between atoms: C_9  and  C_10
REMARK    5  A    between atoms: C_13  and  C_14
REMARK    6  A    between atoms: C_14  and  N_15
REMARK    7  A    between atoms: C_16  and  C_18
REMARK                            x       y       z     vdW  Elec       q    Type
REMARK                         _______ _______ _______ _____ _____    ______ ____
ROOT
ATOM      1  C   UNL     1      48.083   8.219  13.737  0.00  0.00    +0.000 C 
ENDROOT
BRANCH   1   5
ATOM      2  C   UNL     1      44.970   6.185  11.528  0.00  0.00    +0.000 A 
ATOM      3  C   UNL     1      44.945   7.577  11.679  0.00  0.00    +0.000 A 
ATOM      4  C   UNL     1      45.921   8.231  12.435  0.00  0.00    +0.000 A 
ATOM      5  C   UNL     1      46.955   7.506  13.043  0.00  0.00    +0.000 A 
ATOM      6  C   UNL     1      46.936   6.109  12.959  0.00  0.00    +0.000 A 
ATOM      7  C   UNL     1      45.958   5.454  12.203  0.00  0.00    +0.000 A 
BRANCH   2   8
ATOM      8  C   UNL     1      43.954   5.499  10.641  0.00  0.00    +0.000 C 
BRANCH   8  14
ATOM      9  C   UNL     1      44.149   3.018  10.013  0.00  0.00    +0.000 A 
ATOM     10  C   UNL     1      44.754   2.011   9.245  0.00  0.00    +0.000 A 
ATOM     11  C   UNL     1      45.697   2.327   8.266  0.00  0.00    +0.000 A 
ATOM     12  C   UNL     1      46.026   3.655   8.025  0.00  0.00    +0.000 A 
ATOM     13  C   UNL     1      45.426   4.666   8.774  0.00  0.00    +0.000 A 
ATOM     14  C   UNL     1      44.498   4.365   9.789  0.00  0.00    +0.000 A 
BRANCH   9  16
ATOM     15  C   UNL     1      43.701   2.543  12.301  0.00  0.00    +0.000 C 
ATOM     16  O   UNL     1      43.211   2.775  10.983  0.00  0.00    +0.000 OA
ENDBRANCH   9  16
ENDBRANCH   8  14
ENDBRANCH   2   8
ENDBRANCH   1   5
BRANCH   1  17
ATOM     17  N   UNL     1      48.033   8.069  15.167  0.00  0.00    +0.000 N 
ATOM     18  C   UNL     1      48.943   7.264  15.812  0.00  0.00    +0.000 C 
ATOM     19  O   UNL     1      49.859   6.709  15.210  0.00  0.00    +0.000 OA
ATOM     20  H   UNL     1      47.168   8.324  15.633  0.00  0.00    +0.000 HD
BRANCH  18  21
ATOM     21  C   UNL     1      48.803   7.141  17.267  0.00  0.00    +0.000 A 
ATOM     22  C   UNL     1      48.672   8.287  18.041  0.00  0.00    +0.000 A 
ATOM     23  S   UNL     1      48.475   7.971  19.705  0.00  0.00    +0.000 S 
ATOM     24  C   UNL     1      48.612   6.294  19.456  0.00  0.00    +0.000 A 
ATOM     25  N   UNL     1      48.555   5.426  20.501  0.00  0.00    +0.000 NA
ATOM     26  C   UNL     1      48.707   4.186  20.173  0.00  0.00    +0.000 A 
ATOM     27  N   UNL     1      48.904   3.734  18.893  0.00  0.00    +0.000 N 
ATOM     28  C   UNL     1      48.942   4.572  17.806  0.00  0.00    +0.000 A 
ATOM     29  O   UNL     1      49.084   4.132  16.667  0.00  0.00    +0.000 OA
ATOM     30  C   UNL     1      48.788   5.978  18.122  0.00  0.00    +0.000 A 
ATOM     31  H   UNL     1      49.008   2.749  18.702  0.00  0.00    +0.000 HD
ENDBRANCH  18  21
ENDBRANCH   1  17
TORSDOF 6
ENDMDL
MODEL 3
REMARK VINA RESULT:    -7.330      1.884      2.248
REMARK INTER + INTRA:         -11.090
REMARK INTER:                 -10.027
REMARK INTRA:                  -1.062
REMARK UNBOUND:                -1.188
REMARK  Name = 
REMARK  7 active torsions:
REMARK  status: ('A' for Active; 'I' for Inactive)
REMARK    1  A    between atoms: C_1  and  O_2
REMARK    2  A    between atoms: O_2  and  C_3
REMARK    3  A    between atoms: C_8  and  C_9
REMARK    4  A    between atoms: C_9  and  C_10
REMARK    5  A    between atoms: C_13  and  C_14
REMARK    6  A    between atoms: C_14  and  N_15
REMARK    7  A    between atoms: C_16  and  C_18
REMARK                            x       y       z     vdW  Elec       q    Type
REMARK                         _______ _______ _______ _____ _____    ______ ____
ROOT
ATOM      1  C   UNL     1      48.012   8.200  14.039  0.00  0.00    +0.000 C 
ENDROOT
BRANCH   1   5
ATOM      2  C   UNL     1      45.157   6.297  11.404  0.00  0.00    +0.000 A 
ATOM      3  C   UNL     1      46.239   5.576  11.923  0.00  0.00    +0.000 A 
ATOM      4  C   UNL     1      47.191   6.202  12.733  0.00  0.00    +0.000 A 
ATOM      5  C   UNL     1      47.070   7.560  13.055  0.00  0.00    +0.000 A 
ATOM      6  C   UNL     1      46.033   8.299  12.472  0.00  0.00    +0.000 A 
ATOM      7  C   UNL     1      45.081   7.673  11.660  0.00  0.00    +0.000 A 
BRANCH   2   8
ATOM      8  C   UNL     1      44.092   5.590  10.595  0.00  0.00    +0.000 C 
BRANCH   8  14
ATOM      9  C   UNL     1      44.207   3.095  10.001  0.00  0.00    +0.000 A 
ATOM     10  C   UNL     1      44.766   2.061   9.235  0.00  0.00    +0.000 A 
ATOM     11  C   UNL     1      45.694   2.338   8.230  0.00  0.00    +0.000 A 
ATOM     12  C   UNL     1      46.051   3.652   7.960  0.00  0.00    +0.000 A 
ATOM     13  C   UNL     1      45.496   4.691   8.707  0.00  0.00    +0.000 A 
ATOM     14  C   UNL     1      44.585   4.429   9.748  0.00  0.00    +0.000 A 
BRANCH   9  16
ATOM     15  C   UNL     1      43.801   2.696  12.312  0.00  0.00    +0.000 C 
ATOM     16  O   UNL     1      43.287   2.892  10.998  0.00  0.00    +0.000 OA
ENDBRANCH   9  16
ENDBRANCH   8  14
ENDBRANCH   2   8
ENDBRANCH   1   5
BRANCH   1  17
ATOM     17  N   UNL     1      47.937   7.599  15.344  0.00  0.00    +0.000 N 
ATOM     18  C   UNL     1      48.979   6.837  15.817  0.00  0.00    +0.000 C 
ATOM     19  O   UNL     1      50.023   6.702  15.184  0.00  0.00    +0.000 OA
ATOM     20  H   UNL     1      47.017   7.510  15.765  0.00  0.00    +0.000 HD
BRANCH  18  21
ATOM     21  C   UNL     1      48.810   6.235  17.144  0.00  0.00    +0.000 A 
ATOM     22  C   UNL     1      49.081   4.885  17.322  0.00  0.00    +0.000 A 
ATOM     23  S   UNL     1      48.878   4.352  18.929  0.00  0.00    +0.000 S 
ATOM     24  C   UNL     1      48.369   5.894  19.432  0.00  0.00    +0.000 A 
ATOM     25  N   UNL     1      48.009   6.125  20.723  0.00  0.00    +0.000 NA
ATOM     26  C   UNL     1      47.612   7.331  20.959  0.00  0.00    +0.000 A 
ATOM     27  N   UNL     1      47.548   8.330  20.022  0.00  0.00    +0.000 N 
ATOM     28  C   UNL     1      47.927   8.150  18.714  0.00  0.00    +0.000 A 
ATOM     29  O   UNL     1      47.893   9.076  17.907  0.00  0.00    +0.000 OA
ATOM     30  C   UNL     1      48.371   6.808  18.394  0.00  0.00    +0.000 A 
ATOM     31  H   UNL     1      47.236   9.256  20.272  0.00  0.00    +0.000 HD
ENDBRANCH  18  21
ENDBRANCH   1  17
TORSDOF 6
ENDMDL
MODEL 4
REMARK VINA RESULT:    -6.892      1.026      1.938
REMARK INTER + INTRA:         -10.497
REMARK INTER:                  -8.968
REMARK INTRA:                  -1.529
REMARK UNBOUND:                -1.188
REMARK  Name = 
REMARK  7 active torsions:
REMARK  status: ('A' for Active; 'I' for Inactive)
REMARK    1  A    between atoms: C_1  and  O_2
REMARK    2  A    between atoms: O_2  and  C_3
REMARK    3  A    between atoms: C_8  and  C_9
REMARK    4  A    between atoms: C_9  and  C_10
REMARK    5  A    between atoms: C_13  and  C_14
REMARK    6  A    between atoms: C_14  and  N_15
REMARK    7  A    between atoms: C_16  and  C_18
REMARK                            x       y       z     vdW  Elec       q    Type
REMARK                         _______ _______ _______ _____ _____    ______ ____
ROOT
ATOM      1  C   UNL     1      48.487   8.653  14.494  0.00  0.00    +0.000 C 
ENDROOT
BRANCH   1   5
ATOM      2  C   UNL     1      45.679   7.205  11.539  0.00  0.00    +0.000 A 
ATOM      3  C   UNL     1      46.969   6.667  11.621  0.00  0.00    +0.000 A 
ATOM      4  C   UNL     1      47.895   7.168  12.540  0.00  0.00    +0.000 A 
ATOM      5  C   UNL     1      47.543   8.209  13.410  0.00  0.00    +0.000 A 
ATOM      6  C   UNL     1      46.280   8.800  13.274  0.00  0.00    +0.000 A 
ATOM      7  C   UNL     1      45.354   8.299  12.353  0.00  0.00    +0.000 A 
BRANCH   2   8
ATOM      8  C   UNL     1      44.663   6.600  10.595  0.00  0.00    +0.000 C 
BRANCH   8  14
ATOM      9  C   UNL     1      44.615   4.164   9.789  0.00  0.00    +0.000 A 
ATOM     10  C   UNL     1      44.259   2.825  10.012  0.00  0.00    +0.000 A 
ATOM     11  C   UNL     1      43.683   2.430  11.220  0.00  0.00    +0.000 A 
ATOM     12  C   UNL     1      43.481   3.364  12.229  0.00  0.00    +0.000 A 
ATOM     13  C   UNL     1      43.838   4.696  12.024  0.00  0.00    +0.000 A 
ATOM     14  C   UNL     1      44.389   5.119  10.799  0.00  0.00    +0.000 A 
BRANCH   9  16
ATOM     15  C   UNL     1      45.708   3.625   7.745  0.00  0.00    +0.000 C 
ATOM     16  O   UNL     1      45.190   4.615   8.628  0.00  0.00    +0.000 OA
ENDBRANCH   9  16
ENDBRANCH   8  14
ENDBRANCH   2   8
ENDBRANCH   1   5
BRANCH   1  17
ATOM     17  N   UNL     1      48.557   7.715  15.582  0.00  0.00    +0.000 N 
ATOM     18  C   UNL     1      49.682   6.944  15.761  0.00  0.00    +0.000 C 
ATOM     19  O   UNL     1      50.677   7.074  15.054  0.00  0.00    +0.000 OA
ATOM     20  H   UNL     1      47.683   7.438  16.016  0.00  0.00    +0.000 HD
BRANCH  18  21
ATOM     21  C   UNL     1      49.660   5.991  16.876  0.00  0.00    +0.000 A 
ATOM     22  C   UNL     1      50.574   6.130  17.912  0.00  0.00    +0.000 A 
ATOM     23  S   UNL     1      50.387   4.972  19.150  0.00  0.00    +0.000 S 
ATOM     24  C   UNL     1      49.114   4.211  18.319  0.00  0.00    +0.000 A 
ATOM     25  N   UNL     1      48.506   3.107  18.830  0.00  0.00    +0.000 NA
ATOM     26  C   UNL     1      47.578   2.613  18.079  0.00  0.00    +0.000 A 
ATOM     27  N   UNL     1      47.199   3.126  16.865  0.00  0.00    +0.000 N 
ATOM     28  C   UNL     1      47.766   4.254  16.323  0.00  0.00    +0.000 A 
ATOM     29  O   UNL     1      47.378   4.709  15.251  0.00  0.00    +0.000 OA
ATOM     30  C   UNL     1      48.823   4.841  17.123  0.00  0.00    +0.000 A 
ATOM     31  H   UNL     1      46.460   2.697  16.330  0.00  0.00    +0.000 HD
ENDBRANCH  18  21
ENDBRANCH   1  17
TORSDOF 6
ENDMDL
MODEL 5
REMARK VINA RESULT:    -6.745      3.176      3.842
REMARK INTER + INTRA:         -10.299
REMARK INTER:                  -9.040
REMARK INTRA:                  -1.259
REMARK UNBOUND:                -1.188
REMARK  Name = 
REMARK  7 active torsions:
REMARK  status: ('A' for Active; 'I' for Inactive)
REMARK    1  A    between atoms: C_1  and  O_2
REMARK    2  A    between atoms: O_2  and  C_3
REMARK    3  A    between atoms: C_8  and  C_9
REMARK    4  A    between atoms: C_9  and  C_10
REMARK    5  A    between atoms: C_13  and  C_14
REMARK    6  A    between atoms: C_14  and  N_15
REMARK    7  A    between atoms: C_16  and  C_18
REMARK                            x       y       z     vdW  Elec       q    Type
REMARK                         _______ _______ _______ _____ _____    ______ ____
ROOT
ATOM      1  C   UNL     1      48.572   6.463  15.113  0.00  0.00    +0.000 C 
ENDROOT
BRANCH   1   5
ATOM      2  C   UNL     1      45.806   5.962  11.824  0.00  0.00    +0.000 A 
ATOM      3  C   UNL     1      45.952   4.961  12.793  0.00  0.00    +0.000 A 
ATOM      4  C   UNL     1      46.882   5.099  13.827  0.00  0.00    +0.000 A 
ATOM      5  C   UNL     1      47.674   6.250  13.924  0.00  0.00    +0.000 A 
ATOM      6  C   UNL     1      47.586   7.214  12.912  0.00  0.00    +0.000 A 
ATOM      7  C   UNL     1      46.656   7.076  11.876  0.00  0.00    +0.000 A 
BRANCH   2   8
ATOM      8  C   UNL     1      44.742   5.836  10.757  0.00  0.00    +0.000 C 
BRANCH   8  14
ATOM      9  C   UNL     1      44.195   3.462   9.948  0.00  0.00    +0.000 A 
ATOM     10  C   UNL     1      44.465   2.388   9.086  0.00  0.00    +0.000 A 
ATOM     11  C   UNL     1      45.437   2.497   8.091  0.00  0.00    +0.000 A 
ATOM     12  C   UNL     1      46.132   3.689   7.929  0.00  0.00    +0.000 A 
ATOM     13  C   UNL     1      45.867   4.767   8.773  0.00  0.00    +0.000 A 
ATOM     14  C   UNL     1      44.914   4.665   9.804  0.00  0.00    +0.000 A 
BRANCH   9  16
ATOM     15  C   UNL     1      43.457   2.475  11.984  0.00  0.00    +0.000 C 
ATOM     16  O   UNL     1      43.249   3.422  10.940  0.00  0.00    +0.000 OA
ENDBRANCH   9  16
ENDBRANCH   8  14
ENDBRANCH   2   8
ENDBRANCH   1   5
BRANCH   1  17
ATOM     17  N   UNL     1      48.208   7.628  15.875  0.00  0.00    +0.000 N 
ATOM     18  C   UNL     1      49.127   8.627  16.096  0.00  0.00    +0.000 C 
ATOM     19  O   UNL     1      50.250   8.596  15.601  0.00  0.00    +0.000 OA
ATOM     20  H   UNL     1      47.386   7.560  16.468  0.00  0.00    +0.000 HD
BRANCH  18  21
ATOM     21  C   UNL     1      48.684   9.765  16.909  0.00  0.00    +0.000 A 
ATOM     22  C   UNL     1      48.939  11.058  16.471  0.00  0.00    +0.000 A 
ATOM     23  S   UNL     1      48.322  12.266  17.505  0.00  0.00    +0.000 S 
ATOM     24  C   UNL     1      47.741  11.103  18.602  0.00  0.00    +0.000 A 
ATOM     25  N   UNL     1      47.113  11.477  19.749  0.00  0.00    +0.000 NA
ATOM     26  C   UNL     1      46.753  10.493  20.505  0.00  0.00    +0.000 A 
ATOM     27  N   UNL     1      46.958   9.169  20.214  0.00  0.00    +0.000 N 
ATOM     28  C   UNL     1      47.563   8.745  19.056  0.00  0.00    +0.000 A 
ATOM     29  O   UNL     1      47.698   7.549  18.809  0.00  0.00    +0.000 OA
ATOM     30  C   UNL     1      47.997   9.813  18.177  0.00  0.00    +0.000 A 
ATOM     31  H   UNL     1      46.645   8.446  20.845  0.00  0.00    +0.000 HD
ENDBRANCH  18  21
ENDBRANCH   1  17
TORSDOF 6
ENDMDL
MODEL 6
REMARK VINA RESULT:    -6.736      2.809      3.864
REMARK INTER + INTRA:         -10.287
REMARK INTER:                  -9.138
REMARK INTRA:                  -1.149
REMARK UNBOUND:                -1.188
REMARK  Name = 
REMARK  7 active torsions:
REMARK  status: ('A' for Active; 'I' for Inactive)
REMARK    1  A    between atoms: C_1  and  O_2
REMARK    2  A    between atoms: O_2  and  C_3
REMARK    3  A    between atoms: C_8  and  C_9
REMARK    4  A    between atoms: C_9  and  C_10
REMARK    5  A    between atoms: C_13  and  C_14
REMARK    6  A    between atoms: C_14  and  N_15
REMARK    7  A    between atoms: C_16  and  C_18
REMARK                            x       y       z     vdW  Elec       q    Type
REMARK                         _______ _______ _______ _____ _____    ______ ____
ROOT
ATOM      1  C   UNL     1      48.628   6.888  14.526  0.00  0.00    +0.000 C 
ENDROOT
BRANCH   1   5
ATOM      2  C   UNL     1      45.426   5.989  11.759  0.00  0.00    +0.000 A 
ATOM      3  C   UNL     1      45.921   7.294  11.877  0.00  0.00    +0.000 A 
ATOM      4  C   UNL     1      46.920   7.596  12.807  0.00  0.00    +0.000 A 
ATOM      5  C   UNL     1      47.457   6.595  13.627  0.00  0.00    +0.000 A 
ATOM      6  C   UNL     1      46.907   5.309  13.565  0.00  0.00    +0.000 A 
ATOM      7  C   UNL     1      45.907   5.006  12.635  0.00  0.00    +0.000 A 
BRANCH   2   8
ATOM      8  C   UNL     1      44.403   5.659  10.695  0.00  0.00    +0.000 C 
BRANCH   8  14
ATOM      9  C   UNL     1      44.196   3.210   9.954  0.00  0.00    +0.000 A 
ATOM     10  C   UNL     1      44.633   2.153   9.141  0.00  0.00    +0.000 A 
ATOM     11  C   UNL     1      45.621   2.356   8.177  0.00  0.00    +0.000 A 
ATOM     12  C   UNL     1      46.163   3.621   7.995  0.00  0.00    +0.000 A 
ATOM     13  C   UNL     1      45.731   4.683   8.790  0.00  0.00    +0.000 A 
ATOM     14  C   UNL     1      44.760   4.491   9.791  0.00  0.00    +0.000 A 
BRANCH   9  16
ATOM     15  C   UNL     1      43.584   2.365  12.093  0.00  0.00    +0.000 C 
ATOM     16  O   UNL     1      43.225   3.080  10.914  0.00  0.00    +0.000 OA
ENDBRANCH   9  16
ENDBRANCH   8  14
ENDBRANCH   2   8
ENDBRANCH   1   5
BRANCH   1  17
ATOM     17  N   UNL     1      48.242   7.591  15.721  0.00  0.00    +0.000 N 
ATOM     18  C   UNL     1      48.861   7.317  16.917  0.00  0.00    +0.000 C 
ATOM     19  O   UNL     1      49.798   6.526  16.996  0.00  0.00    +0.000 OA
ATOM     20  H   UNL     1      47.341   8.060  15.716  0.00  0.00    +0.000 HD
BRANCH  18  21
ATOM     21  C   UNL     1      48.388   8.056  18.092  0.00  0.00    +0.000 A 
ATOM     22  C   UNL     1      48.147   7.373  19.278  0.00  0.00    +0.000 A 
ATOM     23  S   UNL     1      47.644   8.381  20.558  0.00  0.00    +0.000 S 
ATOM     24  C   UNL     1      47.679   9.757  19.559  0.00  0.00    +0.000 A 
ATOM     25  N   UNL     1      47.326  10.979  20.039  0.00  0.00    +0.000 NA
ATOM     26  C   UNL     1      47.366  11.928  19.164  0.00  0.00    +0.000 A 
ATOM     27  N   UNL     1      47.734  11.767  17.853  0.00  0.00    +0.000 N 
ATOM     28  C   UNL     1      48.123  10.558  17.332  0.00  0.00    +0.000 A 
ATOM     29  O   UNL     1      48.483  10.455  16.162  0.00  0.00    +0.000 OA
ATOM     30  C   UNL     1      48.085   9.456  18.272  0.00  0.00    +0.000 A 
ATOM     31  H   UNL     1      47.751  12.553  17.221  0.00  0.00    +0.000 HD
ENDBRANCH  18  21
ENDBRANCH   1  17
TORSDOF 6
ENDMDL
MODEL 7
REMARK VINA RESULT:    -6.571      3.270      7.674
REMARK INTER + INTRA:         -10.065
REMARK INTER:                  -8.905
REMARK INTRA:                  -1.159
REMARK UNBOUND:                -1.188
REMARK  Name = 
REMARK  7 active torsions:
REMARK  status: ('A' for Active; 'I' for Inactive)
REMARK    1  A    between atoms: C_1  and  O_2
REMARK    2  A    between atoms: O_2  and  C_3
REMARK    3  A    between atoms: C_8  and  C_9
REMARK    4  A    between atoms: C_9  and  C_10
REMARK    5  A    between atoms: C_13  and  C_14
REMARK    6  A    between atoms: C_14  and  N_15
REMARK    7  A    between atoms: C_16  and  C_18
REMARK                            x       y       z     vdW  Elec       q    Type
REMARK                         _______ _______ _______ _____ _____    ______ ____
ROOT
ATOM      1  C   UNL     1      49.173   8.254  14.396  0.00  0.00    +0.000 C 
ENDROOT
BRANCH   1   5
ATOM      2  C   UNL     1      50.577   5.783  17.656  0.00  0.00    +0.000 A 
ATOM      3  C   UNL     1      49.209   6.038  17.493  0.00  0.00    +0.000 A 
ATOM      4  C   UNL     1      48.758   6.878  16.470  0.00  0.00    +0.000 A 
ATOM      5  C   UNL     1      49.665   7.467  15.579  0.00  0.00    +0.000 A 
ATOM      6  C   UNL     1      51.036   7.276  15.791  0.00  0.00    +0.000 A 
ATOM      7  C   UNL     1      51.488   6.436  16.815  0.00  0.00    +0.000 A 
BRANCH   2   8
ATOM      8  C   UNL     1      51.045   4.810  18.716  0.00  0.00    +0.000 C 
BRANCH   8  14
ATOM      9  C   UNL     1      50.745   2.432  17.797  0.00  0.00    +0.000 A 
ATOM     10  C   UNL     1      51.310   1.209  17.404  0.00  0.00    +0.000 A 
ATOM     11  C   UNL     1      52.694   1.029  17.401  0.00  0.00    +0.000 A 
ATOM     12  C   UNL     1      53.529   2.078  17.766  0.00  0.00    +0.000 A 
ATOM     13  C   UNL     1      52.981   3.301  18.150  0.00  0.00    +0.000 A 
ATOM     14  C   UNL     1      51.587   3.491  18.191  0.00  0.00    +0.000 A 
BRANCH   9  16
ATOM     15  C   UNL     1      48.677   2.381  16.622  0.00  0.00    +0.000 C 
ATOM     16  O   UNL     1      49.395   2.675  17.816  0.00  0.00    +0.000 OA
ENDBRANCH   9  16
ENDBRANCH   8  14
ENDBRANCH   2   8
ENDBRANCH   1   5
BRANCH   1  17
ATOM     17  N   UNL     1      47.901   7.785  13.912  0.00  0.00    +0.000 N 
ATOM     18  C   UNL     1      47.843   6.765  12.992  0.00  0.00    +0.000 C 
ATOM     19  O   UNL     1      48.852   6.181  12.607  0.00  0.00    +0.000 OA
ATOM     20  H   UNL     1      47.100   8.396  14.038  0.00  0.00    +0.000 HD
BRANCH  18  21
ATOM     21  C   UNL     1      46.509   6.368  12.528  0.00  0.00    +0.000 A 
ATOM     22  C   UNL     1      45.653   7.328  12.005  0.00  0.00    +0.000 A 
ATOM     23  S   UNL     1      44.161   6.698  11.471  0.00  0.00    +0.000 S 
ATOM     24  C   UNL     1      44.586   5.129  11.970  0.00  0.00    +0.000 A 
ATOM     25  N   UNL     1      43.721   4.090  11.821  0.00  0.00    +0.000 NA
ATOM     26  C   UNL     1      44.159   2.962  12.273  0.00  0.00    +0.000 A 
ATOM     27  N   UNL     1      45.387   2.777  12.855  0.00  0.00    +0.000 N 
ATOM     28  C   UNL     1      46.303   3.791  13.001  0.00  0.00    +0.000 A 
ATOM     29  O   UNL     1      47.409   3.584  13.493  0.00  0.00    +0.000 OA
ATOM     30  C   UNL     1      45.854   5.082  12.519  0.00  0.00    +0.000 A 
ATOM     31  H   UNL     1      45.674   1.866  13.181  0.00  0.00    +0.000 HD
ENDBRANCH  18  21
ENDBRANCH   1  17
TORSDOF 6
ENDMDL
MODEL 8
REMARK VINA RESULT:    -6.484      3.460      8.181
REMARK INTER + INTRA:          -9.947
REMARK INTER:                  -8.741
REMARK INTRA:                  -1.206
REMARK UNBOUND:                -1.188
REMARK  Name = 
REMARK  7 active torsions:
REMARK  status: ('A' for Active; 'I' for Inactive)
REMARK    1  A    between atoms: C_1  and  O_2
REMARK    2  A    between atoms: O_2  and  C_3
REMARK    3  A    between atoms: C_8  and  C_9
REMARK    4  A    between atoms: C_9  and  C_10
REMARK    5  A    between atoms: C_13  and  C_14
REMARK    6  A    between atoms: C_14  and  N_15
REMARK    7  A    between atoms: C_16  and  C_18
REMARK                            x       y       z     vdW  Elec       q    Type
REMARK                         _______ _______ _______ _____ _____    ______ ____
ROOT
ATOM      1  C   UNL     1      47.457   8.028  11.921  0.00  0.00    +0.000 C 
ENDROOT
BRANCH   1   5
ATOM      2  C   UNL     1      49.547   7.995  15.708  0.00  0.00    +0.000 A 
ATOM      3  C   UNL     1      48.365   8.730  15.552  0.00  0.00    +0.000 A 
ATOM      4  C   UNL     1      47.716   8.783  14.315  0.00  0.00    +0.000 A 
ATOM      5  C   UNL     1      48.227   8.088  13.212  0.00  0.00    +0.000 A 
ATOM      6  C   UNL     1      49.450   7.419  13.346  0.00  0.00    +0.000 A 
ATOM      7  C   UNL     1      50.101   7.366  14.584  0.00  0.00    +0.000 A 
BRANCH   2   8
ATOM      8  C   UNL     1      50.195   7.881  17.070  0.00  0.00    +0.000 C 
BRANCH   8  14
ATOM      9  C   UNL     1      49.617   5.556  17.993  0.00  0.00    +0.000 A 
ATOM     10  C   UNL     1      48.870   4.758  18.872  0.00  0.00    +0.000 A 
ATOM     11  C   UNL     1      47.999   5.336  19.797  0.00  0.00    +0.000 A 
ATOM     12  C   UNL     1      47.886   6.718  19.873  0.00  0.00    +0.000 A 
ATOM     13  C   UNL     1      48.631   7.524  19.012  0.00  0.00    +0.000 A 
ATOM     14  C   UNL     1      49.488   6.958  18.049  0.00  0.00    +0.000 A 
BRANCH   9  16
ATOM     15  C   UNL     1      51.487   4.153  17.550  0.00  0.00    +0.000 C 
ATOM     16  O   UNL     1      50.494   5.053  17.067  0.00  0.00    +0.000 OA
ENDBRANCH   9  16
ENDBRANCH   8  14
ENDBRANCH   2   8
ENDBRANCH   1   5
BRANCH   1  17
ATOM     17  N   UNL     1      46.821   6.753  11.717  0.00  0.00    +0.000 N 
ATOM     18  C   UNL     1      45.451   6.647  11.754  0.00  0.00    +0.000 C 
ATOM     19  O   UNL     1      44.728   7.631  11.890  0.00  0.00    +0.000 OA
ATOM     20  H   UNL     1      47.393   5.922  11.835  0.00  0.00    +0.000 HD
BRANCH  18  21
ATOM     21  C   UNL     1      44.885   5.307  11.567  0.00  0.00    +0.000 A 
ATOM     22  C   UNL     1      44.216   4.695  12.618  0.00  0.00    +0.000 A 
ATOM     23  S   UNL     1      43.581   3.161  12.226  0.00  0.00    +0.000 S 
ATOM     24  C   UNL     1      44.225   3.239  10.654  0.00  0.00    +0.000 A 
ATOM     25  N   UNL     1      44.062   2.210   9.781  0.00  0.00    +0.000 NA
ATOM     26  C   UNL     1      44.631   2.387   8.634  0.00  0.00    +0.000 A 
ATOM     27  N   UNL     1      45.342   3.504   8.280  0.00  0.00    +0.000 N 
ATOM     28  C   UNL     1      45.509   4.579   9.120  0.00  0.00    +0.000 A 
ATOM     29  O   UNL     1      46.122   5.580   8.758  0.00  0.00    +0.000 OA
ATOM     30  C   UNL     1      44.899   4.424  10.425  0.00  0.00    +0.000 A 
ATOM     31  H   UNL     1      45.756   3.585   7.364  0.00  0.00    +0.000 HD
ENDBRANCH  18  21
ENDBRANCH   1  17
TORSDOF 6
ENDMDL
MODEL 9
REMARK VINA RESULT:    -6.367      3.315      8.764
REMARK INTER + INTRA:          -9.788
REMARK INTER:                  -8.659
REMARK INTRA:                  -1.130
REMARK UNBOUND:                -1.188
REMARK  Name = 
REMARK  7 active torsions:
REMARK  status: ('A' for Active; 'I' for Inactive)
REMARK    1  A    between atoms: C_1  and  O_2
REMARK    2  A    between atoms: O_2  and  C_3
REMARK    3  A    between atoms: C_8  and  C_9
REMARK    4  A    between atoms: C_9  and  C_10
REMARK    5  A    between atoms: C_13  and  C_14
REMARK    6  A    between atoms: C_14  and  N_15
REMARK    7  A    between atoms: C_16  and  C_18
REMARK                            x       y       z     vdW  Elec       q    Type
REMARK                         _______ _______ _______ _____ _____    ______ ____
ROOT
ATOM      1  C   UNL     1      47.358   3.370  16.733  0.00  0.00    +0.000 C 
ENDROOT
BRANCH   1   5
ATOM      2  C   UNL     1      51.135   4.689  18.378  0.00  0.00    +0.000 A 
ATOM      3  C   UNL     1      51.010   3.415  17.811  0.00  0.00    +0.000 A 
ATOM      4  C   UNL     1      49.779   2.968  17.325  0.00  0.00    +0.000 A 
ATOM      5  C   UNL     1      48.648   3.793  17.382  0.00  0.00    +0.000 A 
ATOM      6  C   UNL     1      48.754   5.035  18.021  0.00  0.00    +0.000 A 
ATOM      7  C   UNL     1      49.986   5.482  18.508  0.00  0.00    +0.000 A 
BRANCH   2   8
ATOM      8  C   UNL     1      52.490   5.191  18.827  0.00  0.00    +0.000 C 
BRANCH   8  14
ATOM      9  C   UNL     1      53.297   6.926  17.117  0.00  0.00    +0.000 A 
ATOM     10  C   UNL     1      54.123   7.260  16.033  0.00  0.00    +0.000 A 
ATOM     11  C   UNL     1      55.054   6.346  15.536  0.00  0.00    +0.000 A 
ATOM     12  C   UNL     1      55.188   5.100  16.134  0.00  0.00    +0.000 A 
ATOM     13  C   UNL     1      54.380   4.759  17.218  0.00  0.00    +0.000 A 
ATOM     14  C   UNL     1      53.412   5.654  17.711  0.00  0.00    +0.000 A 
BRANCH   9  16
ATOM     15  C   UNL     1      51.782   8.729  16.771  0.00  0.00    +0.000 C 
ATOM     16  O   UNL     1      52.368   7.779  17.656  0.00  0.00    +0.000 OA
ENDBRANCH   9  16
ENDBRANCH   8  14
ENDBRANCH   2   8
ENDBRANCH   1   5
BRANCH   1  17
ATOM     17  N   UNL     1      46.845   4.363  15.827  0.00  0.00    +0.000 N 
ATOM     18  C   UNL     1      46.887   4.151  14.469  0.00  0.00    +0.000 C 
ATOM     19  O   UNL     1      47.292   3.095  13.991  0.00  0.00    +0.000 OA
ATOM     20  H   UNL     1      46.729   5.306  16.185  0.00  0.00    +0.000 HD
BRANCH  18  21
ATOM     21  C   UNL     1      46.372   5.226  13.615  0.00  0.00    +0.000 A 
ATOM     22  C   UNL     1      47.123   6.382  13.443  0.00  0.00    +0.000 A 
ATOM     23  S   UNL     1      46.406   7.513  12.387  0.00  0.00    +0.000 S 
ATOM     24  C   UNL     1      45.042   6.522  12.166  0.00  0.00    +0.000 A 
ATOM     25  N   UNL     1      44.009   6.920  11.376  0.00  0.00    +0.000 NA
ATOM     26  C   UNL     1      43.025   6.086  11.324  0.00  0.00    +0.000 A 
ATOM     27  N   UNL     1      42.982   4.885  11.985  0.00  0.00    +0.000 N 
ATOM     28  C   UNL     1      44.013   4.430  12.771  0.00  0.00    +0.000 A 
ATOM     29  O   UNL     1      43.959   3.333  13.320  0.00  0.00    +0.000 OA
ATOM     30  C   UNL     1      45.139   5.337  12.872  0.00  0.00    +0.000 A 
ATOM     31  H   UNL     1      42.185   4.273  11.896  0.00  0.00    +0.000 HD
ENDBRANCH  18  21
ENDBRANCH   1  17
TORSDOF 6
ENDMDL
