MODEL 1
REMARK VINA RESULT:    -8.031      0.000      0.000
REMARK INTER + INTRA:         -11.929
REMARK INTER:                 -10.848
REMARK INTRA:                  -1.081
REMARK UNBOUND:                -1.081
REMARK  Name = 
REMARK  7 active torsions:
REMARK  status: ('A' for Active; 'I' for Inactive)
REMARK    1  A    between atoms: C_1  and  O_2
REMARK    2  A    between atoms: O_2  and  C_3
REMARK    3  A    between atoms: C_8  and  C_9
REMARK    4  A    between atoms: C_9  and  C_10
REMARK    5  A    between atoms: C_13  and  C_14
REMARK    6  A    between atoms: C_14  and  N_15
REMARK    7  A    between atoms: C_16  and  C_18
REMARK                            x       y       z     vdW  Elec       q    Type
REMARK                         _______ _______ _______ _____ _____    ______ ____
ROOT
ATOM      1  C   UNL     1      47.651   8.463  13.877  0.00  0.00    +0.000 C 
ENDROOT
BRANCH   1   5
ATOM      2  C   UNL     1      44.938   6.367  11.243  0.00  0.00    +0.000 A 
ATOM      3  C   UNL     1      46.152   5.782  11.624  0.00  0.00    +0.000 A 
ATOM      4  C   UNL     1      47.058   6.479  12.428  0.00  0.00    +0.000 A 
ATOM      5  C   UNL     1      46.759   7.771  12.880  0.00  0.00    +0.000 A 
ATOM      6  C   UNL     1      45.589   8.391  12.424  0.00  0.00    +0.000 A 
ATOM      7  C   UNL     1      44.684   7.693  11.618  0.00  0.00    +0.000 A 
BRANCH   2   8
ATOM      8  C   UNL     1      43.913   5.565  10.473  0.00  0.00    +0.000 C 
BRANCH   8  14
ATOM      9  C   UNL     1      44.113   3.044  10.042  0.00  0.00    +0.000 A 
ATOM     10  C   UNL     1      44.716   1.979   9.357  0.00  0.00    +0.000 A 
ATOM     11  C   UNL     1      45.667   2.217   8.363  0.00  0.00    +0.000 A 
ATOM     12  C   UNL     1      46.008   3.522   8.026  0.00  0.00    +0.000 A 
ATOM     13  C   UNL     1      45.411   4.589   8.696  0.00  0.00    +0.000 A 
ATOM     14  C   UNL     1      44.473   4.368   9.723  0.00  0.00    +0.000 A 
BRANCH   9  16
ATOM     15  C   UNL     1      43.637   2.753  12.355  0.00  0.00    +0.000 C 
ATOM     16  O   UNL     1      43.164   2.883  11.019  0.00  0.00    +0.000 OA
ENDBRANCH   9  16
ENDBRANCH   8  14
ENDBRANCH   2   8
ENDBRANCH   1   5
BRANCH   1  17
ATOM     17  N   UNL     1      47.902   7.662  15.043  0.00  0.00    +0.000 N 
ATOM     18  C   UNL     1      49.100   7.004  15.185  0.00  0.00    +0.000 C 
ATOM     19  O   UNL     1      50.005   7.117  14.363  0.00  0.00    +0.000 OA
ATOM     20  H   UNL     1      47.099   7.370  15.591  0.00  0.00    +0.000 HD
BRANCH  18  21
ATOM     21  C   UNL     1      49.274   6.207  16.404  0.00  0.00    +0.000 A 
ATOM     22  C   UNL     1      50.248   6.568  17.327  0.00  0.00    +0.000 A 
ATOM     23  S   UNL     1      50.278   5.575  18.712  0.00  0.00    +0.000 S 
ATOM     24  C   UNL     1      49.029   4.593  18.101  0.00  0.00    +0.000 A 
ATOM     25  N   UNL     1      48.578   3.519  18.803  0.00  0.00    +0.000 NA
ATOM     26  C   UNL     1      47.652   2.846  18.206  0.00  0.00    +0.000 A 
ATOM     27  N   UNL     1      47.132   3.152  16.977  0.00  0.00    +0.000 N 
ATOM     28  C   UNL     1      47.535   4.241  16.242  0.00  0.00    +0.000 A 
ATOM     29  O   UNL     1      47.027   4.507  15.159  0.00  0.00    +0.000 OA
ATOM     30  C   UNL     1      48.583   5.029  16.868  0.00  0.00    +0.000 A 
ATOM     31  H   UNL     1      46.405   2.585  16.565  0.00  0.00    +0.000 HD
ENDBRANCH  18  21
ENDBRANCH   1  17
TORSDOF 6
ENDMDL
MODEL 2
REMARK VINA RESULT:    -7.390      1.743      2.225
REMARK INTER + INTRA:         -11.064
REMARK INTER:                  -9.966
REMARK INTRA:                  -1.098
REMARK UNBOUND:                -1.081
REMARK  Name = 
REMARK  7 active torsions:
REMARK  status: ('A' for Active; 'I' for Inactive)
REMARK    1  A    between atoms: C_1  and  O_2
REMARK    2  A    between atoms: O_2  and  C_3
REMARK    3  A    between atoms: C_8  and  C_9
REMARK    4  A    between atoms: C_9  and  C_10
REMARK    5  A    between atoms: C_13  and  C_14
REMARK    6  A    between atoms: C_14  and  N_15
REMARK    7  A    between atoms: C_16  and  C_18
REMARK                            x       y       z     vdW  Elec       q    Type
REMARK                         _______ _______ _______ _____ _____    ______ ____
ROOT
ATOM      1  C   UNL     1      49.184   6.886  14.254  0.00  0.00    +0.000 C 
ENDROOT
BRANCH   1   5
ATOM      2  C   UNL     1      45.606   6.152  11.941  0.00  0.00    +0.000 A 
ATOM      3  C   UNL     1      46.339   7.332  11.761  0.00  0.00    +0.000 A 
ATOM      4  C   UNL     1      47.463   7.600  12.548  0.00  0.00    +0.000 A 
ATOM      5  C   UNL     1      47.886   6.684  13.518  0.00  0.00    +0.000 A 
ATOM      6  C   UNL     1      47.101   5.549  13.762  0.00  0.00    +0.000 A 
ATOM      7  C   UNL     1      45.976   5.283  12.976  0.00  0.00    +0.000 A 
BRANCH   2   8
ATOM      8  C   UNL     1      44.464   5.813  11.010  0.00  0.00    +0.000 C 
BRANCH   8  14
ATOM      9  C   UNL     1      44.147   3.446  10.073  0.00  0.00    +0.000 A 
ATOM     10  C   UNL     1      44.517   2.449   9.159  0.00  0.00    +0.000 A 
ATOM     11  C   UNL     1      45.487   2.696   8.187  0.00  0.00    +0.000 A 
ATOM     12  C   UNL     1      46.081   3.949   8.101  0.00  0.00    +0.000 A 
ATOM     13  C   UNL     1      45.718   4.951   9.001  0.00  0.00    +0.000 A 
ATOM     14  C   UNL     1      44.764   4.711  10.008  0.00  0.00    +0.000 A 
BRANCH   9  16
ATOM     15  C   UNL     1      43.578   2.529  12.194  0.00  0.00    +0.000 C 
ATOM     16  O   UNL     1      43.194   3.276  11.045  0.00  0.00    +0.000 OA
ENDBRANCH   9  16
ENDBRANCH   8  14
ENDBRANCH   2   8
ENDBRANCH   1   5
BRANCH   1  17
ATOM     17  N   UNL     1      48.993   7.096  15.663  0.00  0.00    +0.000 N 
ATOM     18  C   UNL     1      49.877   6.560  16.568  0.00  0.00    +0.000 C 
ATOM     19  O   UNL     1      50.875   5.940  16.213  0.00  0.00    +0.000 OA
ATOM     20  H   UNL     1      48.071   7.386  15.971  0.00  0.00    +0.000 HD
BRANCH  18  21
ATOM     21  C   UNL     1      49.608   6.821  17.986  0.00  0.00    +0.000 A 
ATOM     22  C   UNL     1      49.733   8.112  18.483  0.00  0.00    +0.000 A 
ATOM     23  S   UNL     1      49.327   8.253  20.132  0.00  0.00    +0.000 S 
ATOM     24  C   UNL     1      49.025   6.582  20.256  0.00  0.00    +0.000 A 
ATOM     25  N   UNL     1      48.650   6.026  21.438  0.00  0.00    +0.000 NA
ATOM     26  C   UNL     1      48.487   4.745  21.394  0.00  0.00    +0.000 A 
ATOM     27  N   UNL     1      48.658   3.974  20.276  0.00  0.00    +0.000 N 
ATOM     28  C   UNL     1      49.010   4.493  19.053  0.00  0.00    +0.000 A 
ATOM     29  O   UNL     1      49.124   3.780  18.063  0.00  0.00    +0.000 OA
ATOM     30  C   UNL     1      49.213   5.932  19.051  0.00  0.00    +0.000 A 
ATOM     31  H   UNL     1      48.512   2.975  20.307  0.00  0.00    +0.000 HD
ENDBRANCH  18  21
ENDBRANCH   1  17
TORSDOF 6
ENDMDL
MODEL 3
REMARK VINA RESULT:    -7.360      2.248      2.840
REMARK INTER + INTRA:         -11.024
REMARK INTER:                  -9.879
REMARK INTRA:                  -1.145
REMARK UNBOUND:                -1.081
REMARK  Name = 
REMARK  7 active torsions:
REMARK  status: ('A' for Active; 'I' for Inactive)
REMARK    1  A    between atoms: C_1  and  O_2
REMARK    2  A    between atoms: O_2  and  C_3
REMARK    3  A    between atoms: C_8  and  C_9
REMARK    4  A    between atoms: C_9  and  C_10
REMARK    5  A    between atoms: C_13  and  C_14
REMARK    6  A    between atoms: C_14  and  N_15
REMARK    7  A    between atoms: C_16  and  C_18
REMARK                            x       y       z     vdW  Elec       q    Type
REMARK                         _______ _______ _______ _____ _____    ______ ____
ROOT
ATOM      1  C   UNL     1      48.631   6.935  14.442  0.00  0.00    +0.000 C 
ENDROOT
BRANCH   1   5
ATOM      2  C   UNL     1      45.381   6.030  11.738  0.00  0.00    +0.000 A 
ATOM      3  C   UNL     1      45.935   7.316  11.779  0.00  0.00    +0.000 A 
ATOM      4  C   UNL     1      46.946   7.629  12.692  0.00  0.00    +0.000 A 
ATOM      5  C   UNL     1      47.435   6.654  13.571  0.00  0.00    +0.000 A 
ATOM      6  C   UNL     1      46.819   5.397  13.595  0.00  0.00    +0.000 A 
ATOM      7  C   UNL     1      45.806   5.086  12.683  0.00  0.00    +0.000 A 
BRANCH   2   8
ATOM      8  C   UNL     1      44.373   5.666  10.671  0.00  0.00    +0.000 C 
BRANCH   8  14
ATOM      9  C   UNL     1      44.211   3.206   9.960  0.00  0.00    +0.000 A 
ATOM     10  C   UNL     1      44.668   2.147   9.164  0.00  0.00    +0.000 A 
ATOM     11  C   UNL     1      45.667   2.348   8.211  0.00  0.00    +0.000 A 
ATOM     12  C   UNL     1      46.204   3.617   8.026  0.00  0.00    +0.000 A 
ATOM     13  C   UNL     1      45.754   4.680   8.808  0.00  0.00    +0.000 A 
ATOM     14  C   UNL     1      44.769   4.490   9.795  0.00  0.00    +0.000 A 
BRANCH   9  16
ATOM     15  C   UNL     1      43.576   2.412  12.112  0.00  0.00    +0.000 C 
ATOM     16  O   UNL     1      43.225   3.082  10.906  0.00  0.00    +0.000 OA
ENDBRANCH   9  16
ENDBRANCH   8  14
ENDBRANCH   2   8
ENDBRANCH   1   5
BRANCH   1  17
ATOM     17  N   UNL     1      48.336   6.809  15.843  0.00  0.00    +0.000 N 
ATOM     18  C   UNL     1      49.235   6.203  16.687  0.00  0.00    +0.000 C 
ATOM     19  O   UNL     1      50.327   5.803  16.295  0.00  0.00    +0.000 OA
ATOM     20  H   UNL     1      47.367   6.909  16.126  0.00  0.00    +0.000 HD
BRANCH  18  21
ATOM     21  C   UNL     1      48.855   6.115  18.101  0.00  0.00    +0.000 A 
ATOM     22  C   UNL     1      49.033   4.921  18.787  0.00  0.00    +0.000 A 
ATOM     23  S   UNL     1      48.598   5.006  20.433  0.00  0.00    +0.000 S 
ATOM     24  C   UNL     1      48.102   6.626  20.274  0.00  0.00    +0.000 A 
ATOM     25  N   UNL     1      47.592   7.308  21.334  0.00  0.00    +0.000 NA
ATOM     26  C   UNL     1      47.226   8.516  21.061  0.00  0.00    +0.000 A 
ATOM     27  N   UNL     1      47.331   9.106  19.830  0.00  0.00    +0.000 N 
ATOM     28  C   UNL     1      47.864   8.467  18.736  0.00  0.00    +0.000 A 
ATOM     29  O   UNL     1      47.973   9.033  17.655  0.00  0.00    +0.000 OA
ATOM     30  C   UNL     1      48.285   7.099  18.988  0.00  0.00    +0.000 A 
ATOM     31  H   UNL     1      47.029  10.058  19.683  0.00  0.00    +0.000 HD
ENDBRANCH  18  21
ENDBRANCH   1  17
TORSDOF 6
ENDMDL
MODEL 4
REMARK VINA RESULT:    -7.147      4.112      9.423
REMARK INTER + INTRA:         -10.736
REMARK INTER:                  -9.538
REMARK INTRA:                  -1.197
REMARK UNBOUND:                -1.081
REMARK  Name = 
REMARK  7 active torsions:
REMARK  status: ('A' for Active; 'I' for Inactive)
REMARK    1  A    between atoms: C_1  and  O_2
REMARK    2  A    between atoms: O_2  and  C_3
REMARK    3  A    between atoms: C_8  and  C_9
REMARK    4  A    between atoms: C_9  and  C_10
REMARK    5  A    between atoms: C_13  and  C_14
REMARK    6  A    between atoms: C_14  and  N_15
REMARK    7  A    between atoms: C_16  and  C_18
REMARK                            x       y       z     vdW  Elec       q    Type
REMARK                         _______ _______ _______ _____ _____    ______ ____
ROOT
ATOM      1  C   UNL     1      47.234   3.533  16.698  0.00  0.00    +0.000 C 
ENDROOT
BRANCH   1   5
ATOM      2  C   UNL     1      51.396   4.293  17.586  0.00  0.00    +0.000 A 
ATOM      3  C   UNL     1      50.894   2.986  17.598  0.00  0.00    +0.000 A 
ATOM      4  C   UNL     1      49.537   2.740  17.369  0.00  0.00    +0.000 A 
ATOM      5  C   UNL     1      48.659   3.799  17.106  0.00  0.00    +0.000 A 
ATOM      6  C   UNL     1      49.141   5.111  17.186  0.00  0.00    +0.000 A 
ATOM      7  C   UNL     1      50.498   5.356  17.417  0.00  0.00    +0.000 A 
BRANCH   2   8
ATOM      8  C   UNL     1      52.882   4.542  17.717  0.00  0.00    +0.000 C 
BRANCH   8  14
ATOM      9  C   UNL     1      54.382   2.771  18.810  0.00  0.00    +0.000 A 
ATOM     10  C   UNL     1      54.898   2.173  19.968  0.00  0.00    +0.000 A 
ATOM     11  C   UNL     1      54.581   2.673  21.232  0.00  0.00    +0.000 A 
ATOM     12  C   UNL     1      53.764   3.791  21.351  0.00  0.00    +0.000 A 
ATOM     13  C   UNL     1      53.249   4.398  20.207  0.00  0.00    +0.000 A 
ATOM     14  C   UNL     1      53.533   3.890  18.925  0.00  0.00    +0.000 A 
BRANCH   9  16
ATOM     15  C   UNL     1      54.220   1.031  17.195  0.00  0.00    +0.000 C 
ATOM     16  O   UNL     1      54.663   2.340  17.538  0.00  0.00    +0.000 OA
ENDBRANCH   9  16
ENDBRANCH   8  14
ENDBRANCH   2   8
ENDBRANCH   1   5
BRANCH   1  17
ATOM     17  N   UNL     1      46.741   4.497  15.753  0.00  0.00    +0.000 N 
ATOM     18  C   UNL     1      46.805   4.240  14.405  0.00  0.00    +0.000 C 
ATOM     19  O   UNL     1      47.227   3.174  13.966  0.00  0.00    +0.000 OA
ATOM     20  H   UNL     1      46.622   5.451  16.079  0.00  0.00    +0.000 HD
BRANCH  18  21
ATOM     21  C   UNL     1      46.281   5.278  13.511  0.00  0.00    +0.000 A 
ATOM     22  C   UNL     1      47.066   6.383  13.208  0.00  0.00    +0.000 A 
ATOM     23  S   UNL     1      46.333   7.462  12.109  0.00  0.00    +0.000 S 
ATOM     24  C   UNL     1      44.918   6.519  12.044  0.00  0.00    +0.000 A 
ATOM     25  N   UNL     1      43.858   6.901  11.283  0.00  0.00    +0.000 NA
ATOM     26  C   UNL     1      42.840   6.109  11.354  0.00  0.00    +0.000 A 
ATOM     27  N   UNL     1      42.788   4.969  12.111  0.00  0.00    +0.000 N 
ATOM     28  C   UNL     1      43.843   4.527  12.874  0.00  0.00    +0.000 A 
ATOM     29  O   UNL     1      43.777   3.484  13.514  0.00  0.00    +0.000 OA
ATOM     30  C   UNL     1      45.012   5.389  12.834  0.00  0.00    +0.000 A 
ATOM     31  H   UNL     1      41.962   4.390  12.121  0.00  0.00    +0.000 HD
ENDBRANCH  18  21
ENDBRANCH   1  17
TORSDOF 6
ENDMDL
MODEL 5
REMARK VINA RESULT:    -6.790      3.227      3.945
REMARK INTER + INTRA:         -10.253
REMARK INTER:                  -9.011
REMARK INTRA:                  -1.242
REMARK UNBOUND:                -1.081
REMARK  Name = 
REMARK  7 active torsions:
REMARK  status: ('A' for Active; 'I' for Inactive)
REMARK    1  A    between atoms: C_1  and  O_2
REMARK    2  A    between atoms: O_2  and  C_3
REMARK    3  A    between atoms: C_8  and  C_9
REMARK    4  A    between atoms: C_9  and  C_10
REMARK    5  A    between atoms: C_13  and  C_14
REMARK    6  A    between atoms: C_14  and  N_15
REMARK    7  A    between atoms: C_16  and  C_18
REMARK                            x       y       z     vdW  Elec       q    Type
REMARK                         _______ _______ _______ _____ _____    ______ ____
ROOT
ATOM      1  C   UNL     1      48.527   6.547  15.114  0.00  0.00    +0.000 C 
ENDROOT
BRANCH   1   5
ATOM      2  C   UNL     1      45.787   5.940  11.825  0.00  0.00    +0.000 A 
ATOM      3  C   UNL     1      45.990   4.932  12.777  0.00  0.00    +0.000 A 
ATOM      4  C   UNL     1      46.918   5.101  13.809  0.00  0.00    +0.000 A 
ATOM      5  C   UNL     1      47.649   6.291  13.918  0.00  0.00    +0.000 A 
ATOM      6  C   UNL     1      47.515   7.260  12.915  0.00  0.00    +0.000 A 
ATOM      7  C   UNL     1      46.588   7.088  11.883  0.00  0.00    +0.000 A 
BRANCH   2   8
ATOM      8  C   UNL     1      44.700   5.798  10.783  0.00  0.00    +0.000 C 
BRANCH   8  14
ATOM      9  C   UNL     1      44.180   3.449   9.892  0.00  0.00    +0.000 A 
ATOM     10  C   UNL     1      44.461   2.407   8.997  0.00  0.00    +0.000 A 
ATOM     11  C   UNL     1      45.446   2.552   8.019  0.00  0.00    +0.000 A 
ATOM     12  C   UNL     1      46.145   3.749   7.910  0.00  0.00    +0.000 A 
ATOM     13  C   UNL     1      45.871   4.794   8.790  0.00  0.00    +0.000 A 
ATOM     14  C   UNL     1      44.902   4.656   9.803  0.00  0.00    +0.000 A 
BRANCH   9  16
ATOM     15  C   UNL     1      43.453   2.466  11.933  0.00  0.00    +0.000 C 
ATOM     16  O   UNL     1      43.218   3.380  10.868  0.00  0.00    +0.000 OA
ENDBRANCH   9  16
ENDBRANCH   8  14
ENDBRANCH   2   8
ENDBRANCH   1   5
BRANCH   1  17
ATOM     17  N   UNL     1      48.197   7.774  15.788  0.00  0.00    +0.000 N 
ATOM     18  C   UNL     1      49.190   8.557  16.324  0.00  0.00    +0.000 C 
ATOM     19  O   UNL     1      50.379   8.273  16.203  0.00  0.00    +0.000 OA
ATOM     20  H   UNL     1      47.239   7.891  16.100  0.00  0.00    +0.000 HD
BRANCH  18  21
ATOM     21  C   UNL     1      48.767   9.790  16.995  0.00  0.00    +0.000 A 
ATOM     22  C   UNL     1      49.133  11.021  16.465  0.00  0.00    +0.000 A 
ATOM     23  S   UNL     1      48.511  12.351  17.330  0.00  0.00    +0.000 S 
ATOM     24  C   UNL     1      47.777  11.330  18.478  0.00  0.00    +0.000 A 
ATOM     25  N   UNL     1      47.084  11.844  19.528  0.00  0.00    +0.000 NA
ATOM     26  C   UNL     1      46.609  10.955  20.337  0.00  0.00    +0.000 A 
ATOM     27  N   UNL     1      46.760   9.602  20.187  0.00  0.00    +0.000 N 
ATOM     28  C   UNL     1      47.428   9.035  19.128  0.00  0.00    +0.000 A 
ATOM     29  O   UNL     1      47.518   7.819  19.006  0.00  0.00    +0.000 OA
ATOM     30  C   UNL     1      47.988   9.995  18.192  0.00  0.00    +0.000 A 
ATOM     31  H   UNL     1      46.361   8.959  20.855  0.00  0.00    +0.000 HD
ENDBRANCH  18  21
ENDBRANCH   1  17
TORSDOF 6
ENDMDL
MODEL 6
REMARK VINA RESULT:    -6.684      3.425      9.188
REMARK INTER + INTRA:         -10.110
REMARK INTER:                  -9.025
REMARK INTRA:                  -1.085
REMARK UNBOUND:                -1.081
REMARK  Name = 
REMARK  7 active torsions:
REMARK  status: ('A' for Active; 'I' for Inactive)
REMARK    1  A    between atoms: C_1  and  O_2
REMARK    2  A    between atoms: O_2  and  C_3
REMARK    3  A    between atoms: C_8  and  C_9
REMARK    4  A    between atoms: C_9  and  C_10
REMARK    5  A    between atoms: C_13  and  C_14
REMARK    6  A    between atoms: C_14  and  N_15
REMARK    7  A    between atoms: C_16  and  C_18
REMARK                            x       y       z     vdW  Elec       q    Type
REMARK                         _______ _______ _______ _____ _____    ______ ____
ROOT
ATOM      1  C   UNL     1      47.213   3.368  16.793  0.00  0.00    +0.000 C 
ENDROOT
BRANCH   1   5
ATOM      2  C   UNL     1      51.438   3.840  17.580  0.00  0.00    +0.000 A 
ATOM      3  C   UNL     1      50.884   2.564  17.409  0.00  0.00    +0.000 A 
ATOM      4  C   UNL     1      49.510   2.404  17.213  0.00  0.00    +0.000 A 
ATOM      5  C   UNL     1      48.664   3.519  17.166  0.00  0.00    +0.000 A 
ATOM      6  C   UNL     1      49.202   4.785  17.429  0.00  0.00    +0.000 A 
ATOM      7  C   UNL     1      50.576   4.944  17.628  0.00  0.00    +0.000 A 
BRANCH   2   8
ATOM      8  C   UNL     1      52.937   4.016  17.674  0.00  0.00    +0.000 C 
BRANCH   8  14
ATOM      9  C   UNL     1      53.760   6.428  17.380  0.00  0.00    +0.000 A 
ATOM     10  C   UNL     1      54.231   7.621  17.946  0.00  0.00    +0.000 A 
ATOM     11  C   UNL     1      54.334   7.763  19.331  0.00  0.00    +0.000 A 
ATOM     12  C   UNL     1      53.944   6.722  20.166  0.00  0.00    +0.000 A 
ATOM     13  C   UNL     1      53.469   5.533  19.615  0.00  0.00    +0.000 A 
ATOM     14  C   UNL     1      53.387   5.360  18.220  0.00  0.00    +0.000 A 
BRANCH   9  16
ATOM     15  C   UNL     1      54.820   6.194  15.262  0.00  0.00    +0.000 C 
ATOM     16  O   UNL     1      53.622   6.225  16.030  0.00  0.00    +0.000 OA
ENDBRANCH   9  16
ENDBRANCH   8  14
ENDBRANCH   2   8
ENDBRANCH   1   5
BRANCH   1  17
ATOM     17  N   UNL     1      46.772   4.381  15.872  0.00  0.00    +0.000 N 
ATOM     18  C   UNL     1      46.892   4.183  14.518  0.00  0.00    +0.000 C 
ATOM     19  O   UNL     1      47.322   3.133  14.050  0.00  0.00    +0.000 OA
ATOM     20  H   UNL     1      46.649   5.320  16.236  0.00  0.00    +0.000 HD
BRANCH  18  21
ATOM     21  C   UNL     1      46.419   5.266  13.650  0.00  0.00    +0.000 A 
ATOM     22  C   UNL     1      47.230   6.372  13.427  0.00  0.00    +0.000 A 
ATOM     23  S   UNL     1      46.557   7.507  12.348  0.00  0.00    +0.000 S 
ATOM     24  C   UNL     1      45.133   6.589  12.185  0.00  0.00    +0.000 A 
ATOM     25  N   UNL     1      44.110   7.020  11.399  0.00  0.00    +0.000 NA
ATOM     26  C   UNL     1      43.081   6.240  11.394  0.00  0.00    +0.000 A 
ATOM     27  N   UNL     1      42.983   5.069  12.097  0.00  0.00    +0.000 N 
ATOM     28  C   UNL     1      44.000   4.579  12.882  0.00  0.00    +0.000 A 
ATOM     29  O   UNL     1      43.894   3.511  13.473  0.00  0.00    +0.000 OA
ATOM     30  C   UNL     1      45.181   5.425  12.927  0.00  0.00    +0.000 A 
ATOM     31  H   UNL     1      42.149   4.502  12.048  0.00  0.00    +0.000 HD
ENDBRANCH  18  21
ENDBRANCH   1  17
TORSDOF 6
ENDMDL
MODEL 7
REMARK VINA RESULT:    -6.674      3.518      8.147
REMARK INTER + INTRA:         -10.096
REMARK INTER:                  -8.846
REMARK INTRA:                  -1.250
REMARK UNBOUND:                -1.081
REMARK  Name = 
REMARK  7 active torsions:
REMARK  status: ('A' for Active; 'I' for Inactive)
REMARK    1  A    between atoms: C_1  and  O_2
REMARK    2  A    between atoms: O_2  and  C_3
REMARK    3  A    between atoms: C_8  and  C_9
REMARK    4  A    between atoms: C_9  and  C_10
REMARK    5  A    between atoms: C_13  and  C_14
REMARK    6  A    between atoms: C_14  and  N_15
REMARK    7  A    between atoms: C_16  and  C_18
REMARK                            x       y       z     vdW  Elec       q    Type
REMARK                         _______ _______ _______ _____ _____    ______ ____
ROOT
ATOM      1  C   UNL     1      47.599   7.954  11.747  0.00  0.00    +0.000 C 
ENDROOT
BRANCH   1   5
ATOM      2  C   UNL     1      49.506   8.037  15.627  0.00  0.00    +0.000 A 
ATOM      3  C   UNL     1      48.271   8.669  15.428  0.00  0.00    +0.000 A 
ATOM      4  C   UNL     1      47.679   8.695  14.162  0.00  0.00    +0.000 A 
ATOM      5  C   UNL     1      48.303   8.073  13.073  0.00  0.00    +0.000 A 
ATOM      6  C   UNL     1      49.579   7.522  13.251  0.00  0.00    +0.000 A 
ATOM      7  C   UNL     1      50.171   7.499  14.517  0.00  0.00    +0.000 A 
BRANCH   2   8
ATOM      8  C   UNL     1      50.083   7.911  17.019  0.00  0.00    +0.000 C 
BRANCH   8  14
ATOM      9  C   UNL     1      48.975   5.805  17.978  0.00  0.00    +0.000 A 
ATOM     10  C   UNL     1      48.084   5.216  18.886  0.00  0.00    +0.000 A 
ATOM     11  C   UNL     1      47.406   5.992  19.828  0.00  0.00    +0.000 A 
ATOM     12  C   UNL     1      47.630   7.362  19.888  0.00  0.00    +0.000 A 
ATOM     13  C   UNL     1      48.518   7.959  18.994  0.00  0.00    +0.000 A 
ATOM     14  C   UNL     1      49.187   7.197  18.017  0.00  0.00    +0.000 A 
BRANCH   9  16
ATOM     15  C   UNL     1      50.843   4.413  17.491  0.00  0.00    +0.000 C 
ATOM     16  O   UNL     1      49.683   5.101  17.037  0.00  0.00    +0.000 OA
ENDBRANCH   9  16
ENDBRANCH   8  14
ENDBRANCH   2   8
ENDBRANCH   1   5
BRANCH   1  17
ATOM     17  N   UNL     1      46.929   6.691  11.590  0.00  0.00    +0.000 N 
ATOM     18  C   UNL     1      45.561   6.618  11.686  0.00  0.00    +0.000 C 
ATOM     19  O   UNL     1      44.866   7.617  11.853  0.00  0.00    +0.000 OA
ATOM     20  H   UNL     1      47.488   5.851  11.695  0.00  0.00    +0.000 HD
BRANCH  18  21
ATOM     21  C   UNL     1      44.958   5.292  11.514  0.00  0.00    +0.000 A 
ATOM     22  C   UNL     1      44.279   4.703  12.573  0.00  0.00    +0.000 A 
ATOM     23  S   UNL     1      43.589   3.193  12.188  0.00  0.00    +0.000 S 
ATOM     24  C   UNL     1      44.222   3.245  10.609  0.00  0.00    +0.000 A 
ATOM     25  N   UNL     1      44.014   2.222   9.739  0.00  0.00    +0.000 NA
ATOM     26  C   UNL     1      44.579   2.380   8.588  0.00  0.00    +0.000 A 
ATOM     27  N   UNL     1      45.326   3.470   8.228  0.00  0.00    +0.000 N 
ATOM     28  C   UNL     1      45.542   4.540   9.062  0.00  0.00    +0.000 A 
ATOM     29  O   UNL     1      46.189   5.515   8.699  0.00  0.00    +0.000 OA
ATOM     30  C   UNL     1      44.932   4.407  10.375  0.00  0.00    +0.000 A 
ATOM     31  H   UNL     1      45.740   3.534   7.309  0.00  0.00    +0.000 HD
ENDBRANCH  18  21
ENDBRANCH   1  17
TORSDOF 6
ENDMDL
MODEL 8
REMARK VINA RESULT:    -6.652      3.231      7.491
REMARK INTER + INTRA:         -10.067
REMARK INTER:                  -8.839
REMARK INTRA:                  -1.228
REMARK UNBOUND:                -1.081
REMARK  Name = 
REMARK  7 active torsions:
REMARK  status: ('A' for Active; 'I' for Inactive)
REMARK    1  A    between atoms: C_1  and  O_2
REMARK    2  A    between atoms: O_2  and  C_3
REMARK    3  A    between atoms: C_8  and  C_9
REMARK    4  A    between atoms: C_9  and  C_10
REMARK    5  A    between atoms: C_13  and  C_14
REMARK    6  A    between atoms: C_14  and  N_15
REMARK    7  A    between atoms: C_16  and  C_18
REMARK                            x       y       z     vdW  Elec       q    Type
REMARK                         _______ _______ _______ _____ _____    ______ ____
ROOT
ATOM      1  C   UNL     1      48.330   8.613  14.260  0.00  0.00    +0.000 C 
ENDROOT
BRANCH   1   5
ATOM      2  C   UNL     1      50.088   6.395  17.529  0.00  0.00    +0.000 A 
ATOM      3  C   UNL     1      48.898   7.111  17.714  0.00  0.00    +0.000 A 
ATOM      4  C   UNL     1      48.357   7.877  16.677  0.00  0.00    +0.000 A 
ATOM      5  C   UNL     1      48.989   7.927  15.428  0.00  0.00    +0.000 A 
ATOM      6  C   UNL     1      50.225   7.288  15.271  0.00  0.00    +0.000 A 
ATOM      7  C   UNL     1      50.766   6.524  16.310  0.00  0.00    +0.000 A 
BRANCH   2   8
ATOM      8  C   UNL     1      50.603   5.477  18.615  0.00  0.00    +0.000 C 
BRANCH   8  14
ATOM      9  C   UNL     1      50.025   3.153  17.695  0.00  0.00    +0.000 A 
ATOM     10  C   UNL     1      50.433   1.860  17.336  0.00  0.00    +0.000 A 
ATOM     11  C   UNL     1      51.776   1.486  17.417  0.00  0.00    +0.000 A 
ATOM     12  C   UNL     1      52.729   2.408  17.834  0.00  0.00    +0.000 A 
ATOM     13  C   UNL     1      52.337   3.698  18.188  0.00  0.00    +0.000 A 
ATOM     14  C   UNL     1      50.983   4.084  18.143  0.00  0.00    +0.000 A 
BRANCH   9  16
ATOM     15  C   UNL     1      47.941   3.097  16.549  0.00  0.00    +0.000 C 
ATOM     16  O   UNL     1      48.727   3.590  17.628  0.00  0.00    +0.000 OA
ENDBRANCH   9  16
ENDBRANCH   8  14
ENDBRANCH   2   8
ENDBRANCH   1   5
BRANCH   1  17
ATOM     17  N   UNL     1      47.128   7.949  13.836  0.00  0.00    +0.000 N 
ATOM     18  C   UNL     1      47.106   7.244  12.658  0.00  0.00    +0.000 C 
ATOM     19  O   UNL     1      48.109   7.109  11.962  0.00  0.00    +0.000 OA
ATOM     20  H   UNL     1      46.256   8.248  14.262  0.00  0.00    +0.000 HD
BRANCH  18  21
ATOM     21  C   UNL     1      45.839   6.598  12.300  0.00  0.00    +0.000 A 
ATOM     22  C   UNL     1      44.806   7.360  11.769  0.00  0.00    +0.000 A 
ATOM     23  S   UNL     1      43.428   6.447  11.352  0.00  0.00    +0.000 S 
ATOM     24  C   UNL     1      44.141   5.010  11.920  0.00  0.00    +0.000 A 
ATOM     25  N   UNL     1      43.467   3.830  11.874  0.00  0.00    +0.000 NA
ATOM     26  C   UNL     1      44.116   2.828  12.368  0.00  0.00    +0.000 A 
ATOM     27  N   UNL     1      45.378   2.898  12.896  0.00  0.00    +0.000 N 
ATOM     28  C   UNL     1      46.109   4.061  12.939  0.00  0.00    +0.000 A 
ATOM     29  O   UNL     1      47.248   4.084  13.389  0.00  0.00    +0.000 OA
ATOM     30  C   UNL     1      45.419   5.221  12.401  0.00  0.00    +0.000 A 
ATOM     31  H   UNL     1      45.832   2.076  13.265  0.00  0.00    +0.000 HD
ENDBRANCH  18  21
ENDBRANCH   1  17
TORSDOF 6
ENDMDL
MODEL 9
REMARK VINA RESULT:    -6.577      5.318      8.014
REMARK INTER + INTRA:          -9.965
REMARK INTER:                  -8.912
REMARK INTRA:                  -1.053
REMARK UNBOUND:                -1.081
REMARK  Name = 
REMARK  7 active torsions:
REMARK  status: ('A' for Active; 'I' for Inactive)
REMARK    1  A    between atoms: C_1  and  O_2
REMARK    2  A    between atoms: O_2  and  C_3
REMARK    3  A    between atoms: C_8  and  C_9
REMARK    4  A    between atoms: C_9  and  C_10
REMARK    5  A    between atoms: C_13  and  C_14
REMARK    6  A    between atoms: C_14  and  N_15
REMARK    7  A    between atoms: C_16  and  C_18
REMARK                            x       y       z     vdW  Elec       q    Type
REMARK                         _______ _______ _______ _____ _____    ______ ____
ROOT
ATOM      1  C   UNL     1      46.742   8.321  12.789  0.00  0.00    +0.000 C 
ENDROOT
BRANCH   1   5
ATOM      2  C   UNL     1      50.755   8.877  11.280  0.00  0.00    +0.000 A 
ATOM      3  C   UNL     1      49.886   9.968  11.407  0.00  0.00    +0.000 A 
ATOM      4  C   UNL     1      48.570   9.785  11.840  0.00  0.00    +0.000 A 
ATOM      5  C   UNL     1      48.102   8.507  12.169  0.00  0.00    +0.000 A 
ATOM      6  C   UNL     1      48.940   7.405  11.954  0.00  0.00    +0.000 A 
ATOM      7  C   UNL     1      50.256   7.589  11.519  0.00  0.00    +0.000 A 
BRANCH   2   8
ATOM      8  C   UNL     1      52.209   9.095  10.926  0.00  0.00    +0.000 C 
BRANCH   8  14
ATOM      9  C   UNL     1      52.775   9.639   8.484  0.00  0.00    +0.000 A 
ATOM     10  C   UNL     1      53.058   9.199   7.183  0.00  0.00    +0.000 A 
ATOM     11  C   UNL     1      53.157   7.836   6.895  0.00  0.00    +0.000 A 
ATOM     12  C   UNL     1      52.998   6.900   7.909  0.00  0.00    +0.000 A 
ATOM     13  C   UNL     1      52.722   7.324   9.208  0.00  0.00    +0.000 A 
ATOM     14  C   UNL     1      52.588   8.693   9.511  0.00  0.00    +0.000 A 
BRANCH   9  16
ATOM     15  C   UNL     1      51.557  11.677   8.331  0.00  0.00    +0.000 C 
ATOM     16  O   UNL     1      52.677  10.960   8.839  0.00  0.00    +0.000 OA
ENDBRANCH   9  16
ENDBRANCH   8  14
ENDBRANCH   2   8
ENDBRANCH   1   5
BRANCH   1  17
ATOM     17  N   UNL     1      46.217   6.999  12.584  0.00  0.00    +0.000 N 
ATOM     18  C   UNL     1      45.157   6.800  11.734  0.00  0.00    +0.000 C 
ATOM     19  O   UNL     1      44.660   7.719  11.088  0.00  0.00    +0.000 OA
ATOM     20  H   UNL     1      46.449   6.293  13.275  0.00  0.00    +0.000 HD
BRANCH  18  21
ATOM     21  C   UNL     1      44.683   5.421  11.583  0.00  0.00    +0.000 A 
ATOM     22  C   UNL     1      43.987   4.816  12.622  0.00  0.00    +0.000 A 
ATOM     23  S   UNL     1      43.456   3.236  12.261  0.00  0.00    +0.000 S 
ATOM     24  C   UNL     1      44.187   3.284  10.724  0.00  0.00    +0.000 A 
ATOM     25  N   UNL     1      44.126   2.213   9.888  0.00  0.00    +0.000 NA
ATOM     26  C   UNL     1      44.751   2.376   8.770  0.00  0.00    +0.000 A 
ATOM     27  N   UNL     1      45.425   3.513   8.410  0.00  0.00    +0.000 N 
ATOM     28  C   UNL     1      45.492   4.630   9.209  0.00  0.00    +0.000 A 
ATOM     29  O   UNL     1      46.076   5.643   8.845  0.00  0.00    +0.000 OA
ATOM     30  C   UNL     1      44.809   4.494  10.484  0.00  0.00    +0.000 A 
ATOM     31  H   UNL     1      45.893   3.579   7.518  0.00  0.00    +0.000 HD
ENDBRANCH  18  21
ENDBRANCH   1  17
TORSDOF 6
ENDMDL
