MODEL 1
REMARK VINA RESULT:    -7.040      0.000      0.000
REMARK INTER + INTRA:          -9.905
REMARK INTER:                  -9.303
REMARK INTRA:                  -0.602
REMARK UNBOUND:                -0.602
REMARK  Name = 
REMARK  6 active torsions:
REMARK  status: ('A' for Active; 'I' for Inactive)
REMARK    1  A    between atoms: C_2  and  C_3
REMARK    2  A    between atoms: C_7  and  C_8
REMARK    3  A    between atoms: C_8  and  C_9
REMARK    4  A    between atoms: C_9  and  C_10
REMARK    5  A    between atoms: C_14  and  C_15
REMARK    6  A    between atoms: C_15  and  N_16
REMARK                            x       y       z     vdW  Elec       q    Type
REMARK                         _______ _______ _______ _____ _____    ______ ____
ROOT
ATOM      1  C   UNL     1      44.265   4.399   9.235  0.00  0.00    +0.000 C 
ENDROOT
BRANCH   1   2
ATOM      2  C   UNL     1      45.064   3.304   8.562  0.00  0.00    +0.000 A 
ATOM      3  C   UNL     1      45.112   2.008   9.091  0.00  0.00    +0.000 A 
ATOM      4  C   UNL     1      45.877   1.019   8.464  0.00  0.00    +0.000 A 
ATOM      5  C   UNL     1      46.615   1.327   7.322  0.00  0.00    +0.000 A 
ATOM      6  C   UNL     1      46.598   2.621   6.785  0.00  0.00    +0.000 A 
ATOM      7  C   UNL     1      45.802   3.597   7.403  0.00  0.00    +0.000 A 
BRANCH   6   8
ATOM      8  C   UNL     1      47.425   2.953   5.570  0.00  0.00    +0.000 C 
BRANCH   8   9
ATOM      9  N   UNL     1      48.453   1.945   5.329  0.00  0.00    +0.000 NA
ATOM     10  H   UNL     1      48.600   1.417   6.187  0.00  0.00    +0.000 HD
ATOM     11  H   UNL     1      49.332   2.410   5.119  0.00  0.00    +0.000 HD
ENDBRANCH   8   9
ENDBRANCH   6   8
ENDBRANCH   1   2
BRANCH   1  12
ATOM     12  C   UNL     1      44.183   4.203  10.755  0.00  0.00    +0.000 C 
BRANCH  12  17
ATOM     13  C   UNL     1      46.527   5.154  13.459  0.00  0.00    +0.000 A 
ATOM     14  C   UNL     1      47.112   6.326  13.012  0.00  0.00    +0.000 A 
ATOM     15  C   UNL     1      46.770   6.781  11.744  0.00  0.00    +0.000 A 
ATOM     16  C   UNL     1      45.847   6.064  10.988  0.00  0.00    +0.000 A 
ATOM     17  C   UNL     1      45.268   4.917  11.532  0.00  0.00    +0.000 A 
ATOM     18  N   UNL     1      45.611   4.450  12.758  0.00  0.00    +0.000 NA
BRANCH  13  20
ATOM     19  C   UNL     1      47.218   4.148  15.789  0.00  0.00    +0.000 C 
ATOM     20  C   UNL     1      46.890   4.590  14.724  0.00  0.00    +0.000 C 
ENDBRANCH  13  20
ENDBRANCH  12  17
ENDBRANCH   1  12
TORSDOF 6
ENDMDL
MODEL 2
REMARK VINA RESULT:    -6.985      1.052      2.015
REMARK INTER + INTRA:          -9.832
REMARK INTER:                  -9.254
REMARK INTRA:                  -0.578
REMARK UNBOUND:                -0.602
REMARK  Name = 
REMARK  6 active torsions:
REMARK  status: ('A' for Active; 'I' for Inactive)
REMARK    1  A    between atoms: C_2  and  C_3
REMARK    2  A    between atoms: C_7  and  C_8
REMARK    3  A    between atoms: C_8  and  C_9
REMARK    4  A    between atoms: C_9  and  C_10
REMARK    5  A    between atoms: C_14  and  C_15
REMARK    6  A    between atoms: C_15  and  N_16
REMARK                            x       y       z     vdW  Elec       q    Type
REMARK                         _______ _______ _______ _____ _____    ______ ____
ROOT
ATOM      1  C   UNL     1      44.254   4.286   9.167  0.00  0.00    +0.000 C 
ENDROOT
BRANCH   1   2
ATOM      2  C   UNL     1      45.077   3.219   8.479  0.00  0.00    +0.000 A 
ATOM      3  C   UNL     1      45.196   1.931   9.017  0.00  0.00    +0.000 A 
ATOM      4  C   UNL     1      45.982   0.969   8.376  0.00  0.00    +0.000 A 
ATOM      5  C   UNL     1      46.670   1.295   7.208  0.00  0.00    +0.000 A 
ATOM      6  C   UNL     1      46.582   2.582   6.660  0.00  0.00    +0.000 A 
ATOM      7  C   UNL     1      45.765   3.530   7.295  0.00  0.00    +0.000 A 
BRANCH   6   8
ATOM      8  C   UNL     1      47.356   2.936   5.417  0.00  0.00    +0.000 C 
BRANCH   8   9
ATOM      9  N   UNL     1      48.452   2.001   5.183  0.00  0.00    +0.000 NA
ATOM     10  H   UNL     1      48.178   1.083   5.529  0.00  0.00    +0.000 HD
ATOM     11  H   UNL     1      49.259   2.289   5.729  0.00  0.00    +0.000 HD
ENDBRANCH   8   9
ENDBRANCH   6   8
ENDBRANCH   1   2
BRANCH   1  12
ATOM     12  C   UNL     1      43.859   3.880  10.594  0.00  0.00    +0.000 C 
BRANCH  12  17
ATOM     13  C   UNL     1      45.748   6.245  12.727  0.00  0.00    +0.000 A 
ATOM     14  C   UNL     1      46.555   5.436  13.508  0.00  0.00    +0.000 A 
ATOM     15  C   UNL     1      46.421   4.059  13.373  0.00  0.00    +0.000 A 
ATOM     16  C   UNL     1      45.509   3.550  12.453  0.00  0.00    +0.000 A 
ATOM     17  C   UNL     1      44.767   4.435  11.671  0.00  0.00    +0.000 A 
ATOM     18  N   UNL     1      44.870   5.780  11.810  0.00  0.00    +0.000 NA
BRANCH  13  20
ATOM     19  C   UNL     1      45.806   8.865  12.950  0.00  0.00    +0.000 C 
ATOM     20  C   UNL     1      45.781   7.669  12.870  0.00  0.00    +0.000 C 
ENDBRANCH  13  20
ENDBRANCH  12  17
ENDBRANCH   1  12
TORSDOF 6
ENDMDL
MODEL 3
REMARK VINA RESULT:    -6.238      1.650      6.850
REMARK INTER + INTRA:          -8.846
REMARK INTER:                  -8.240
REMARK INTRA:                  -0.606
REMARK UNBOUND:                -0.602
REMARK  Name = 
REMARK  6 active torsions:
REMARK  status: ('A' for Active; 'I' for Inactive)
REMARK    1  A    between atoms: C_2  and  C_3
REMARK    2  A    between atoms: C_7  and  C_8
REMARK    3  A    between atoms: C_8  and  C_9
REMARK    4  A    between atoms: C_9  and  C_10
REMARK    5  A    between atoms: C_14  and  C_15
REMARK    6  A    between atoms: C_15  and  N_16
REMARK                            x       y       z     vdW  Elec       q    Type
REMARK                         _______ _______ _______ _____ _____    ______ ____
ROOT
ATOM      1  C   UNL     1      44.839   6.085  11.582  0.00  0.00    +0.000 C 
ENDROOT
BRANCH   1   2
ATOM      2  C   UNL     1      46.014   6.170  12.533  0.00  0.00    +0.000 A 
ATOM      3  C   UNL     1      47.035   7.110  12.345  0.00  0.00    +0.000 A 
ATOM      4  C   UNL     1      48.123   7.153  13.224  0.00  0.00    +0.000 A 
ATOM      5  C   UNL     1      48.205   6.245  14.277  0.00  0.00    +0.000 A 
ATOM      6  C   UNL     1      47.205   5.283  14.475  0.00  0.00    +0.000 A 
ATOM      7  C   UNL     1      46.103   5.269  13.607  0.00  0.00    +0.000 A 
BRANCH   6   8
ATOM      8  C   UNL     1      47.320   4.283  15.596  0.00  0.00    +0.000 C 
BRANCH   8   9
ATOM      9  N   UNL     1      47.758   2.979  15.109  0.00  0.00    +0.000 NA
ATOM     10  H   UNL     1      48.585   2.696  15.632  0.00  0.00    +0.000 HD
ATOM     11  H   UNL     1      48.043   3.064  14.137  0.00  0.00    +0.000 HD
ENDBRANCH   8   9
ENDBRANCH   6   8
ENDBRANCH   1   2
BRANCH   1  12
ATOM     12  C   UNL     1      45.287   6.020  10.115  0.00  0.00    +0.000 C 
BRANCH  12  17
ATOM     13  C   UNL     1      45.796   3.188   7.786  0.00  0.00    +0.000 A 
ATOM     14  C   UNL     1      45.170   2.118   8.402  0.00  0.00    +0.000 A 
ATOM     15  C   UNL     1      44.620   2.323   9.661  0.00  0.00    +0.000 A 
ATOM     16  C   UNL     1      44.697   3.587  10.241  0.00  0.00    +0.000 A 
ATOM     17  C   UNL     1      45.304   4.624   9.532  0.00  0.00    +0.000 A 
ATOM     18  N   UNL     1      45.866   4.430   8.313  0.00  0.00    +0.000 NA
BRANCH  13  20
ATOM     19  C   UNL     1      47.021   2.866   5.480  0.00  0.00    +0.000 C 
ATOM     20  C   UNL     1      46.449   3.027   6.521  0.00  0.00    +0.000 C 
ENDBRANCH  13  20
ENDBRANCH  12  17
ENDBRANCH   1  12
TORSDOF 6
ENDMDL
MODEL 4
REMARK VINA RESULT:    -6.227      1.850      2.397
REMARK INTER + INTRA:          -8.832
REMARK INTER:                  -8.421
REMARK INTRA:                  -0.410
REMARK UNBOUND:                -0.602
REMARK  Name = 
REMARK  6 active torsions:
REMARK  status: ('A' for Active; 'I' for Inactive)
REMARK    1  A    between atoms: C_2  and  C_3
REMARK    2  A    between atoms: C_7  and  C_8
REMARK    3  A    between atoms: C_8  and  C_9
REMARK    4  A    between atoms: C_9  and  C_10
REMARK    5  A    between atoms: C_14  and  C_15
REMARK    6  A    between atoms: C_15  and  N_16
REMARK                            x       y       z     vdW  Elec       q    Type
REMARK                         _______ _______ _______ _____ _____    ______ ____
ROOT
ATOM      1  C   UNL     1      44.916   5.042   9.470  0.00  0.00    +0.000 C 
ENDROOT
BRANCH   1   2
ATOM      2  C   UNL     1      45.404   3.783   8.786  0.00  0.00    +0.000 A 
ATOM      3  C   UNL     1      45.151   2.516   9.328  0.00  0.00    +0.000 A 
ATOM      4  C   UNL     1      45.632   1.369   8.689  0.00  0.00    +0.000 A 
ATOM      5  C   UNL     1      46.385   1.483   7.523  0.00  0.00    +0.000 A 
ATOM      6  C   UNL     1      46.667   2.740   6.971  0.00  0.00    +0.000 A 
ATOM      7  C   UNL     1      46.153   3.883   7.602  0.00  0.00    +0.000 A 
BRANCH   6   8
ATOM      8  C   UNL     1      47.511   2.856   5.728  0.00  0.00    +0.000 C 
BRANCH   8   9
ATOM      9  N   UNL     1      48.537   1.820   5.678  0.00  0.00    +0.000 NA
ATOM     10  H   UNL     1      49.373   2.208   5.245  0.00  0.00    +0.000 HD
ATOM     11  H   UNL     1      48.220   1.066   5.074  0.00  0.00    +0.000 HD
ENDBRANCH   8   9
ENDBRANCH   6   8
ENDBRANCH   1   2
BRANCH   1  12
ATOM     12  C   UNL     1      45.156   5.006  10.986  0.00  0.00    +0.000 C 
BRANCH  12  17
ATOM     13  C   UNL     1      47.625   7.592  11.946  0.00  0.00    +0.000 A 
ATOM     14  C   UNL     1      46.908   8.481  12.728  0.00  0.00    +0.000 A 
ATOM     15  C   UNL     1      45.546   8.254  12.887  0.00  0.00    +0.000 A 
ATOM     16  C   UNL     1      44.964   7.143  12.282  0.00  0.00    +0.000 A 
ATOM     17  C   UNL     1      45.768   6.271  11.548  0.00  0.00    +0.000 A 
ATOM     18  N   UNL     1      47.093   6.494  11.365  0.00  0.00    +0.000 NA
BRANCH  13  20
ATOM     19  C   UNL     1      50.187   7.980  11.493  0.00  0.00    +0.000 C 
ATOM     20  C   UNL     1      49.016   7.808  11.678  0.00  0.00    +0.000 C 
ENDBRANCH  13  20
ENDBRANCH  12  17
ENDBRANCH   1  12
TORSDOF 6
ENDMDL
MODEL 5
REMARK VINA RESULT:    -5.750      1.983      2.745
REMARK INTER + INTRA:          -8.201
REMARK INTER:                  -7.659
REMARK INTRA:                  -0.542
REMARK UNBOUND:                -0.602
REMARK  Name = 
REMARK  6 active torsions:
REMARK  status: ('A' for Active; 'I' for Inactive)
REMARK    1  A    between atoms: C_2  and  C_3
REMARK    2  A    between atoms: C_7  and  C_8
REMARK    3  A    between atoms: C_8  and  C_9
REMARK    4  A    between atoms: C_9  and  C_10
REMARK    5  A    between atoms: C_14  and  C_15
REMARK    6  A    between atoms: C_15  and  N_16
REMARK                            x       y       z     vdW  Elec       q    Type
REMARK                         _______ _______ _______ _____ _____    ______ ____
ROOT
ATOM      1  C   UNL     1      45.216   6.200  11.022  0.00  0.00    +0.000 C 
ENDROOT
BRANCH   1   2
ATOM      2  C   UNL     1      44.996   4.875  10.323  0.00  0.00    +0.000 A 
ATOM      3  C   UNL     1      44.322   3.822  10.955  0.00  0.00    +0.000 A 
ATOM      4  C   UNL     1      44.152   2.599  10.297  0.00  0.00    +0.000 A 
ATOM      5  C   UNL     1      44.674   2.417   9.018  0.00  0.00    +0.000 A 
ATOM      6  C   UNL     1      45.369   3.449   8.373  0.00  0.00    +0.000 A 
ATOM      7  C   UNL     1      45.506   4.682   9.029  0.00  0.00    +0.000 A 
BRANCH   6   8
ATOM      8  C   UNL     1      45.959   3.231   7.004  0.00  0.00    +0.000 C 
BRANCH   8   9
ATOM      9  N   UNL     1      46.970   4.235   6.689  0.00  0.00    +0.000 NA
ATOM     10  H   UNL     1      47.597   3.857   5.980  0.00  0.00    +0.000 HD
ATOM     11  H   UNL     1      47.536   4.409   7.515  0.00  0.00    +0.000 HD
ENDBRANCH   8   9
ENDBRANCH   6   8
ENDBRANCH   1   2
BRANCH   1  12
ATOM     12  C   UNL     1      45.671   6.017  12.476  0.00  0.00    +0.000 C 
BRANCH  12  17
ATOM     13  C   UNL     1      48.797   6.915  14.246  0.00  0.00    +0.000 A 
ATOM     14  C   UNL     1      49.513   7.661  13.325  0.00  0.00    +0.000 A 
ATOM     15  C   UNL     1      48.974   7.815  12.053  0.00  0.00    +0.000 A 
ATOM     16  C   UNL     1      47.740   7.241  11.762  0.00  0.00    +0.000 A 
ATOM     17  C   UNL     1      47.062   6.543  12.762  0.00  0.00    +0.000 A 
ATOM     18  N   UNL     1      47.587   6.366  13.999  0.00  0.00    +0.000 NA
BRANCH  13  20
ATOM     19  C   UNL     1      49.750   6.465  16.656  0.00  0.00    +0.000 C 
ATOM     20  C   UNL     1      49.329   6.655  15.550  0.00  0.00    +0.000 C 
ENDBRANCH  13  20
ENDBRANCH  12  17
ENDBRANCH   1  12
TORSDOF 6
ENDMDL
MODEL 6
REMARK VINA RESULT:    -5.711      3.520      5.894
REMARK INTER + INTRA:          -8.150
REMARK INTER:                  -7.748
REMARK INTRA:                  -0.402
REMARK UNBOUND:                -0.602
REMARK  Name = 
REMARK  6 active torsions:
REMARK  status: ('A' for Active; 'I' for Inactive)
REMARK    1  A    between atoms: C_2  and  C_3
REMARK    2  A    between atoms: C_7  and  C_8
REMARK    3  A    between atoms: C_8  and  C_9
REMARK    4  A    between atoms: C_9  and  C_10
REMARK    5  A    between atoms: C_14  and  C_15
REMARK    6  A    between atoms: C_15  and  N_16
REMARK                            x       y       z     vdW  Elec       q    Type
REMARK                         _______ _______ _______ _____ _____    ______ ____
ROOT
ATOM      1  C   UNL     1      46.945   5.107  14.059  0.00  0.00    +0.000 C 
ENDROOT
BRANCH   1   2
ATOM      2  C   UNL     1      45.886   5.203  12.981  0.00  0.00    +0.000 A 
ATOM      3  C   UNL     1      45.326   6.434  12.618  0.00  0.00    +0.000 A 
ATOM      4  C   UNL     1      44.332   6.494  11.636  0.00  0.00    +0.000 A 
ATOM      5  C   UNL     1      43.879   5.324  11.031  0.00  0.00    +0.000 A 
ATOM      6  C   UNL     1      44.410   4.078  11.389  0.00  0.00    +0.000 A 
ATOM      7  C   UNL     1      45.429   4.032  12.353  0.00  0.00    +0.000 A 
BRANCH   6   8
ATOM      8  C   UNL     1      43.890   2.815  10.753  0.00  0.00    +0.000 C 
BRANCH   8   9
ATOM      9  N   UNL     1      42.988   2.096  11.648  0.00  0.00    +0.000 NA
ATOM     10  H   UNL     1      43.540   1.655  12.382  0.00  0.00    +0.000 HD
ATOM     11  H   UNL     1      42.536   1.346  11.133  0.00  0.00    +0.000 HD
ENDBRANCH   8   9
ENDBRANCH   6   8
ENDBRANCH   1   2
BRANCH   1  12
ATOM     12  C   UNL     1      46.987   3.716  14.705  0.00  0.00    +0.000 C 
BRANCH  12  17
ATOM     13  C   UNL     1      49.401   2.774  17.350  0.00  0.00    +0.000 A 
ATOM     14  C   UNL     1      48.958   3.447  18.476  0.00  0.00    +0.000 A 
ATOM     15  C   UNL     1      47.865   4.294  18.340  0.00  0.00    +0.000 A 
ATOM     16  C   UNL     1      47.248   4.416  17.098  0.00  0.00    +0.000 A 
ATOM     17  C   UNL     1      47.728   3.666  16.024  0.00  0.00    +0.000 A 
ATOM     18  N   UNL     1      48.808   2.855  16.138  0.00  0.00    +0.000 NA
BRANCH  13  20
ATOM     19  C   UNL     1      51.564   1.279  17.435  0.00  0.00    +0.000 C 
ATOM     20  C   UNL     1      50.566   1.943  17.403  0.00  0.00    +0.000 C 
ENDBRANCH  13  20
ENDBRANCH  12  17
ENDBRANCH   1  12
TORSDOF 6
ENDMDL
MODEL 7
REMARK VINA RESULT:    -5.575      2.524      4.489
REMARK INTER + INTRA:          -7.969
REMARK INTER:                  -7.470
REMARK INTRA:                  -0.500
REMARK UNBOUND:                -0.602
REMARK  Name = 
REMARK  6 active torsions:
REMARK  status: ('A' for Active; 'I' for Inactive)
REMARK    1  A    between atoms: C_2  and  C_3
REMARK    2  A    between atoms: C_7  and  C_8
REMARK    3  A    between atoms: C_8  and  C_9
REMARK    4  A    between atoms: C_9  and  C_10
REMARK    5  A    between atoms: C_14  and  C_15
REMARK    6  A    between atoms: C_15  and  N_16
REMARK                            x       y       z     vdW  Elec       q    Type
REMARK                         _______ _______ _______ _____ _____    ______ ____
ROOT
ATOM      1  C   UNL     1      46.315   7.120  12.554  0.00  0.00    +0.000 C 
ENDROOT
BRANCH   1   2
ATOM      2  C   UNL     1      45.245   6.159  12.083  0.00  0.00    +0.000 A 
ATOM      3  C   UNL     1      44.192   5.773  12.923  0.00  0.00    +0.000 A 
ATOM      4  C   UNL     1      43.229   4.864  12.473  0.00  0.00    +0.000 A 
ATOM      5  C   UNL     1      43.326   4.322  11.193  0.00  0.00    +0.000 A 
ATOM      6  C   UNL     1      44.380   4.678  10.341  0.00  0.00    +0.000 A 
ATOM      7  C   UNL     1      45.323   5.614  10.790  0.00  0.00    +0.000 A 
BRANCH   6   8
ATOM      8  C   UNL     1      44.495   4.060   8.971  0.00  0.00    +0.000 C 
BRANCH   8   9
ATOM      9  N   UNL     1      45.528   4.713   8.173  0.00  0.00    +0.000 NA
ATOM     10  H   UNL     1      45.426   5.722   8.269  0.00  0.00    +0.000 HD
ATOM     11  H   UNL     1      45.377   4.497   7.192  0.00  0.00    +0.000 HD
ENDBRANCH   8   9
ENDBRANCH   6   8
ENDBRANCH   1   2
BRANCH   1  12
ATOM     12  C   UNL     1      47.676   6.432  12.722  0.00  0.00    +0.000 C 
BRANCH  12  17
ATOM     13  C   UNL     1      48.045   5.139  16.172  0.00  0.00    +0.000 A 
ATOM     14  C   UNL     1      48.789   6.107  16.825  0.00  0.00    +0.000 A 
ATOM     15  C   UNL     1      49.242   7.191  16.082  0.00  0.00    +0.000 A 
ATOM     16  C   UNL     1      48.916   7.275  14.732  0.00  0.00    +0.000 A 
ATOM     17  C   UNL     1      48.122   6.280  14.161  0.00  0.00    +0.000 A 
ATOM     18  N   UNL     1      47.694   5.206  14.868  0.00  0.00    +0.000 NA
BRANCH  13  20
ATOM     19  C   UNL     1      47.286   2.961  17.435  0.00  0.00    +0.000 C 
ATOM     20  C   UNL     1      47.611   3.960  16.858  0.00  0.00    +0.000 C 
ENDBRANCH  13  20
ENDBRANCH  12  17
ENDBRANCH   1  12
TORSDOF 6
ENDMDL
MODEL 8
REMARK VINA RESULT:    -5.543      2.434      3.641
REMARK INTER + INTRA:          -7.927
REMARK INTER:                  -7.474
REMARK INTRA:                  -0.454
REMARK UNBOUND:                -0.602
REMARK  Name = 
REMARK  6 active torsions:
REMARK  status: ('A' for Active; 'I' for Inactive)
REMARK    1  A    between atoms: C_2  and  C_3
REMARK    2  A    between atoms: C_7  and  C_8
REMARK    3  A    between atoms: C_8  and  C_9
REMARK    4  A    between atoms: C_9  and  C_10
REMARK    5  A    between atoms: C_14  and  C_15
REMARK    6  A    between atoms: C_15  and  N_16
REMARK                            x       y       z     vdW  Elec       q    Type
REMARK                         _______ _______ _______ _____ _____    ______ ____
ROOT
ATOM      1  C   UNL     1      44.900   6.133  11.097  0.00  0.00    +0.000 C 
ENDROOT
BRANCH   1   2
ATOM      2  C   UNL     1      44.792   4.800  10.389  0.00  0.00    +0.000 A 
ATOM      3  C   UNL     1      44.149   3.708  10.987  0.00  0.00    +0.000 A 
ATOM      4  C   UNL     1      44.083   2.479  10.323  0.00  0.00    +0.000 A 
ATOM      5  C   UNL     1      44.676   2.330   9.071  0.00  0.00    +0.000 A 
ATOM      6  C   UNL     1      45.341   3.401   8.460  0.00  0.00    +0.000 A 
ATOM      7  C   UNL     1      45.374   4.639   9.121  0.00  0.00    +0.000 A 
BRANCH   6   8
ATOM      8  C   UNL     1      46.009   3.221   7.122  0.00  0.00    +0.000 C 
BRANCH   8   9
ATOM      9  N   UNL     1      46.932   4.313   6.831  0.00  0.00    +0.000 NA
ATOM     10  H   UNL     1      47.358   4.622   7.703  0.00  0.00    +0.000 HD
ATOM     11  H   UNL     1      46.407   5.104   6.467  0.00  0.00    +0.000 HD
ENDBRANCH   8   9
ENDBRANCH   6   8
ENDBRANCH   1   2
BRANCH   1  12
ATOM     12  C   UNL     1      46.071   6.167  12.088  0.00  0.00    +0.000 C 
BRANCH  12  17
ATOM     13  C   UNL     1      49.028   8.358  11.680  0.00  0.00    +0.000 A 
ATOM     14  C   UNL     1      48.556   9.630  11.953  0.00  0.00    +0.000 A 
ATOM     15  C   UNL     1      47.198   9.777  12.214  0.00  0.00    +0.000 A 
ATOM     16  C   UNL     1      46.378   8.653  12.215  0.00  0.00    +0.000 A 
ATOM     17  C   UNL     1      46.943   7.400  11.976  0.00  0.00    +0.000 A 
ATOM     18  N   UNL     1      48.261   7.245  11.696  0.00  0.00    +0.000 NA
BRANCH  13  20
ATOM     19  C   UNL     1      51.559   7.978  11.072  0.00  0.00    +0.000 C 
ATOM     20  C   UNL     1      50.400   8.145  11.329  0.00  0.00    +0.000 C 
ENDBRANCH  13  20
ENDBRANCH  12  17
ENDBRANCH   1  12
TORSDOF 6
ENDMDL
MODEL 9
REMARK VINA RESULT:    -5.425      2.599      7.045
REMARK INTER + INTRA:          -7.771
REMARK INTER:                  -7.263
REMARK INTRA:                  -0.508
REMARK UNBOUND:                -0.602
REMARK  Name = 
REMARK  6 active torsions:
REMARK  status: ('A' for Active; 'I' for Inactive)
REMARK    1  A    between atoms: C_2  and  C_3
REMARK    2  A    between atoms: C_7  and  C_8
REMARK    3  A    between atoms: C_8  and  C_9
REMARK    4  A    between atoms: C_9  and  C_10
REMARK    5  A    between atoms: C_14  and  C_15
REMARK    6  A    between atoms: C_15  and  N_16
REMARK                            x       y       z     vdW  Elec       q    Type
REMARK                         _______ _______ _______ _____ _____    ______ ____
ROOT
ATOM      1  C   UNL     1      46.437   6.283  13.068  0.00  0.00    +0.000 C 
ENDROOT
BRANCH   1   2
ATOM      2  C   UNL     1      46.805   7.667  12.579  0.00  0.00    +0.000 A 
ATOM      3  C   UNL     1      48.140   8.034  12.370  0.00  0.00    +0.000 A 
ATOM      4  C   UNL     1      48.456   9.328  11.941  0.00  0.00    +0.000 A 
ATOM      5  C   UNL     1      47.443  10.263  11.741  0.00  0.00    +0.000 A 
ATOM      6  C   UNL     1      46.101   9.925  11.961  0.00  0.00    +0.000 A 
ATOM      7  C   UNL     1      45.792   8.616  12.361  0.00  0.00    +0.000 A 
BRANCH   6   8
ATOM      8  C   UNL     1      45.016  10.954  11.775  0.00  0.00    +0.000 C 
BRANCH   8   9
ATOM      9  N   UNL     1      43.708  10.428  12.153  0.00  0.00    +0.000 NA
ATOM     10  H   UNL     1      42.989  11.059  11.804  0.00  0.00    +0.000 HD
ATOM     11  H   UNL     1      43.628  10.429  13.167  0.00  0.00    +0.000 HD
ENDBRANCH   8   9
ENDBRANCH   6   8
ENDBRANCH   1   2
BRANCH   1  12
ATOM     12  C   UNL     1      44.945   5.980  12.876  0.00  0.00    +0.000 C 
BRANCH  12  17
ATOM     13  C   UNL     1      44.855   3.752   9.919  0.00  0.00    +0.000 A 
ATOM     14  C   UNL     1      43.997   2.729  10.284  0.00  0.00    +0.000 A 
ATOM     15  C   UNL     1      43.484   2.740  11.576  0.00  0.00    +0.000 A 
ATOM     16  C   UNL     1      43.829   3.778  12.437  0.00  0.00    +0.000 A 
ATOM     17  C   UNL     1      44.663   4.796  11.975  0.00  0.00    +0.000 A 
ATOM     18  N   UNL     1      45.189   4.784  10.726  0.00  0.00    +0.000 NA
BRANCH  13  20
ATOM     19  C   UNL     1      45.971   3.796   7.538  0.00  0.00    +0.000 C 
ATOM     20  C   UNL     1      45.477   3.762   8.630  0.00  0.00    +0.000 C 
ENDBRANCH  13  20
ENDBRANCH  12  17
ENDBRANCH   1  12
TORSDOF 6
ENDMDL
