MODEL 1
REMARK VINA RESULT:    -6.206      0.000      0.000
REMARK INTER + INTRA:          -8.193
REMARK INTER:                  -7.838
REMARK INTRA:                  -0.355
REMARK UNBOUND:                -0.355
REMARK  Name = 
REMARK  6 active torsions:
REMARK  status: ('A' for Active; 'I' for Inactive)
REMARK    1  A    between atoms: C_1  and  O_2
REMARK    2  A    between atoms: O_2  and  C_3
REMARK    3  A    between atoms: C_5  and  C_6
REMARK    4  A    between atoms: C_7  and  C_8
REMARK    5  A    between atoms: C_11  and  C_12
REMARK    6  A    between atoms: C_19  and  O_20
REMARK                            x       y       z     vdW  Elec       q    Type
REMARK                         _______ _______ _______ _____ _____    ______ ____
ROOT
ATOM      1  C   UNL     1      45.880   4.220  13.937  0.00  0.00    +0.000 C 
ATOM      2  C   UNL     1      47.000   4.835  14.355  0.00  0.00    +0.000 C 
ENDROOT
BRANCH   1   5
ATOM      3  C   UNL     1      44.610   3.260  10.481  0.00  0.00    +0.000 A 
ATOM      4  C   UNL     1      45.143   3.159  11.773  0.00  0.00    +0.000 A 
ATOM      5  C   UNL     1      45.343   4.299  12.567  0.00  0.00    +0.000 A 
ATOM      6  C   UNL     1      44.962   5.549  12.062  0.00  0.00    +0.000 A 
ATOM      7  C   UNL     1      44.428   5.666  10.777  0.00  0.00    +0.000 A 
ATOM      8  C   UNL     1      44.260   4.525   9.993  0.00  0.00    +0.000 A 
BRANCH   3  10
ATOM      9  C   UNL     1      45.476   1.787   8.820  0.00  0.00    +0.000 C 
ATOM     10  O   UNL     1      44.393   2.199   9.641  0.00  0.00    +0.000 OA
ENDBRANCH   3  10
BRANCH   8  11
ATOM     11  O   UNL     1      43.743   4.637   8.731  0.00  0.00    +0.000 OA
ATOM     12  H   UNL     1      44.370   4.263   8.094  0.00  0.00    +0.000 HD
ENDBRANCH   8  11
ENDBRANCH   1   5
BRANCH   2  13
ATOM     13  C   UNL     1      47.535   4.744  15.724  0.00  0.00    +0.000 A 
ATOM     14  C   UNL     1      47.247   3.679  16.581  0.00  0.00    +0.000 A 
ATOM     15  C   UNL     1      47.815   3.632  17.853  0.00  0.00    +0.000 A 
ATOM     16  C   UNL     1      48.675   4.654  18.230  0.00  0.00    +0.000 A 
ATOM     17  N   UNL     1      49.001   5.704  17.426  0.00  0.00    +0.000 NA
ATOM     18  C   UNL     1      48.423   5.713  16.198  0.00  0.00    +0.000 A 
BRANCH  16  19
ATOM     19  C   UNL     1      49.304   4.620  19.588  0.00  0.00    +0.000 C 
ATOM     20  N   UNL     1      48.626   3.907  20.538  0.00  0.00    +0.000 N 
ATOM     21  O   UNL     1      50.358   5.193  19.843  0.00  0.00    +0.000 OA
ATOM     22  H   UNL     1      47.756   3.450  20.294  0.00  0.00    +0.000 HD
ATOM     23  H   UNL     1      48.995   3.849  21.476  0.00  0.00    +0.000 HD
ENDBRANCH  16  19
ENDBRANCH   2  13
TORSDOF 5
ENDMDL
MODEL 2
REMARK VINA RESULT:    -5.755      5.016      6.084
REMARK INTER + INTRA:          -7.624
REMARK INTER:                  -7.244
REMARK INTRA:                  -0.380
REMARK UNBOUND:                -0.355
REMARK  Name = 
REMARK  6 active torsions:
REMARK  status: ('A' for Active; 'I' for Inactive)
REMARK    1  A    between atoms: C_1  and  O_2
REMARK    2  A    between atoms: O_2  and  C_3
REMARK    3  A    between atoms: C_5  and  C_6
REMARK    4  A    between atoms: C_7  and  C_8
REMARK    5  A    between atoms: C_11  and  C_12
REMARK    6  A    between atoms: C_19  and  O_20
REMARK                            x       y       z     vdW  Elec       q    Type
REMARK                         _______ _______ _______ _____ _____    ______ ____
ROOT
ATOM      1  C   UNL     1      45.947   6.600  11.407  0.00  0.00    +0.000 C 
ATOM      2  C   UNL     1      47.067   6.808  12.121  0.00  0.00    +0.000 C 
ENDROOT
BRANCH   1   5
ATOM      3  C   UNL     1      44.321   3.281  10.506  0.00  0.00    +0.000 A 
ATOM      4  C   UNL     1      45.087   4.449  10.413  0.00  0.00    +0.000 A 
ATOM      5  C   UNL     1      45.131   5.375  11.469  0.00  0.00    +0.000 A 
ATOM      6  C   UNL     1      44.424   5.092  12.645  0.00  0.00    +0.000 A 
ATOM      7  C   UNL     1      43.657   3.930  12.752  0.00  0.00    +0.000 A 
ATOM      8  C   UNL     1      43.604   3.036  11.684  0.00  0.00    +0.000 A 
BRANCH   3  10
ATOM      9  C   UNL     1      45.393   2.029   8.785  0.00  0.00    +0.000 C 
ATOM     10  O   UNL     1      44.217   2.335   9.520  0.00  0.00    +0.000 OA
ENDBRANCH   3  10
BRANCH   8  11
ATOM     11  O   UNL     1      42.848   1.900  11.785  0.00  0.00    +0.000 OA
ATOM     12  H   UNL     1      41.925   2.144  11.956  0.00  0.00    +0.000 HD
ENDBRANCH   8  11
ENDBRANCH   1   5
BRANCH   2  13
ATOM     13  C   UNL     1      47.873   8.038  12.061  0.00  0.00    +0.000 A 
ATOM     14  C   UNL     1      49.212   8.049  11.659  0.00  0.00    +0.000 A 
ATOM     15  C   UNL     1      49.910   9.254  11.588  0.00  0.00    +0.000 A 
ATOM     16  C   UNL     1      49.239  10.426  11.909  0.00  0.00    +0.000 A 
ATOM     17  N   UNL     1      47.932  10.470  12.289  0.00  0.00    +0.000 NA
ATOM     18  C   UNL     1      47.290   9.276  12.349  0.00  0.00    +0.000 A 
BRANCH  16  19
ATOM     19  C   UNL     1      49.967  11.732  11.830  0.00  0.00    +0.000 C 
ATOM     20  N   UNL     1      50.416  12.088  10.588  0.00  0.00    +0.000 N 
ATOM     21  O   UNL     1      50.156  12.443  12.811  0.00  0.00    +0.000 OA
ATOM     22  H   UNL     1      50.246  11.475   9.801  0.00  0.00    +0.000 HD
ATOM     23  H   UNL     1      50.918  12.955  10.469  0.00  0.00    +0.000 HD
ENDBRANCH  16  19
ENDBRANCH   2  13
TORSDOF 5
ENDMDL
MODEL 3
REMARK VINA RESULT:    -5.536      3.084      8.757
REMARK INTER + INTRA:          -7.348
REMARK INTER:                  -6.966
REMARK INTRA:                  -0.382
REMARK UNBOUND:                -0.355
REMARK  Name = 
REMARK  6 active torsions:
REMARK  status: ('A' for Active; 'I' for Inactive)
REMARK    1  A    between atoms: C_1  and  O_2
REMARK    2  A    between atoms: O_2  and  C_3
REMARK    3  A    between atoms: C_5  and  C_6
REMARK    4  A    between atoms: C_7  and  C_8
REMARK    5  A    between atoms: C_11  and  C_12
REMARK    6  A    between atoms: C_19  and  O_20
REMARK                            x       y       z     vdW  Elec       q    Type
REMARK                         _______ _______ _______ _____ _____    ______ ____
ROOT
ATOM      1  C   UNL     1      47.195   4.298  15.615  0.00  0.00    +0.000 C 
ATOM      2  C   UNL     1      47.283   5.300  14.724  0.00  0.00    +0.000 C 
ENDROOT
BRANCH   1   5
ATOM      3  C   UNL     1      47.803   5.155  19.271  0.00  0.00    +0.000 A 
ATOM      4  C   UNL     1      47.254   5.159  17.982  0.00  0.00    +0.000 A 
ATOM      5  C   UNL     1      47.768   4.331  16.972  0.00  0.00    +0.000 A 
ATOM      6  C   UNL     1      48.822   3.462  17.282  0.00  0.00    +0.000 A 
ATOM      7  C   UNL     1      49.380   3.446  18.563  0.00  0.00    +0.000 A 
ATOM      8  C   UNL     1      48.873   4.294  19.546  0.00  0.00    +0.000 A 
BRANCH   3  10
ATOM      9  C   UNL     1      47.689   7.320  20.261  0.00  0.00    +0.000 C 
ATOM     10  O   UNL     1      47.367   5.937  20.308  0.00  0.00    +0.000 OA
ENDBRANCH   3  10
BRANCH   8  11
ATOM     11  O   UNL     1      49.421   4.285  20.800  0.00  0.00    +0.000 OA
ATOM     12  H   UNL     1      48.719   4.407  21.457  0.00  0.00    +0.000 HD
ENDBRANCH   8  11
ENDBRANCH   1   5
BRANCH   2  13
ATOM     13  C   UNL     1      46.701   5.263  13.372  0.00  0.00    +0.000 A 
ATOM     14  C   UNL     1      46.922   6.265  12.424  0.00  0.00    +0.000 A 
ATOM     15  C   UNL     1      46.372   6.153  11.147  0.00  0.00    +0.000 A 
ATOM     16  C   UNL     1      45.621   5.024  10.849  0.00  0.00    +0.000 A 
ATOM     17  N   UNL     1      45.390   4.014  11.732  0.00  0.00    +0.000 NA
ATOM     18  C   UNL     1      45.940   4.163  12.964  0.00  0.00    +0.000 A 
BRANCH  16  19
ATOM     19  C   UNL     1      45.028   4.879   9.482  0.00  0.00    +0.000 C 
ATOM     20  N   UNL     1      43.687   4.609   9.442  0.00  0.00    +0.000 N 
ATOM     21  O   UNL     1      45.692   4.991   8.458  0.00  0.00    +0.000 OA
ATOM     22  H   UNL     1      43.169   4.519  10.307  0.00  0.00    +0.000 HD
ATOM     23  H   UNL     1      43.228   4.495   8.550  0.00  0.00    +0.000 HD
ENDBRANCH  16  19
ENDBRANCH   2  13
TORSDOF 5
ENDMDL
MODEL 4
REMARK VINA RESULT:    -5.274      4.511      5.447
REMARK INTER + INTRA:          -7.016
REMARK INTER:                  -6.596
REMARK INTRA:                  -0.420
REMARK UNBOUND:                -0.355
REMARK  Name = 
REMARK  6 active torsions:
REMARK  status: ('A' for Active; 'I' for Inactive)
REMARK    1  A    between atoms: C_1  and  O_2
REMARK    2  A    between atoms: O_2  and  C_3
REMARK    3  A    between atoms: C_5  and  C_6
REMARK    4  A    between atoms: C_7  and  C_8
REMARK    5  A    between atoms: C_11  and  C_12
REMARK    6  A    between atoms: C_19  and  O_20
REMARK                            x       y       z     vdW  Elec       q    Type
REMARK                         _______ _______ _______ _____ _____    ______ ____
ROOT
ATOM      1  C   UNL     1      46.024   6.660  11.334  0.00  0.00    +0.000 C 
ATOM      2  C   UNL     1      47.256   6.843  11.841  0.00  0.00    +0.000 C 
ENDROOT
BRANCH   1   5
ATOM      3  C   UNL     1      45.012   3.813   9.022  0.00  0.00    +0.000 A 
ATOM      4  C   UNL     1      45.488   5.052   9.469  0.00  0.00    +0.000 A 
ATOM      5  C   UNL     1      45.507   5.373  10.836  0.00  0.00    +0.000 A 
ATOM      6  C   UNL     1      45.078   4.413  11.761  0.00  0.00    +0.000 A 
ATOM      7  C   UNL     1      44.602   3.172  11.331  0.00  0.00    +0.000 A 
ATOM      8  C   UNL     1      44.566   2.881   9.968  0.00  0.00    +0.000 A 
BRANCH   3  10
ATOM      9  C   UNL     1      46.173   3.377   6.988  0.00  0.00    +0.000 C 
ATOM     10  O   UNL     1      44.951   3.427   7.709  0.00  0.00    +0.000 OA
ENDBRANCH   3  10
BRANCH   8  11
ATOM     11  O   UNL     1      44.094   1.669   9.544  0.00  0.00    +0.000 OA
ATOM     12  H   UNL     1      43.885   1.119  10.314  0.00  0.00    +0.000 HD
ENDBRANCH   8  11
ENDBRANCH   1   5
BRANCH   2  13
ATOM     13  C   UNL     1      47.763   8.130  12.345  0.00  0.00    +0.000 A 
ATOM     14  C   UNL     1      47.133   9.349  12.081  0.00  0.00    +0.000 A 
ATOM     15  C   UNL     1      47.643  10.530  12.619  0.00  0.00    +0.000 A 
ATOM     16  C   UNL     1      48.769  10.455  13.427  0.00  0.00    +0.000 A 
ATOM     17  N   UNL     1      49.409   9.291  13.728  0.00  0.00    +0.000 NA
ATOM     18  C   UNL     1      48.883   8.166  13.181  0.00  0.00    +0.000 A 
BRANCH  16  19
ATOM     19  C   UNL     1      49.328  11.710  14.022  0.00  0.00    +0.000 C 
ATOM     20  N   UNL     1      48.417  12.687  14.311  0.00  0.00    +0.000 N 
ATOM     21  O   UNL     1      50.525  11.862  14.240  0.00  0.00    +0.000 OA
ATOM     22  H   UNL     1      47.436  12.530  14.115  0.00  0.00    +0.000 HD
ATOM     23  H   UNL     1      48.731  13.560  14.711  0.00  0.00    +0.000 HD
ENDBRANCH  16  19
ENDBRANCH   2  13
TORSDOF 5
ENDMDL
MODEL 5
REMARK VINA RESULT:    -5.251      1.452      2.490
REMARK INTER + INTRA:          -6.988
REMARK INTER:                  -6.593
REMARK INTRA:                  -0.395
REMARK UNBOUND:                -0.355
REMARK  Name = 
REMARK  6 active torsions:
REMARK  status: ('A' for Active; 'I' for Inactive)
REMARK    1  A    between atoms: C_1  and  O_2
REMARK    2  A    between atoms: O_2  and  C_3
REMARK    3  A    between atoms: C_5  and  C_6
REMARK    4  A    between atoms: C_7  and  C_8
REMARK    5  A    between atoms: C_11  and  C_12
REMARK    6  A    between atoms: C_19  and  O_20
REMARK                            x       y       z     vdW  Elec       q    Type
REMARK                         _______ _______ _______ _____ _____    ______ ____
ROOT
ATOM      1  C   UNL     1      46.868   4.223  14.261  0.00  0.00    +0.000 C 
ATOM      2  C   UNL     1      47.280   5.183  15.108  0.00  0.00    +0.000 C 
ENDROOT
BRANCH   1   5
ATOM      3  C   UNL     1      44.920   5.927  11.473  0.00  0.00    +0.000 A 
ATOM      4  C   UNL     1      45.737   5.738  12.595  0.00  0.00    +0.000 A 
ATOM      5  C   UNL     1      45.994   4.453  13.098  0.00  0.00    +0.000 A 
ATOM      6  C   UNL     1      45.449   3.346  12.433  0.00  0.00    +0.000 A 
ATOM      7  C   UNL     1      44.633   3.519  11.312  0.00  0.00    +0.000 A 
ATOM      8  C   UNL     1      44.369   4.805  10.843  0.00  0.00    +0.000 A 
BRANCH   3  10
ATOM      9  C   UNL     1      45.022   8.302  11.645  0.00  0.00    +0.000 C 
ATOM     10  O   UNL     1      44.614   7.146  10.927  0.00  0.00    +0.000 OA
ENDBRANCH   3  10
BRANCH   8  11
ATOM     11  O   UNL     1      43.565   4.977   9.749  0.00  0.00    +0.000 OA
ATOM     12  H   UNL     1      43.751   4.280   9.101  0.00  0.00    +0.000 HD
ENDBRANCH   8  11
ENDBRANCH   1   5
BRANCH   2  13
ATOM     13  C   UNL     1      48.161   4.947  16.264  0.00  0.00    +0.000 A 
ATOM     14  C   UNL     1      48.317   3.690  16.854  0.00  0.00    +0.000 A 
ATOM     15  C   UNL     1      49.196   3.525  17.924  0.00  0.00    +0.000 A 
ATOM     16  C   UNL     1      49.911   4.630  18.367  0.00  0.00    +0.000 A 
ATOM     17  N   UNL     1      49.807   5.870  17.815  0.00  0.00    +0.000 NA
ATOM     18  C   UNL     1      48.939   5.989  16.779  0.00  0.00    +0.000 A 
BRANCH  16  19
ATOM     19  C   UNL     1      50.867   4.473  19.509  0.00  0.00    +0.000 C 
ATOM     20  N   UNL     1      50.312   4.517  20.758  0.00  0.00    +0.000 N 
ATOM     21  O   UNL     1      52.072   4.318  19.345  0.00  0.00    +0.000 OA
ATOM     22  H   UNL     1      49.313   4.650  20.857  0.00  0.00    +0.000 HD
ATOM     23  H   UNL     1      50.904   4.422  21.570  0.00  0.00    +0.000 HD
ENDBRANCH  16  19
ENDBRANCH   2  13
TORSDOF 5
ENDMDL
MODEL 6
REMARK VINA RESULT:    -5.232      5.999      7.894
REMARK INTER + INTRA:          -6.964
REMARK INTER:                  -6.568
REMARK INTRA:                  -0.396
REMARK UNBOUND:                -0.355
REMARK  Name = 
REMARK  6 active torsions:
REMARK  status: ('A' for Active; 'I' for Inactive)
REMARK    1  A    between atoms: C_1  and  O_2
REMARK    2  A    between atoms: O_2  and  C_3
REMARK    3  A    between atoms: C_5  and  C_6
REMARK    4  A    between atoms: C_7  and  C_8
REMARK    5  A    between atoms: C_11  and  C_12
REMARK    6  A    between atoms: C_19  and  O_20
REMARK                            x       y       z     vdW  Elec       q    Type
REMARK                         _______ _______ _______ _____ _____    ______ ____
ROOT
ATOM      1  C   UNL     1      49.054   7.634  11.519  0.00  0.00    +0.000 C 
ATOM      2  C   UNL     1      48.655   6.862  12.544  0.00  0.00    +0.000 C 
ENDROOT
BRANCH   1   5
ATOM      3  C   UNL     1      52.711   8.337  10.737  0.00  0.00    +0.000 A 
ATOM      4  C   UNL     1      51.478   7.679  10.828  0.00  0.00    +0.000 A 
ATOM      5  C   UNL     1      50.369   8.294  11.431  0.00  0.00    +0.000 A 
ATOM      6  C   UNL     1      50.501   9.604  11.910  0.00  0.00    +0.000 A 
ATOM      7  C   UNL     1      51.725  10.273  11.825  0.00  0.00    +0.000 A 
ATOM      8  C   UNL     1      52.821   9.637  11.246  0.00  0.00    +0.000 A 
BRANCH   3  10
ATOM      9  C   UNL     1      53.811   6.423   9.839  0.00  0.00    +0.000 C 
ATOM     10  O   UNL     1      53.840   7.803  10.173  0.00  0.00    +0.000 OA
ENDBRANCH   3  10
BRANCH   8  11
ATOM     11  O   UNL     1      54.022  10.287  11.168  0.00  0.00    +0.000 OA
ATOM     12  H   UNL     1      54.741   9.649  11.293  0.00  0.00    +0.000 HD
ENDBRANCH   8  11
ENDBRANCH   1   5
BRANCH   2  13
ATOM     13  C   UNL     1      47.343   6.199  12.621  0.00  0.00    +0.000 A 
ATOM     14  C   UNL     1      46.343   6.383  11.663  0.00  0.00    +0.000 A 
ATOM     15  C   UNL     1      45.134   5.697  11.774  0.00  0.00    +0.000 A 
ATOM     16  C   UNL     1      44.965   4.826  12.841  0.00  0.00    +0.000 A 
ATOM     17  N   UNL     1      45.914   4.599  13.791  0.00  0.00    +0.000 NA
ATOM     18  C   UNL     1      47.073   5.289  13.649  0.00  0.00    +0.000 A 
BRANCH  16  19
ATOM     19  C   UNL     1      43.678   4.072  12.975  0.00  0.00    +0.000 C 
ATOM     20  N   UNL     1      43.733   2.742  12.661  0.00  0.00    +0.000 N 
ATOM     21  O   UNL     1      42.635   4.605  13.339  0.00  0.00    +0.000 OA
ATOM     22  H   UNL     1      44.610   2.336  12.360  0.00  0.00    +0.000 HD
ATOM     23  H   UNL     1      42.898   2.179  12.727  0.00  0.00    +0.000 HD
ENDBRANCH  16  19
ENDBRANCH   2  13
TORSDOF 5
ENDMDL
MODEL 7
REMARK VINA RESULT:    -5.023      5.536      8.498
REMARK INTER + INTRA:          -6.699
REMARK INTER:                  -6.278
REMARK INTRA:                  -0.421
REMARK UNBOUND:                -0.355
REMARK  Name = 
REMARK  6 active torsions:
REMARK  status: ('A' for Active; 'I' for Inactive)
REMARK    1  A    between atoms: C_1  and  O_2
REMARK    2  A    between atoms: O_2  and  C_3
REMARK    3  A    between atoms: C_5  and  C_6
REMARK    4  A    between atoms: C_7  and  C_8
REMARK    5  A    between atoms: C_11  and  C_12
REMARK    6  A    between atoms: C_19  and  O_20
REMARK                            x       y       z     vdW  Elec       q    Type
REMARK                         _______ _______ _______ _____ _____    ______ ____
ROOT
ATOM      1  C   UNL     1      48.907   7.676  11.496  0.00  0.00    +0.000 C 
ATOM      2  C   UNL     1      48.217   7.088  12.488  0.00  0.00    +0.000 C 
ENDROOT
BRANCH   1   5
ATOM      3  C   UNL     1      51.177  10.481  12.701  0.00  0.00    +0.000 A 
ATOM      4  C   UNL     1      50.040   9.685  12.513  0.00  0.00    +0.000 A 
ATOM      5  C   UNL     1      50.080   8.545  11.693  0.00  0.00    +0.000 A 
ATOM      6  C   UNL     1      51.295   8.187  11.093  0.00  0.00    +0.000 A 
ATOM      7  C   UNL     1      52.437   8.971  11.273  0.00  0.00    +0.000 A 
ATOM      8  C   UNL     1      52.371  10.113  12.069  0.00  0.00    +0.000 A 
BRANCH   3  10
ATOM      9  C   UNL     1      50.816  11.486  14.832  0.00  0.00    +0.000 C 
ATOM     10  O   UNL     1      51.218  11.611  13.475  0.00  0.00    +0.000 OA
ENDBRANCH   3  10
BRANCH   8  11
ATOM     11  O   UNL     1      53.487  10.887  12.242  0.00  0.00    +0.000 OA
ATOM     12  H   UNL     1      53.288  11.600  12.868  0.00  0.00    +0.000 HD
ENDBRANCH   8  11
ENDBRANCH   1   5
BRANCH   2  13
ATOM     13  C   UNL     1      47.050   6.214  12.283  0.00  0.00    +0.000 A 
ATOM     14  C   UNL     1      46.254   6.270  11.136  0.00  0.00    +0.000 A 
ATOM     15  C   UNL     1      45.183   5.389  10.985  0.00  0.00    +0.000 A 
ATOM     16  C   UNL     1      44.948   4.459  11.988  0.00  0.00    +0.000 A 
ATOM     17  N   UNL     1      45.704   4.353  13.116  0.00  0.00    +0.000 NA
ATOM     18  C   UNL     1      46.733   5.231  13.225  0.00  0.00    +0.000 A 
BRANCH  16  19
ATOM     19  C   UNL     1      43.809   3.497  11.843  0.00  0.00    +0.000 C 
ATOM     20  N   UNL     1      43.914   2.339  12.562  0.00  0.00    +0.000 N 
ATOM     21  O   UNL     1      42.841   3.724  11.125  0.00  0.00    +0.000 OA
ATOM     22  H   UNL     1      44.730   2.183  13.142  0.00  0.00    +0.000 HD
ATOM     23  H   UNL     1      43.181   1.647  12.504  0.00  0.00    +0.000 HD
ENDBRANCH  16  19
ENDBRANCH   2  13
TORSDOF 5
ENDMDL
MODEL 8
REMARK VINA RESULT:    -4.970      4.422      8.471
REMARK INTER + INTRA:          -6.633
REMARK INTER:                  -6.258
REMARK INTRA:                  -0.375
REMARK UNBOUND:                -0.355
REMARK  Name = 
REMARK  6 active torsions:
REMARK  status: ('A' for Active; 'I' for Inactive)
REMARK    1  A    between atoms: C_1  and  O_2
REMARK    2  A    between atoms: O_2  and  C_3
REMARK    3  A    between atoms: C_5  and  C_6
REMARK    4  A    between atoms: C_7  and  C_8
REMARK    5  A    between atoms: C_11  and  C_12
REMARK    6  A    between atoms: C_19  and  O_20
REMARK                            x       y       z     vdW  Elec       q    Type
REMARK                         _______ _______ _______ _____ _____    ______ ____
ROOT
ATOM      1  C   UNL     1      48.590   6.882  12.918  0.00  0.00    +0.000 C 
ATOM      2  C   UNL     1      47.256   6.860  13.082  0.00  0.00    +0.000 C 
ENDROOT
BRANCH   1   5
ATOM      3  C   UNL     1      50.137   9.433  15.278  0.00  0.00    +0.000 A 
ATOM      4  C   UNL     1      49.255   8.483  14.746  0.00  0.00    +0.000 A 
ATOM      5  C   UNL     1      49.487   7.900  13.490  0.00  0.00    +0.000 A 
ATOM      6  C   UNL     1      50.646   8.253  12.786  0.00  0.00    +0.000 A 
ATOM      7  C   UNL     1      51.535   9.197  13.304  0.00  0.00    +0.000 A 
ATOM      8  C   UNL     1      51.274   9.785  14.541  0.00  0.00    +0.000 A 
BRANCH   3  10
ATOM      9  C   UNL     1      48.729   9.886  17.147  0.00  0.00    +0.000 C 
ATOM     10  O   UNL     1      49.977  10.054  16.489  0.00  0.00    +0.000 OA
ENDBRANCH   3  10
BRANCH   8  11
ATOM     11  O   UNL     1      52.140  10.715  15.048  0.00  0.00    +0.000 OA
ATOM     12  H   UNL     1      52.640  10.322  15.780  0.00  0.00    +0.000 HD
ENDBRANCH   8  11
ENDBRANCH   1   5
BRANCH   2  13
ATOM     13  C   UNL     1      46.366   5.835  12.514  0.00  0.00    +0.000 A 
ATOM     14  C   UNL     1      45.805   5.941  11.238  0.00  0.00    +0.000 A 
ATOM     15  C   UNL     1      44.999   4.917  10.742  0.00  0.00    +0.000 A 
ATOM     16  C   UNL     1      44.787   3.799  11.538  0.00  0.00    +0.000 A 
ATOM     17  N   UNL     1      45.324   3.641  12.779  0.00  0.00    +0.000 NA
ATOM     18  C   UNL     1      46.099   4.661  13.226  0.00  0.00    +0.000 A 
BRANCH  16  19
ATOM     19  C   UNL     1      43.932   2.684  11.022  0.00  0.00    +0.000 C 
ATOM     20  N   UNL     1      44.342   2.116   9.847  0.00  0.00    +0.000 N 
ATOM     21  O   UNL     1      42.926   2.298  11.606  0.00  0.00    +0.000 OA
ATOM     22  H   UNL     1      45.176   2.461   9.389  0.00  0.00    +0.000 HD
ATOM     23  H   UNL     1      43.806   1.361   9.444  0.00  0.00    +0.000 HD
ENDBRANCH  16  19
ENDBRANCH   2  13
TORSDOF 5
ENDMDL
MODEL 9
REMARK VINA RESULT:    -4.941      2.976      8.627
REMARK INTER + INTRA:          -6.596
REMARK INTER:                  -6.207
REMARK INTRA:                  -0.389
REMARK UNBOUND:                -0.355
REMARK  Name = 
REMARK  6 active torsions:
REMARK  status: ('A' for Active; 'I' for Inactive)
REMARK    1  A    between atoms: C_1  and  O_2
REMARK    2  A    between atoms: O_2  and  C_3
REMARK    3  A    between atoms: C_5  and  C_6
REMARK    4  A    between atoms: C_7  and  C_8
REMARK    5  A    between atoms: C_11  and  C_12
REMARK    6  A    between atoms: C_19  and  O_20
REMARK                            x       y       z     vdW  Elec       q    Type
REMARK                         _______ _______ _______ _____ _____    ______ ____
ROOT
ATOM      1  C   UNL     1      47.616   4.587  16.231  0.00  0.00    +0.000 C 
ATOM      2  C   UNL     1      47.614   5.166  15.019  0.00  0.00    +0.000 C 
ENDROOT
BRANCH   1   5
ATOM      3  C   UNL     1      50.713   5.696  18.142  0.00  0.00    +0.000 A 
ATOM      4  C   UNL     1      49.861   5.348  17.086  0.00  0.00    +0.000 A 
ATOM      5  C   UNL     1      48.540   4.936  17.324  0.00  0.00    +0.000 A 
ATOM      6  C   UNL     1      48.066   4.917  18.642  0.00  0.00    +0.000 A 
ATOM      7  C   UNL     1      48.904   5.262  19.706  0.00  0.00    +0.000 A 
ATOM      8  C   UNL     1      50.220   5.643  19.452  0.00  0.00    +0.000 A 
BRANCH   3  10
ATOM      9  C   UNL     1      52.476   6.341  16.673  0.00  0.00    +0.000 C 
ATOM     10  O   UNL     1      52.015   6.097  17.994  0.00  0.00    +0.000 OA
ENDBRANCH   3  10
BRANCH   8  11
ATOM     11  O   UNL     1      51.044   5.977  20.492  0.00  0.00    +0.000 OA
ATOM     12  H   UNL     1      50.508   6.267  21.245  0.00  0.00    +0.000 HD
ENDBRANCH   8  11
ENDBRANCH   1   5
BRANCH   2  13
ATOM     13  C   UNL     1      46.681   4.818  13.934  0.00  0.00    +0.000 A 
ATOM     14  C   UNL     1      46.545   3.519  13.440  0.00  0.00    +0.000 A 
ATOM     15  C   UNL     1      45.616   3.246  12.436  0.00  0.00    +0.000 A 
ATOM     16  C   UNL     1      44.832   4.289  11.961  0.00  0.00    +0.000 A 
ATOM     17  N   UNL     1      44.915   5.568  12.422  0.00  0.00    +0.000 NA
ATOM     18  C   UNL     1      45.833   5.791  13.395  0.00  0.00    +0.000 A 
BRANCH  16  19
ATOM     19  C   UNL     1      43.822   4.018  10.890  0.00  0.00    +0.000 C 
ATOM     20  N   UNL     1      43.924   4.794   9.768  0.00  0.00    +0.000 N 
ATOM     21  O   UNL     1      42.955   3.159  11.002  0.00  0.00    +0.000 OA
ATOM     22  H   UNL     1      44.650   5.497   9.710  0.00  0.00    +0.000 HD
ATOM     23  H   UNL     1      43.270   4.663   9.010  0.00  0.00    +0.000 HD
ENDBRANCH  16  19
ENDBRANCH   2  13
TORSDOF 5
ENDMDL
