MODEL 1
REMARK VINA RESULT:    -8.241      0.000      0.000
REMARK INTER + INTRA:         -13.008
REMARK INTER:                 -11.613
REMARK INTRA:                  -1.395
REMARK UNBOUND:                -1.395
REMARK  Name = 
REMARK  7 active torsions:
REMARK  status: ('A' for Active; 'I' for Inactive)
REMARK    1  A    between atoms: C_2  and  C_20
REMARK    2  A    between atoms: N_3  and  C_4
REMARK    3  A    between atoms: C_4  and  C_5
REMARK    4  A    between atoms: C_8  and  C_9
REMARK    5  A    between atoms: C_9  and  C_10
REMARK    6  A    between atoms: C_10  and  C_11
REMARK    7  A    between atoms: C_11  and  C_12
REMARK                            x       y       z     vdW  Elec       q    Type
REMARK                         _______ _______ _______ _____ _____    ______ ____
ROOT
ATOM      1  C   UNL     1      47.303   7.721  13.270  0.00  0.00    +0.000 C 
ENDROOT
BRANCH   1   2
ATOM      2  C   UNL     1      46.417   6.741  12.546  0.00  0.00    +0.000 A 
ATOM      3  C   UNL     1      45.447   6.022  13.256  0.00  0.00    +0.000 A 
ATOM      4  C   UNL     1      44.615   5.114  12.601  0.00  0.00    +0.000 A 
ATOM      5  C   UNL     1      44.737   4.903  11.222  0.00  0.00    +0.000 A 
ATOM      6  C   UNL     1      45.726   5.600  10.517  0.00  0.00    +0.000 A 
ATOM      7  C   UNL     1      46.563   6.506  11.174  0.00  0.00    +0.000 A 
BRANCH   5   8
ATOM      8  C   UNL     1      43.842   3.922  10.507  0.00  0.00    +0.000 C 
BRANCH   8   9
ATOM      9  C   UNL     1      44.306   3.548   9.094  0.00  0.00    +0.000 C 
BRANCH   9  10
ATOM     10  C   UNL     1      45.107   2.244   9.034  0.00  0.00    +0.000 C 
BRANCH  10  11
ATOM     11  C   UNL     1      46.075   2.258   7.881  0.00  0.00    +0.000 A 
ATOM     12  C   UNL     1      46.136   3.331   6.987  0.00  0.00    +0.000 A 
ATOM     13  C   UNL     1      47.028   3.288   5.920  0.00  0.00    +0.000 A 
ATOM     14  C   UNL     1      47.828   2.167   5.776  0.00  0.00    +0.000 A 
ATOM     15  N   UNL     1      47.793   1.109   6.612  0.00  0.00    +0.000 NA
ATOM     16  C   UNL     1      46.918   1.177   7.640  0.00  0.00    +0.000 A 
ENDBRANCH  10  11
ENDBRANCH   9  10
ENDBRANCH   8   9
ENDBRANCH   5   8
ENDBRANCH   1   2
BRANCH   1  19
ATOM     17  O   UNL     1      49.945   7.117  14.044  0.00  0.00    +0.000 OA
ATOM     18  C   UNL     1      49.037   7.006  14.863  0.00  0.00    +0.000 C 
ATOM     19  N   UNL     1      47.719   7.212  14.547  0.00  0.00    +0.000 N 
ATOM     20  H   UNL     1      47.047   7.321  15.297  0.00  0.00    +0.000 HD
BRANCH  18  21
ATOM     21  C   UNL     1      49.296   6.574  16.240  0.00  0.00    +0.000 A 
ATOM     22  C   UNL     1      50.037   7.370  17.100  0.00  0.00    +0.000 A 
ATOM     23  S   UNL     1      50.254   6.676  18.646  0.00  0.00    +0.000 S 
ATOM     24  C   UNL     1      49.324   5.311  18.227  0.00  0.00    +0.000 A 
ATOM     25  N   UNL     1      49.097   4.308  19.119  0.00  0.00    +0.000 NA
ATOM     26  C   UNL     1      48.347   3.358  18.677  0.00  0.00    +0.000 A 
ATOM     27  N   UNL     1      47.800   3.314  17.418  0.00  0.00    +0.000 N 
ATOM     28  C   UNL     1      48.057   4.265  16.465  0.00  0.00    +0.000 A 
ATOM     29  O   UNL     1      47.657   4.125  15.315  0.00  0.00    +0.000 OA
ATOM     30  C   UNL     1      48.870   5.375  16.924  0.00  0.00    +0.000 A 
ATOM     31  H   UNL     1      47.241   2.529  17.120  0.00  0.00    +0.000 HD
ENDBRANCH  18  21
ENDBRANCH   1  19
TORSDOF 7
ENDMDL
MODEL 2
REMARK VINA RESULT:    -7.867      2.001      2.617
REMARK INTER + INTRA:         -12.481
REMARK INTER:                 -11.210
REMARK INTRA:                  -1.271
REMARK UNBOUND:                -1.395
REMARK  Name = 
REMARK  7 active torsions:
REMARK  status: ('A' for Active; 'I' for Inactive)
REMARK    1  A    between atoms: C_2  and  C_20
REMARK    2  A    between atoms: N_3  and  C_4
REMARK    3  A    between atoms: C_4  and  C_5
REMARK    4  A    between atoms: C_8  and  C_9
REMARK    5  A    between atoms: C_9  and  C_10
REMARK    6  A    between atoms: C_10  and  C_11
REMARK    7  A    between atoms: C_11  and  C_12
REMARK                            x       y       z     vdW  Elec       q    Type
REMARK                         _______ _______ _______ _____ _____    ______ ____
ROOT
ATOM      1  C   UNL     1      48.236   6.804  13.744  0.00  0.00    +0.000 C 
ENDROOT
BRANCH   1   2
ATOM      2  C   UNL     1      47.094   6.190  12.977  0.00  0.00    +0.000 A 
ATOM      3  C   UNL     1      46.765   6.681  11.707  0.00  0.00    +0.000 A 
ATOM      4  C   UNL     1      45.713   6.121  10.981  0.00  0.00    +0.000 A 
ATOM      5  C   UNL     1      44.968   5.060  11.508  0.00  0.00    +0.000 A 
ATOM      6  C   UNL     1      45.279   4.588  12.790  0.00  0.00    +0.000 A 
ATOM      7  C   UNL     1      46.328   5.152  13.521  0.00  0.00    +0.000 A 
BRANCH   5   8
ATOM      8  C   UNL     1      43.829   4.450  10.730  0.00  0.00    +0.000 C 
BRANCH   8   9
ATOM      9  C   UNL     1      44.216   3.917   9.346  0.00  0.00    +0.000 C 
BRANCH   9  10
ATOM     10  C   UNL     1      44.931   2.563   9.385  0.00  0.00    +0.000 C 
BRANCH  10  11
ATOM     11  C   UNL     1      45.856   2.406   8.207  0.00  0.00    +0.000 A 
ATOM     12  C   UNL     1      46.054   3.440   7.288  0.00  0.00    +0.000 A 
ATOM     13  C   UNL     1      46.897   3.241   6.199  0.00  0.00    +0.000 A 
ATOM     14  C   UNL     1      47.511   2.008   6.059  0.00  0.00    +0.000 A 
ATOM     15  N   UNL     1      47.338   0.983   6.919  0.00  0.00    +0.000 NA
ATOM     16  C   UNL     1      46.515   1.204   7.968  0.00  0.00    +0.000 A 
ENDBRANCH  10  11
ENDBRANCH   9  10
ENDBRANCH   8   9
ENDBRANCH   5   8
ENDBRANCH   1   2
BRANCH   1  19
ATOM     17  O   UNL     1      50.350   6.504  15.584  0.00  0.00    +0.000 OA
ATOM     18  C   UNL     1      49.191   6.503  15.991  0.00  0.00    +0.000 C 
ATOM     19  N   UNL     1      48.107   6.574  15.155  0.00  0.00    +0.000 N 
ATOM     20  H   UNL     1      47.199   6.788  15.550  0.00  0.00    +0.000 HD
BRANCH  18  21
ATOM     21  C   UNL     1      48.881   6.358  17.417  0.00  0.00    +0.000 A 
ATOM     22  C   UNL     1      49.135   5.164  18.075  0.00  0.00    +0.000 A 
ATOM     23  S   UNL     1      48.674   5.188  19.721  0.00  0.00    +0.000 S 
ATOM     24  C   UNL     1      48.166   6.810  19.614  0.00  0.00    +0.000 A 
ATOM     25  N   UNL     1      47.663   7.467  20.695  0.00  0.00    +0.000 NA
ATOM     26  C   UNL     1      47.354   8.699  20.478  0.00  0.00    +0.000 A 
ATOM     27  N   UNL     1      47.498   9.341  19.272  0.00  0.00    +0.000 N 
ATOM     28  C   UNL     1      47.934   8.702  18.141  0.00  0.00    +0.000 A 
ATOM     29  O   UNL     1      47.927   9.273  17.056  0.00  0.00    +0.000 OA
ATOM     30  C   UNL     1      48.327   7.321  18.341  0.00  0.00    +0.000 A 
ATOM     31  H   UNL     1      47.213  10.302  19.156  0.00  0.00    +0.000 HD
ENDBRANCH  18  21
ENDBRANCH   1  19
TORSDOF 7
ENDMDL
MODEL 3
REMARK VINA RESULT:    -7.329      2.273      2.805
REMARK INTER + INTRA:         -11.723
REMARK INTER:                 -10.605
REMARK INTRA:                  -1.117
REMARK UNBOUND:                -1.395
REMARK  Name = 
REMARK  7 active torsions:
REMARK  status: ('A' for Active; 'I' for Inactive)
REMARK    1  A    between atoms: C_2  and  C_20
REMARK    2  A    between atoms: N_3  and  C_4
REMARK    3  A    between atoms: C_4  and  C_5
REMARK    4  A    between atoms: C_8  and  C_9
REMARK    5  A    between atoms: C_9  and  C_10
REMARK    6  A    between atoms: C_10  and  C_11
REMARK    7  A    between atoms: C_11  and  C_12
REMARK                            x       y       z     vdW  Elec       q    Type
REMARK                         _______ _______ _______ _____ _____    ______ ____
ROOT
ATOM      1  C   UNL     1      47.454   4.261  14.856  0.00  0.00    +0.000 C 
ENDROOT
BRANCH   1   2
ATOM      2  C   UNL     1      46.481   4.435  13.720  0.00  0.00    +0.000 A 
ATOM      3  C   UNL     1      45.942   3.309  13.084  0.00  0.00    +0.000 A 
ATOM      4  C   UNL     1      45.036   3.452  12.033  0.00  0.00    +0.000 A 
ATOM      5  C   UNL     1      44.650   4.725  11.593  0.00  0.00    +0.000 A 
ATOM      6  C   UNL     1      45.211   5.851  12.209  0.00  0.00    +0.000 A 
ATOM      7  C   UNL     1      46.123   5.708  13.259  0.00  0.00    +0.000 A 
BRANCH   5   8
ATOM      8  C   UNL     1      43.672   4.888  10.457  0.00  0.00    +0.000 C 
BRANCH   8   9
ATOM      9  C   UNL     1      44.051   4.137   9.176  0.00  0.00    +0.000 C 
BRANCH   9  10
ATOM     10  C   UNL     1      45.461   4.456   8.669  0.00  0.00    +0.000 C 
BRANCH  10  11
ATOM     11  C   UNL     1      46.097   3.244   8.043  0.00  0.00    +0.000 A 
ATOM     12  C   UNL     1      46.879   3.339   6.889  0.00  0.00    +0.000 A 
ATOM     13  C   UNL     1      47.424   2.188   6.329  0.00  0.00    +0.000 A 
ATOM     14  C   UNL     1      47.164   0.973   6.940  0.00  0.00    +0.000 A 
ATOM     15  N   UNL     1      46.408   0.838   8.049  0.00  0.00    +0.000 NA
ATOM     16  C   UNL     1      45.892   1.973   8.572  0.00  0.00    +0.000 A 
ENDBRANCH  10  11
ENDBRANCH   9  10
ENDBRANCH   8   9
ENDBRANCH   5   8
ENDBRANCH   1   2
BRANCH   1  19
ATOM     17  O   UNL     1      49.614   5.070  16.476  0.00  0.00    +0.000 OA
ATOM     18  C   UNL     1      48.613   5.778  16.407  0.00  0.00    +0.000 C 
ATOM     19  N   UNL     1      47.495   5.422  15.698  0.00  0.00    +0.000 N 
ATOM     20  H   UNL     1      46.797   6.129  15.498  0.00  0.00    +0.000 HD
BRANCH  18  21
ATOM     21  C   UNL     1      48.519   7.043  17.142  0.00  0.00    +0.000 A 
ATOM     22  C   UNL     1      48.755   8.250  16.501  0.00  0.00    +0.000 A 
ATOM     23  S   UNL     1      48.628   9.602  17.538  0.00  0.00    +0.000 S 
ATOM     24  C   UNL     1      48.209   8.619  18.864  0.00  0.00    +0.000 A 
ATOM     25  N   UNL     1      47.946   9.154  20.088  0.00  0.00    +0.000 NA
ATOM     26  C   UNL     1      47.606   8.295  20.987  0.00  0.00    +0.000 A 
ATOM     27  N   UNL     1      47.506   6.942  20.778  0.00  0.00    +0.000 N 
ATOM     28  C   UNL     1      47.826   6.351  19.583  0.00  0.00    +0.000 A 
ATOM     29  O   UNL     1      47.848   5.131  19.473  0.00  0.00    +0.000 OA
ATOM     30  C   UNL     1      48.183   7.279  18.527  0.00  0.00    +0.000 A 
ATOM     31  H   UNL     1      47.260   6.315  21.530  0.00  0.00    +0.000 HD
ENDBRANCH  18  21
ENDBRANCH   1  19
TORSDOF 7
ENDMDL
MODEL 4
REMARK VINA RESULT:    -7.180      3.017      8.519
REMARK INTER + INTRA:         -11.514
REMARK INTER:                  -9.721
REMARK INTRA:                  -1.793
REMARK UNBOUND:                -1.395
REMARK  Name = 
REMARK  7 active torsions:
REMARK  status: ('A' for Active; 'I' for Inactive)
REMARK    1  A    between atoms: C_2  and  C_20
REMARK    2  A    between atoms: N_3  and  C_4
REMARK    3  A    between atoms: C_4  and  C_5
REMARK    4  A    between atoms: C_8  and  C_9
REMARK    5  A    between atoms: C_9  and  C_10
REMARK    6  A    between atoms: C_10  and  C_11
REMARK    7  A    between atoms: C_11  and  C_12
REMARK                            x       y       z     vdW  Elec       q    Type
REMARK                         _______ _______ _______ _____ _____    ______ ____
ROOT
ATOM      1  C   UNL     1      47.742   7.701  11.868  0.00  0.00    +0.000 C 
ENDROOT
BRANCH   1   2
ATOM      2  C   UNL     1      48.257   7.899  13.269  0.00  0.00    +0.000 A 
ATOM      3  C   UNL     1      49.229   7.032  13.784  0.00  0.00    +0.000 A 
ATOM      4  C   UNL     1      49.721   7.204  15.078  0.00  0.00    +0.000 A 
ATOM      5  C   UNL     1      49.250   8.245  15.887  0.00  0.00    +0.000 A 
ATOM      6  C   UNL     1      48.257   9.096  15.383  0.00  0.00    +0.000 A 
ATOM      7  C   UNL     1      47.760   8.920  14.088  0.00  0.00    +0.000 A 
BRANCH   5   8
ATOM      8  C   UNL     1      49.776   8.437  17.287  0.00  0.00    +0.000 C 
BRANCH   8   9
ATOM      9  C   UNL     1      49.825   7.159  18.131  0.00  0.00    +0.000 C 
BRANCH   9  10
ATOM     10  C   UNL     1      48.444   6.590  18.468  0.00  0.00    +0.000 C 
BRANCH  10  11
ATOM     11  C   UNL     1      48.306   5.176  17.968  0.00  0.00    +0.000 A 
ATOM     12  C   UNL     1      49.424   4.392  17.669  0.00  0.00    +0.000 A 
ATOM     13  C   UNL     1      49.248   3.099  17.183  0.00  0.00    +0.000 A 
ATOM     14  C   UNL     1      47.957   2.633  17.006  0.00  0.00    +0.000 A 
ATOM     15  N   UNL     1      46.853   3.361  17.275  0.00  0.00    +0.000 NA
ATOM     16  C   UNL     1      47.053   4.612  17.746  0.00  0.00    +0.000 A 
ENDBRANCH  10  11
ENDBRANCH   9  10
ENDBRANCH   8   9
ENDBRANCH   5   8
ENDBRANCH   1   2
BRANCH   1  19
ATOM     17  O   UNL     1      44.932   7.505  11.989  0.00  0.00    +0.000 OA
ATOM     18  C   UNL     1      45.598   6.499  11.762  0.00  0.00    +0.000 C 
ATOM     19  N   UNL     1      46.969   6.497  11.756  0.00  0.00    +0.000 N 
ATOM     20  H   UNL     1      47.455   5.704  11.354  0.00  0.00    +0.000 HD
BRANCH  18  21
ATOM     21  C   UNL     1      44.963   5.195  11.542  0.00  0.00    +0.000 A 
ATOM     22  C   UNL     1      44.235   4.587  12.553  0.00  0.00    +0.000 A 
ATOM     23  S   UNL     1      43.605   3.062  12.110  0.00  0.00    +0.000 S 
ATOM     24  C   UNL     1      44.247   3.190  10.537  0.00  0.00    +0.000 A 
ATOM     25  N   UNL     1      44.060   2.207   9.614  0.00  0.00    +0.000 NA
ATOM     26  C   UNL     1      44.569   2.456   8.456  0.00  0.00    +0.000 A 
ATOM     27  N   UNL     1      45.256   3.600   8.133  0.00  0.00    +0.000 N 
ATOM     28  C   UNL     1      45.527   4.585   9.047  0.00  0.00    +0.000 A 
ATOM     29  O   UNL     1      46.251   5.529   8.755  0.00  0.00    +0.000 OA
ATOM     30  C   UNL     1      44.945   4.368  10.358  0.00  0.00    +0.000 A 
ATOM     31  H   UNL     1      45.655   3.726   7.215  0.00  0.00    +0.000 HD
ENDBRANCH  18  21
ENDBRANCH   1  19
TORSDOF 7
ENDMDL
MODEL 5
REMARK VINA RESULT:    -6.983      3.698      5.236
REMARK INTER + INTRA:         -11.236
REMARK INTER:                 -10.146
REMARK INTRA:                  -1.089
REMARK UNBOUND:                -1.395
REMARK  Name = 
REMARK  7 active torsions:
REMARK  status: ('A' for Active; 'I' for Inactive)
REMARK    1  A    between atoms: C_2  and  C_20
REMARK    2  A    between atoms: N_3  and  C_4
REMARK    3  A    between atoms: C_4  and  C_5
REMARK    4  A    between atoms: C_8  and  C_9
REMARK    5  A    between atoms: C_9  and  C_10
REMARK    6  A    between atoms: C_10  and  C_11
REMARK    7  A    between atoms: C_11  and  C_12
REMARK                            x       y       z     vdW  Elec       q    Type
REMARK                         _______ _______ _______ _____ _____    ______ ____
ROOT
ATOM      1  C   UNL     1      48.066   6.588  13.680  0.00  0.00    +0.000 C 
ENDROOT
BRANCH   1   2
ATOM      2  C   UNL     1      47.011   5.829  12.918  0.00  0.00    +0.000 A 
ATOM      3  C   UNL     1      46.629   4.551  13.344  0.00  0.00    +0.000 A 
ATOM      4  C   UNL     1      45.650   3.835  12.653  0.00  0.00    +0.000 A 
ATOM      5  C   UNL     1      45.035   4.381  11.520  0.00  0.00    +0.000 A 
ATOM      6  C   UNL     1      45.438   5.648  11.077  0.00  0.00    +0.000 A 
ATOM      7  C   UNL     1      46.422   6.362  11.765  0.00  0.00    +0.000 A 
BRANCH   5   8
ATOM      8  C   UNL     1      43.977   3.614  10.767  0.00  0.00    +0.000 C 
BRANCH   8   9
ATOM      9  C   UNL     1      44.330   3.306   9.307  0.00  0.00    +0.000 C 
BRANCH   9  10
ATOM     10  C   UNL     1      45.196   2.055   9.134  0.00  0.00    +0.000 C 
BRANCH  10  11
ATOM     11  C   UNL     1      46.114   2.193   7.949  0.00  0.00    +0.000 A 
ATOM     12  C   UNL     1      46.099   3.333   7.139  0.00  0.00    +0.000 A 
ATOM     13  C   UNL     1      46.946   3.406   6.037  0.00  0.00    +0.000 A 
ATOM     14  C   UNL     1      47.779   2.331   5.776  0.00  0.00    +0.000 A 
ATOM     15  N   UNL     1      47.816   1.211   6.527  0.00  0.00    +0.000 NA
ATOM     16  C   UNL     1      46.984   1.168   7.591  0.00  0.00    +0.000 A 
ENDBRANCH  10  11
ENDBRANCH   9  10
ENDBRANCH   8   9
ENDBRANCH   5   8
ENDBRANCH   1   2
BRANCH   1  19
ATOM     17  O   UNL     1      48.742   9.048  12.482  0.00  0.00    +0.000 OA
ATOM     18  C   UNL     1      49.507   8.094  12.374  0.00  0.00    +0.000 C 
ATOM     19  N   UNL     1      49.220   6.848  12.866  0.00  0.00    +0.000 N 
ATOM     20  H   UNL     1      49.967   6.167  12.941  0.00  0.00    +0.000 HD
BRANCH  18  21
ATOM     21  C   UNL     1      50.773   8.208  11.642  0.00  0.00    +0.000 A 
ATOM     22  C   UNL     1      51.040   7.378  10.563  0.00  0.00    +0.000 A 
ATOM     23  S   UNL     1      52.578   7.646   9.868  0.00  0.00    +0.000 S 
ATOM     24  C   UNL     1      52.913   8.912  10.958  0.00  0.00    +0.000 A 
ATOM     25  N   UNL     1      54.087   9.599  10.905  0.00  0.00    +0.000 NA
ATOM     26  C   UNL     1      54.188  10.554  11.765  0.00  0.00    +0.000 A 
ATOM     27  N   UNL     1      53.221  10.887  12.682  0.00  0.00    +0.000 N 
ATOM     28  C   UNL     1      52.055  10.180  12.818  0.00  0.00    +0.000 A 
ATOM     29  O   UNL     1      51.275  10.426  13.730  0.00  0.00    +0.000 OA
ATOM     30  C   UNL     1      51.878   9.115  11.849  0.00  0.00    +0.000 A 
ATOM     31  H   UNL     1      53.370  11.629  13.349  0.00  0.00    +0.000 HD
ENDBRANCH  18  21
ENDBRANCH   1  19
TORSDOF 7
ENDMDL
MODEL 6
REMARK VINA RESULT:    -6.747      3.760      8.304
REMARK INTER + INTRA:         -10.903
REMARK INTER:                  -8.751
REMARK INTRA:                  -2.152
REMARK UNBOUND:                -1.395
REMARK  Name = 
REMARK  7 active torsions:
REMARK  status: ('A' for Active; 'I' for Inactive)
REMARK    1  A    between atoms: C_2  and  C_20
REMARK    2  A    between atoms: N_3  and  C_4
REMARK    3  A    between atoms: C_4  and  C_5
REMARK    4  A    between atoms: C_8  and  C_9
REMARK    5  A    between atoms: C_9  and  C_10
REMARK    6  A    between atoms: C_10  and  C_11
REMARK    7  A    between atoms: C_11  and  C_12
REMARK                            x       y       z     vdW  Elec       q    Type
REMARK                         _______ _______ _______ _____ _____    ______ ____
ROOT
ATOM      1  C   UNL     1      48.314   8.612  14.637  0.00  0.00    +0.000 C 
ENDROOT
BRANCH   1   2
ATOM      2  C   UNL     1      48.964   8.115  15.901  0.00  0.00    +0.000 A 
ATOM      3  C   UNL     1      48.471   8.525  17.146  0.00  0.00    +0.000 A 
ATOM      4  C   UNL     1      49.058   8.072  18.328  0.00  0.00    +0.000 A 
ATOM      5  C   UNL     1      50.154   7.200  18.290  0.00  0.00    +0.000 A 
ATOM      6  C   UNL     1      50.666   6.813  17.044  0.00  0.00    +0.000 A 
ATOM      7  C   UNL     1      50.081   7.272  15.861  0.00  0.00    +0.000 A 
BRANCH   5   8
ATOM      8  C   UNL     1      50.796   6.706  19.562  0.00  0.00    +0.000 C 
BRANCH   8   9
ATOM      9  C   UNL     1      50.670   5.196  19.795  0.00  0.00    +0.000 C 
BRANCH   9  10
ATOM     10  C   UNL     1      49.223   4.703  19.877  0.00  0.00    +0.000 C 
BRANCH  10  11
ATOM     11  C   UNL     1      48.762   4.158  18.551  0.00  0.00    +0.000 A 
ATOM     12  C   UNL     1      47.551   4.556  17.976  0.00  0.00    +0.000 A 
ATOM     13  C   UNL     1      47.152   4.005  16.761  0.00  0.00    +0.000 A 
ATOM     14  C   UNL     1      47.975   3.066  16.163  0.00  0.00    +0.000 A 
ATOM     15  N   UNL     1      49.145   2.650  16.691  0.00  0.00    +0.000 NA
ATOM     16  C   UNL     1      49.508   3.202  17.870  0.00  0.00    +0.000 A 
ENDBRANCH  10  11
ENDBRANCH   9  10
ENDBRANCH   8   9
ENDBRANCH   5   8
ENDBRANCH   1   2
BRANCH   1  19
ATOM     17  O   UNL     1      48.754   6.715  12.599  0.00  0.00    +0.000 OA
ATOM     18  C   UNL     1      47.672   6.736  13.181  0.00  0.00    +0.000 C 
ATOM     19  N   UNL     1      47.355   7.671  14.132  0.00  0.00    +0.000 N 
ATOM     20  H   UNL     1      46.549   7.511  14.725  0.00  0.00    +0.000 HD
BRANCH  18  21
ATOM     21  C   UNL     1      46.605   5.789  12.844  0.00  0.00    +0.000 A 
ATOM     22  C   UNL     1      46.746   4.439  13.128  0.00  0.00    +0.000 A 
ATOM     23  S   UNL     1      45.408   3.500  12.630  0.00  0.00    +0.000 S 
ATOM     24  C   UNL     1      44.580   4.876  12.062  0.00  0.00    +0.000 A 
ATOM     25  N   UNL     1      43.340   4.778  11.511  0.00  0.00    +0.000 NA
ATOM     26  C   UNL     1      42.819   5.904  11.160  0.00  0.00    +0.000 A 
ATOM     27  N   UNL     1      43.427   7.127  11.306  0.00  0.00    +0.000 N 
ATOM     28  C   UNL     1      44.701   7.267  11.792  0.00  0.00    +0.000 A 
ATOM     29  O   UNL     1      45.257   8.359  11.788  0.00  0.00    +0.000 OA
ATOM     30  C   UNL     1      45.318   6.031  12.233  0.00  0.00    +0.000 A 
ATOM     31  H   UNL     1      42.980   7.973  10.987  0.00  0.00    +0.000 HD
ENDBRANCH  18  21
ENDBRANCH   1  19
TORSDOF 7
ENDMDL
MODEL 7
REMARK VINA RESULT:    -6.722      1.475      2.241
REMARK INTER + INTRA:         -10.868
REMARK INTER:                  -9.830
REMARK INTRA:                  -1.039
REMARK UNBOUND:                -1.395
REMARK  Name = 
REMARK  7 active torsions:
REMARK  status: ('A' for Active; 'I' for Inactive)
REMARK    1  A    between atoms: C_2  and  C_20
REMARK    2  A    between atoms: N_3  and  C_4
REMARK    3  A    between atoms: C_4  and  C_5
REMARK    4  A    between atoms: C_8  and  C_9
REMARK    5  A    between atoms: C_9  and  C_10
REMARK    6  A    between atoms: C_10  and  C_11
REMARK    7  A    between atoms: C_11  and  C_12
REMARK                            x       y       z     vdW  Elec       q    Type
REMARK                         _______ _______ _______ _____ _____    ______ ____
ROOT
ATOM      1  C   UNL     1      49.552   7.426  14.170  0.00  0.00    +0.000 C 
ENDROOT
BRANCH   1   2
ATOM      2  C   UNL     1      48.407   6.873  13.363  0.00  0.00    +0.000 A 
ATOM      3  C   UNL     1      48.098   7.435  12.117  0.00  0.00    +0.000 A 
ATOM      4  C   UNL     1      47.043   6.933  11.354  0.00  0.00    +0.000 A 
ATOM      5  C   UNL     1      46.273   5.860  11.821  0.00  0.00    +0.000 A 
ATOM      6  C   UNL     1      46.564   5.317  13.079  0.00  0.00    +0.000 A 
ATOM      7  C   UNL     1      47.617   5.823  13.846  0.00  0.00    +0.000 A 
BRANCH   5   8
ATOM      8  C   UNL     1      45.131   5.312  11.003  0.00  0.00    +0.000 C 
BRANCH   8   9
ATOM      9  C   UNL     1      45.476   5.023   9.537  0.00  0.00    +0.000 C 
BRANCH   9  10
ATOM     10  C   UNL     1      44.770   3.789   8.970  0.00  0.00    +0.000 C 
BRANCH  10  11
ATOM     11  C   UNL     1      45.737   2.911   8.220  0.00  0.00    +0.000 A 
ATOM     12  C   UNL     1      45.772   1.527   8.412  0.00  0.00    +0.000 A 
ATOM     13  C   UNL     1      46.702   0.759   7.717  0.00  0.00    +0.000 A 
ATOM     14  C   UNL     1      47.573   1.401   6.855  0.00  0.00    +0.000 A 
ATOM     15  N   UNL     1      47.576   2.735   6.649  0.00  0.00    +0.000 NA
ATOM     16  C   UNL     1      46.663   3.456   7.335  0.00  0.00    +0.000 A 
ENDBRANCH  10  11
ENDBRANCH   9  10
ENDBRANCH   8   9
ENDBRANCH   5   8
ENDBRANCH   1   2
BRANCH   1  19
ATOM     17  O   UNL     1      51.520   7.652  16.176  0.00  0.00    +0.000 OA
ATOM     18  C   UNL     1      50.360   7.401  16.493  0.00  0.00    +0.000 C 
ATOM     19  N   UNL     1      49.361   7.206  15.575  0.00  0.00    +0.000 N 
ATOM     20  H   UNL     1      48.398   7.221  15.890  0.00  0.00    +0.000 HD
BRANCH  18  21
ATOM     21  C   UNL     1      49.973   7.225  17.896  0.00  0.00    +0.000 A 
ATOM     22  C   UNL     1      49.959   8.306  18.765  0.00  0.00    +0.000 A 
ATOM     23  S   UNL     1      49.512   7.887  20.360  0.00  0.00    +0.000 S 
ATOM     24  C   UNL     1      49.277   6.257  19.927  0.00  0.00    +0.000 A 
ATOM     25  N   UNL     1      48.870   5.334  20.840  0.00  0.00    +0.000 NA
ATOM     26  C   UNL     1      48.697   4.148  20.364  0.00  0.00    +0.000 A 
ATOM     27  N   UNL     1      48.899   3.795  19.052  0.00  0.00    +0.000 N 
ATOM     28  C   UNL     1      49.375   4.673  18.113  0.00  0.00    +0.000 A 
ATOM     29  O   UNL     1      49.664   4.290  16.986  0.00  0.00    +0.000 OA
ATOM     30  C   UNL     1      49.553   6.031  18.592  0.00  0.00    +0.000 A 
ATOM     31  H   UNL     1      48.773   2.843  18.744  0.00  0.00    +0.000 HD
ENDBRANCH  18  21
ENDBRANCH   1  19
TORSDOF 7
ENDMDL
MODEL 8
REMARK VINA RESULT:    -6.682      2.480      3.186
REMARK INTER + INTRA:         -10.812
REMARK INTER:                  -9.786
REMARK INTRA:                  -1.025
REMARK UNBOUND:                -1.395
REMARK  Name = 
REMARK  7 active torsions:
REMARK  status: ('A' for Active; 'I' for Inactive)
REMARK    1  A    between atoms: C_2  and  C_20
REMARK    2  A    between atoms: N_3  and  C_4
REMARK    3  A    between atoms: C_4  and  C_5
REMARK    4  A    between atoms: C_8  and  C_9
REMARK    5  A    between atoms: C_9  and  C_10
REMARK    6  A    between atoms: C_10  and  C_11
REMARK    7  A    between atoms: C_11  and  C_12
REMARK                            x       y       z     vdW  Elec       q    Type
REMARK                         _______ _______ _______ _____ _____    ______ ____
ROOT
ATOM      1  C   UNL     1      49.345   7.848  14.005  0.00  0.00    +0.000 C 
ENDROOT
BRANCH   1   2
ATOM      2  C   UNL     1      48.243   7.122  13.280  0.00  0.00    +0.000 A 
ATOM      3  C   UNL     1      47.652   5.994  13.861  0.00  0.00    +0.000 A 
ATOM      4  C   UNL     1      46.627   5.311  13.205  0.00  0.00    +0.000 A 
ATOM      5  C   UNL     1      46.173   5.741  11.952  0.00  0.00    +0.000 A 
ATOM      6  C   UNL     1      46.784   6.852  11.357  0.00  0.00    +0.000 A 
ATOM      7  C   UNL     1      47.815   7.532  12.012  0.00  0.00    +0.000 A 
BRANCH   5   8
ATOM      8  C   UNL     1      45.066   5.008  11.236  0.00  0.00    +0.000 C 
BRANCH   8   9
ATOM      9  C   UNL     1      45.158   5.052   9.706  0.00  0.00    +0.000 C 
BRANCH   9  10
ATOM     10  C   UNL     1      44.474   3.869   9.014  0.00  0.00    +0.000 C 
BRANCH  10  11
ATOM     11  C   UNL     1      45.482   2.999   8.311  0.00  0.00    +0.000 A 
ATOM     12  C   UNL     1      46.279   3.492   7.274  0.00  0.00    +0.000 A 
ATOM     13  C   UNL     1      47.178   2.644   6.633  0.00  0.00    +0.000 A 
ATOM     14  C   UNL     1      47.246   1.325   7.047  0.00  0.00    +0.000 A 
ATOM     15  N   UNL     1      46.487   0.809   8.037  0.00  0.00    +0.000 NA
ATOM     16  C   UNL     1      45.624   1.655   8.642  0.00  0.00    +0.000 A 
ENDBRANCH  10  11
ENDBRANCH   9  10
ENDBRANCH   8   9
ENDBRANCH   5   8
ENDBRANCH   1   2
BRANCH   1  19
ATOM     17  O   UNL     1      49.263   7.781  16.822  0.00  0.00    +0.000 OA
ATOM     18  C   UNL     1      49.942   6.954  16.218  0.00  0.00    +0.000 C 
ATOM     19  N   UNL     1      50.090   6.963  14.855  0.00  0.00    +0.000 N 
ATOM     20  H   UNL     1      50.473   6.143  14.400  0.00  0.00    +0.000 HD
BRANCH  18  21
ATOM     21  C   UNL     1      50.705   5.924  16.930  0.00  0.00    +0.000 A 
ATOM     22  C   UNL     1      50.057   4.990  17.724  0.00  0.00    +0.000 A 
ATOM     23  S   UNL     1      51.124   3.899  18.492  0.00  0.00    +0.000 S 
ATOM     24  C   UNL     1      52.480   4.613  17.750  0.00  0.00    +0.000 A 
ATOM     25  N   UNL     1      53.738   4.144  17.972  0.00  0.00    +0.000 NA
ATOM     26  C   UNL     1      54.663   4.757  17.316  0.00  0.00    +0.000 A 
ATOM     27  N   UNL     1      54.448   5.805  16.455  0.00  0.00    +0.000 N 
ATOM     28  C   UNL     1      53.209   6.355  16.253  0.00  0.00    +0.000 A 
ATOM     29  O   UNL     1      53.076   7.369  15.578  0.00  0.00    +0.000 OA
ATOM     30  C   UNL     1      52.128   5.678  16.943  0.00  0.00    +0.000 A 
ATOM     31  H   UNL     1      55.217   6.262  15.989  0.00  0.00    +0.000 HD
ENDBRANCH  18  21
ENDBRANCH   1  19
TORSDOF 7
ENDMDL
MODEL 9
REMARK VINA RESULT:    -6.508      4.858      7.475
REMARK INTER + INTRA:         -10.566
REMARK INTER:                  -9.519
REMARK INTRA:                  -1.048
REMARK UNBOUND:                -1.395
REMARK  Name = 
REMARK  7 active torsions:
REMARK  status: ('A' for Active; 'I' for Inactive)
REMARK    1  A    between atoms: C_2  and  C_20
REMARK    2  A    between atoms: N_3  and  C_4
REMARK    3  A    between atoms: C_4  and  C_5
REMARK    4  A    between atoms: C_8  and  C_9
REMARK    5  A    between atoms: C_9  and  C_10
REMARK    6  A    between atoms: C_10  and  C_11
REMARK    7  A    between atoms: C_11  and  C_12
REMARK                            x       y       z     vdW  Elec       q    Type
REMARK                         _______ _______ _______ _____ _____    ______ ____
ROOT
ATOM      1  C   UNL     1      46.486   8.180  13.265  0.00  0.00    +0.000 C 
ENDROOT
BRANCH   1   2
ATOM      2  C   UNL     1      47.816   8.370  12.583  0.00  0.00    +0.000 A 
ATOM      3  C   UNL     1      48.678   7.278  12.422  0.00  0.00    +0.000 A 
ATOM      4  C   UNL     1      49.911   7.434  11.789  0.00  0.00    +0.000 A 
ATOM      5  C   UNL     1      50.311   8.685  11.305  0.00  0.00    +0.000 A 
ATOM      6  C   UNL     1      49.461   9.784  11.491  0.00  0.00    +0.000 A 
ATOM      7  C   UNL     1      48.228   9.629  12.131  0.00  0.00    +0.000 A 
BRANCH   5   8
ATOM      8  C   UNL     1      51.642   8.863  10.620  0.00  0.00    +0.000 C 
BRANCH   8   9
ATOM      9  C   UNL     1      52.581   7.655  10.726  0.00  0.00    +0.000 C 
BRANCH   9  10
ATOM     10  C   UNL     1      53.754   7.699   9.743  0.00  0.00    +0.000 C 
BRANCH  10  11
ATOM     11  C   UNL     1      53.653   6.588   8.732  0.00  0.00    +0.000 A 
ATOM     12  C   UNL     1      54.617   5.579   8.652  0.00  0.00    +0.000 A 
ATOM     13  C   UNL     1      54.497   4.588   7.682  0.00  0.00    +0.000 A 
ATOM     14  C   UNL     1      53.417   4.641   6.817  0.00  0.00    +0.000 A 
ATOM     15  N   UNL     1      52.472   5.603   6.857  0.00  0.00    +0.000 NA
ATOM     16  C   UNL     1      52.613   6.552   7.808  0.00  0.00    +0.000 A 
ENDBRANCH  10  11
ENDBRANCH   9  10
ENDBRANCH   8   9
ENDBRANCH   5   8
ENDBRANCH   1   2
BRANCH   1  19
ATOM     17  O   UNL     1      44.581   7.646  11.258  0.00  0.00    +0.000 OA
ATOM     18  C   UNL     1      45.038   6.717  11.919  0.00  0.00    +0.000 C 
ATOM     19  N   UNL     1      45.913   6.901  12.958  0.00  0.00    +0.000 N 
ATOM     20  H   UNL     1      46.419   6.100  13.319  0.00  0.00    +0.000 HD
BRANCH  18  21
ATOM     21  C   UNL     1      44.620   5.331  11.682  0.00  0.00    +0.000 A 
ATOM     22  C   UNL     1      43.892   4.641  12.639  0.00  0.00    +0.000 A 
ATOM     23  S   UNL     1      43.533   3.033  12.186  0.00  0.00    +0.000 S 
ATOM     24  C   UNL     1      44.300   3.226  10.678  0.00  0.00    +0.000 A 
ATOM     25  N   UNL     1      44.346   2.211   9.772  0.00  0.00    +0.000 NA
ATOM     26  C   UNL     1      44.925   2.511   8.660  0.00  0.00    +0.000 A 
ATOM     27  N   UNL     1      45.468   3.737   8.366  0.00  0.00    +0.000 N 
ATOM     28  C   UNL     1      45.506   4.767   9.271  0.00  0.00    +0.000 A 
ATOM     29  O   UNL     1      46.112   5.801   9.019  0.00  0.00    +0.000 OA
ATOM     30  C   UNL     1      44.837   4.490  10.528  0.00  0.00    +0.000 A 
ATOM     31  H   UNL     1      45.933   3.904   7.487  0.00  0.00    +0.000 HD
ENDBRANCH  18  21
ENDBRANCH   1  19
TORSDOF 7
ENDMDL
