MODEL 1
REMARK VINA RESULT:    -8.336      0.000      0.000
REMARK INTER + INTRA:         -12.212
REMARK INTER:                 -11.260
REMARK INTRA:                  -0.952
REMARK UNBOUND:                -0.952
REMARK  Name = 
REMARK  8 active torsions:
REMARK  status: ('A' for Active; 'I' for Inactive)
REMARK    1  A    between atoms: C_1  and  C_2
REMARK    2  A    between atoms: C_4  and  C_5
REMARK    3  A    between atoms: C_5  and  C_6
REMARK    4  A    between atoms: C_6  and  C_7
REMARK    5  A    between atoms: C_10  and  C_11
REMARK    6  A    between atoms: C_14  and  C_15
REMARK    7  A    between atoms: C_18  and  N_19
REMARK    8  A    between atoms: N_19  and  C_20
REMARK                            x       y       z     vdW  Elec       q    Type
REMARK                         _______ _______ _______ _____ _____    ______ ____
ROOT
ATOM      1  C   UNL     1      47.341   7.765  12.378  0.00  0.00    +0.000 C 
ATOM      2  C   UNL     1      46.833   6.356  12.488  0.00  0.00    +0.000 A 
ATOM      3  C   UNL     1      45.757   5.919  11.704  0.00  0.00    +0.000 A 
ATOM      4  C   UNL     1      45.202   4.648  11.897  0.00  0.00    +0.000 A 
ATOM      5  C   UNL     1      45.765   3.820  12.891  0.00  0.00    +0.000 A 
ATOM      6  C   UNL     1      46.873   4.216  13.642  0.00  0.00    +0.000 A 
ATOM      7  C   UNL     1      47.385   5.502  13.449  0.00  0.00    +0.000 A 
ENDROOT
BRANCH   6   8
ATOM      8  N   UNL     1      47.345   3.352  14.662  0.00  0.00    +0.000 N 
ATOM      9  H   UNL     1      46.644   2.625  14.809  0.00  0.00    +0.000 HD
BRANCH   8  10
ATOM     10  C   UNL     1      47.905   3.798  15.916  0.00  0.00    +0.000 C 
ATOM     11  C   UNL     1      48.186   2.637  16.889  0.00  0.00    +0.000 C 
ATOM     12  N   UNL     1      47.508   3.383  17.965  0.00  0.00    +0.000 NA
ATOM     13  C   UNL     1      46.891   4.276  16.965  0.00  0.00    +0.000 C 
ATOM     14  H   UNL     1      48.155   3.861  18.592  0.00  0.00    +0.000 HD
ENDBRANCH   8  10
ENDBRANCH   6   8
BRANCH   4  15
ATOM     15  C   UNL     1      43.913   4.208  11.236  0.00  0.00    +0.000 C 
BRANCH  15  16
ATOM     16  C   UNL     1      43.875   2.862  10.491  0.00  0.00    +0.000 C 
BRANCH  16  17
ATOM     17  C   UNL     1      44.649   2.706   9.200  0.00  0.00    +0.000 A 
ATOM     18  C   UNL     1      44.845   3.754   8.299  0.00  0.00    +0.000 A 
ATOM     19  C   UNL     1      45.780   3.632   7.267  0.00  0.00    +0.000 A 
ATOM     20  C   UNL     1      46.522   2.458   7.098  0.00  0.00    +0.000 A 
ATOM     21  C   UNL     1      46.239   1.340   7.895  0.00  0.00    +0.000 A 
ATOM     22  C   UNL     1      46.786  -0.040   7.656  0.00  0.00    +0.000 C 
ATOM     23  C   UNL     1      45.329   1.495   8.962  0.00  0.00    +0.000 A 
BRANCH  20  24
ATOM     24  C   UNL     1      47.625   2.536   6.094  0.00  0.00    +0.000 C 
ATOM     25  N   UNL     1      48.909   2.452   6.569  0.00  0.00    +0.000 N 
ATOM     26  O   UNL     1      47.411   2.781   4.916  0.00  0.00    +0.000 OA
ATOM     27  H   UNL     1      49.123   2.466   7.555  0.00  0.00    +0.000 HD
ATOM     28  H   UNL     1      49.648   2.666   5.908  0.00  0.00    +0.000 HD
ENDBRANCH  20  24
ENDBRANCH  16  17
ENDBRANCH  15  16
ENDBRANCH   4  15
TORSDOF 6
ENDMDL
MODEL 2
REMARK VINA RESULT:    -7.788      2.165      3.831
REMARK INTER + INTRA:         -11.472
REMARK INTER:                 -10.488
REMARK INTRA:                  -0.983
REMARK UNBOUND:                -0.952
REMARK  Name = 
REMARK  8 active torsions:
REMARK  status: ('A' for Active; 'I' for Inactive)
REMARK    1  A    between atoms: C_1  and  C_2
REMARK    2  A    between atoms: C_4  and  C_5
REMARK    3  A    between atoms: C_5  and  C_6
REMARK    4  A    between atoms: C_6  and  C_7
REMARK    5  A    between atoms: C_10  and  C_11
REMARK    6  A    between atoms: C_14  and  C_15
REMARK    7  A    between atoms: C_18  and  N_19
REMARK    8  A    between atoms: N_19  and  C_20
REMARK                            x       y       z     vdW  Elec       q    Type
REMARK                         _______ _______ _______ _____ _____    ______ ____
ROOT
ATOM      1  C   UNL     1      47.289   4.024  14.961  0.00  0.00    +0.000 C 
ATOM      2  C   UNL     1      46.718   4.810  13.816  0.00  0.00    +0.000 A 
ATOM      3  C   UNL     1      45.531   4.406  13.190  0.00  0.00    +0.000 A 
ATOM      4  C   UNL     1      45.068   5.062  12.044  0.00  0.00    +0.000 A 
ATOM      5  C   UNL     1      45.822   6.147  11.548  0.00  0.00    +0.000 A 
ATOM      6  C   UNL     1      46.975   6.600  12.191  0.00  0.00    +0.000 A 
ATOM      7  C   UNL     1      47.430   5.905  13.314  0.00  0.00    +0.000 A 
ENDROOT
BRANCH   6   8
ATOM      8  N   UNL     1      47.710   7.658  11.599  0.00  0.00    +0.000 N 
ATOM      9  H   UNL     1      48.535   7.257  11.150  0.00  0.00    +0.000 HD
BRANCH   8  10
ATOM     10  C   UNL     1      48.029   8.901  12.261  0.00  0.00    +0.000 C 
ATOM     11  C   UNL     1      46.889   9.934  12.169  0.00  0.00    +0.000 C 
ATOM     12  N   UNL     1      47.861  10.958  11.745  0.00  0.00    +0.000 NA
ATOM     13  C   UNL     1      48.846   9.905  11.435  0.00  0.00    +0.000 C 
ATOM     14  H   UNL     1      48.151  11.576  12.503  0.00  0.00    +0.000 HD
ENDBRANCH   8  10
ENDBRANCH   6   8
BRANCH   4  15
ATOM     15  C   UNL     1      43.920   4.538  11.207  0.00  0.00    +0.000 C 
BRANCH  15  16
ATOM     16  C   UNL     1      44.016   3.125  10.605  0.00  0.00    +0.000 C 
BRANCH  16  17
ATOM     17  C   UNL     1      44.740   2.927   9.290  0.00  0.00    +0.000 A 
ATOM     18  C   UNL     1      44.968   3.964   8.384  0.00  0.00    +0.000 A 
ATOM     19  C   UNL     1      45.862   3.790   7.324  0.00  0.00    +0.000 A 
ATOM     20  C   UNL     1      46.529   2.575   7.132  0.00  0.00    +0.000 A 
ATOM     21  C   UNL     1      46.206   1.474   7.936  0.00  0.00    +0.000 A 
ATOM     22  C   UNL     1      46.665   0.065   7.681  0.00  0.00    +0.000 C 
ATOM     23  C   UNL     1      45.340   1.680   9.031  0.00  0.00    +0.000 A 
BRANCH  20  24
ATOM     24  C   UNL     1      47.603   2.591   6.093  0.00  0.00    +0.000 C 
ATOM     25  N   UNL     1      48.899   2.492   6.534  0.00  0.00    +0.000 N 
ATOM     26  O   UNL     1      47.361   2.799   4.914  0.00  0.00    +0.000 OA
ATOM     27  H   UNL     1      49.142   2.537   7.513  0.00  0.00    +0.000 HD
ATOM     28  H   UNL     1      49.623   2.666   5.845  0.00  0.00    +0.000 HD
ENDBRANCH  20  24
ENDBRANCH  16  17
ENDBRANCH  15  16
ENDBRANCH   4  15
TORSDOF 6
ENDMDL
MODEL 3
REMARK VINA RESULT:    -7.330      3.453      5.028
REMARK INTER + INTRA:         -10.853
REMARK INTER:                 -10.064
REMARK INTRA:                  -0.789
REMARK UNBOUND:                -0.952
REMARK  Name = 
REMARK  8 active torsions:
REMARK  status: ('A' for Active; 'I' for Inactive)
REMARK    1  A    between atoms: C_1  and  C_2
REMARK    2  A    between atoms: C_4  and  C_5
REMARK    3  A    between atoms: C_5  and  C_6
REMARK    4  A    between atoms: C_6  and  C_7
REMARK    5  A    between atoms: C_10  and  C_11
REMARK    6  A    between atoms: C_14  and  C_15
REMARK    7  A    between atoms: C_18  and  N_19
REMARK    8  A    between atoms: N_19  and  C_20
REMARK                            x       y       z     vdW  Elec       q    Type
REMARK                         _______ _______ _______ _____ _____    ______ ____
ROOT
ATOM      1  C   UNL     1      48.127   6.652  12.373  0.00  0.00    +0.000 C 
ATOM      2  C   UNL     1      46.658   6.878  12.158  0.00  0.00    +0.000 A 
ATOM      3  C   UNL     1      45.830   5.838  11.716  0.00  0.00    +0.000 A 
ATOM      4  C   UNL     1      44.489   6.079  11.393  0.00  0.00    +0.000 A 
ATOM      5  C   UNL     1      43.997   7.393  11.538  0.00  0.00    +0.000 A 
ATOM      6  C   UNL     1      44.791   8.430  12.030  0.00  0.00    +0.000 A 
ATOM      7  C   UNL     1      46.133   8.165  12.314  0.00  0.00    +0.000 A 
ENDROOT
BRANCH   6   8
ATOM      8  N   UNL     1      44.241   9.735  12.092  0.00  0.00    +0.000 N 
ATOM      9  H   UNL     1      43.797   9.847  13.005  0.00  0.00    +0.000 HD
BRANCH   8  10
ATOM     10  C   UNL     1      43.446  10.337  11.048  0.00  0.00    +0.000 C 
ATOM     11  C   UNL     1      44.293  10.794   9.844  0.00  0.00    +0.000 C 
ATOM     12  N   UNL     1      43.611  12.101   9.870  0.00  0.00    +0.000 NA
ATOM     13  C   UNL     1      43.121  11.827  11.234  0.00  0.00    +0.000 C 
ATOM     14  H   UNL     1      42.866  12.180   9.179  0.00  0.00    +0.000 HD
ENDBRANCH   8  10
ENDBRANCH   6   8
BRANCH   4  15
ATOM     15  C   UNL     1      43.613   5.050  10.711  0.00  0.00    +0.000 C 
BRANCH  15  16
ATOM     16  C   UNL     1      44.147   3.619  10.520  0.00  0.00    +0.000 C 
BRANCH  16  17
ATOM     17  C   UNL     1      44.925   3.278   9.268  0.00  0.00    +0.000 A 
ATOM     18  C   UNL     1      45.389   4.244   8.373  0.00  0.00    +0.000 A 
ATOM     19  C   UNL     1      46.319   3.905   7.387  0.00  0.00    +0.000 A 
ATOM     20  C   UNL     1      46.788   2.593   7.257  0.00  0.00    +0.000 A 
ATOM     21  C   UNL     1      46.229   1.576   8.043  0.00  0.00    +0.000 A 
ATOM     22  C   UNL     1      46.466   0.106   7.835  0.00  0.00    +0.000 C 
ATOM     23  C   UNL     1      45.329   1.944   9.065  0.00  0.00    +0.000 A 
BRANCH  20  24
ATOM     24  C   UNL     1      47.925   2.411   6.305  0.00  0.00    +0.000 C 
ATOM     25  N   UNL     1      47.763   2.908   5.036  0.00  0.00    +0.000 N 
ATOM     26  O   UNL     1      48.911   1.750   6.594  0.00  0.00    +0.000 OA
ATOM     27  H   UNL     1      46.879   3.266   4.705  0.00  0.00    +0.000 HD
ATOM     28  H   UNL     1      48.466   2.641   4.355  0.00  0.00    +0.000 HD
ENDBRANCH  20  24
ENDBRANCH  16  17
ENDBRANCH  15  16
ENDBRANCH   4  15
TORSDOF 6
ENDMDL
MODEL 4
REMARK VINA RESULT:    -6.870      3.025      8.306
REMARK INTER + INTRA:         -10.231
REMARK INTER:                  -9.544
REMARK INTRA:                  -0.687
REMARK UNBOUND:                -0.952
REMARK  Name = 
REMARK  8 active torsions:
REMARK  status: ('A' for Active; 'I' for Inactive)
REMARK    1  A    between atoms: C_1  and  C_2
REMARK    2  A    between atoms: C_4  and  C_5
REMARK    3  A    between atoms: C_5  and  C_6
REMARK    4  A    between atoms: C_6  and  C_7
REMARK    5  A    between atoms: C_10  and  C_11
REMARK    6  A    between atoms: C_14  and  C_15
REMARK    7  A    between atoms: C_18  and  N_19
REMARK    8  A    between atoms: N_19  and  C_20
REMARK                            x       y       z     vdW  Elec       q    Type
REMARK                         _______ _______ _______ _____ _____    ______ ____
ROOT
ATOM      1  C   UNL     1      43.211   2.294  11.490  0.00  0.00    +0.000 C 
ATOM      2  C   UNL     1      44.173   3.169  10.741  0.00  0.00    +0.000 A 
ATOM      3  C   UNL     1      44.634   4.370  11.299  0.00  0.00    +0.000 A 
ATOM      4  C   UNL     1      45.429   5.246  10.550  0.00  0.00    +0.000 A 
ATOM      5  C   UNL     1      45.762   4.880   9.230  0.00  0.00    +0.000 A 
ATOM      6  C   UNL     1      45.361   3.662   8.677  0.00  0.00    +0.000 A 
ATOM      7  C   UNL     1      44.542   2.823   9.437  0.00  0.00    +0.000 A 
ENDROOT
BRANCH   6   8
ATOM      8  N   UNL     1      45.687   3.391   7.324  0.00  0.00    +0.000 N 
ATOM      9  H   UNL     1      45.108   2.610   7.012  0.00  0.00    +0.000 HD
BRANCH   8  10
ATOM     10  C   UNL     1      47.032   3.280   6.815  0.00  0.00    +0.000 C 
ATOM     11  C   UNL     1      47.074   2.877   5.328  0.00  0.00    +0.000 C 
ATOM     12  N   UNL     1      48.076   1.842   5.644  0.00  0.00    +0.000 NA
ATOM     13  C   UNL     1      47.735   1.940   7.076  0.00  0.00    +0.000 C 
ATOM     14  H   UNL     1      49.032   2.130   5.433  0.00  0.00    +0.000 HD
ENDBRANCH   8  10
ENDBRANCH   6   8
BRANCH   4  15
ATOM     15  C   UNL     1      45.772   6.644  11.021  0.00  0.00    +0.000 C 
BRANCH  15  16
ATOM     16  C   UNL     1      47.144   6.901  11.669  0.00  0.00    +0.000 C 
BRANCH  16  17
ATOM     17  C   UNL     1      47.358   6.532  13.122  0.00  0.00    +0.000 A 
ATOM     18  C   UNL     1      46.857   5.361  13.692  0.00  0.00    +0.000 A 
ATOM     19  C   UNL     1      47.302   4.940  14.948  0.00  0.00    +0.000 A 
ATOM     20  C   UNL     1      48.238   5.688  15.671  0.00  0.00    +0.000 A 
ATOM     21  C   UNL     1      48.644   6.940  15.190  0.00  0.00    +0.000 A 
ATOM     22  C   UNL     1      49.446   7.939  15.976  0.00  0.00    +0.000 C 
ATOM     23  C   UNL     1      48.224   7.326  13.899  0.00  0.00    +0.000 A 
BRANCH  20  24
ATOM     24  C   UNL     1      48.779   5.025  16.895  0.00  0.00    +0.000 C 
ATOM     25  N   UNL     1      48.123   5.264  18.077  0.00  0.00    +0.000 N 
ATOM     26  O   UNL     1      49.823   4.392  16.880  0.00  0.00    +0.000 OA
ATOM     27  H   UNL     1      47.389   5.953  18.158  0.00  0.00    +0.000 HD
ATOM     28  H   UNL     1      48.586   4.945  18.921  0.00  0.00    +0.000 HD
ENDBRANCH  20  24
ENDBRANCH  16  17
ENDBRANCH  15  16
ENDBRANCH   4  15
TORSDOF 6
ENDMDL
MODEL 5
REMARK VINA RESULT:    -6.749      3.906      8.053
REMARK INTER + INTRA:         -10.068
REMARK INTER:                  -9.289
REMARK INTRA:                  -0.779
REMARK UNBOUND:                -0.952
REMARK  Name = 
REMARK  8 active torsions:
REMARK  status: ('A' for Active; 'I' for Inactive)
REMARK    1  A    between atoms: C_1  and  C_2
REMARK    2  A    between atoms: C_4  and  C_5
REMARK    3  A    between atoms: C_5  and  C_6
REMARK    4  A    between atoms: C_6  and  C_7
REMARK    5  A    between atoms: C_10  and  C_11
REMARK    6  A    between atoms: C_14  and  C_15
REMARK    7  A    between atoms: C_18  and  N_19
REMARK    8  A    between atoms: N_19  and  C_20
REMARK                            x       y       z     vdW  Elec       q    Type
REMARK                         _______ _______ _______ _____ _____    ______ ____
ROOT
ATOM      1  C   UNL     1      43.287   2.381  11.655  0.00  0.00    +0.000 C 
ATOM      2  C   UNL     1      44.209   3.224  10.824  0.00  0.00    +0.000 A 
ATOM      3  C   UNL     1      44.600   4.499  11.256  0.00  0.00    +0.000 A 
ATOM      4  C   UNL     1      45.355   5.336  10.426  0.00  0.00    +0.000 A 
ATOM      5  C   UNL     1      45.721   4.853   9.152  0.00  0.00    +0.000 A 
ATOM      6  C   UNL     1      45.390   3.566   8.726  0.00  0.00    +0.000 A 
ATOM      7  C   UNL     1      44.609   2.766   9.564  0.00  0.00    +0.000 A 
ENDROOT
BRANCH   6   8
ATOM      8  N   UNL     1      45.743   3.175   7.409  0.00  0.00    +0.000 N 
ATOM      9  H   UNL     1      45.258   2.301   7.199  0.00  0.00    +0.000 HD
BRANCH   8  10
ATOM     10  C   UNL     1      47.092   3.159   6.896  0.00  0.00    +0.000 C 
ATOM     11  C   UNL     1      47.149   2.896   5.378  0.00  0.00    +0.000 C 
ATOM     12  N   UNL     1      48.186   1.872   5.602  0.00  0.00    +0.000 NA
ATOM     13  C   UNL     1      47.841   1.825   7.035  0.00  0.00    +0.000 C 
ATOM     14  H   UNL     1      49.131   2.211   5.422  0.00  0.00    +0.000 HD
ENDBRANCH   8  10
ENDBRANCH   6   8
BRANCH   4  15
ATOM     15  C   UNL     1      45.620   6.790  10.751  0.00  0.00    +0.000 C 
BRANCH  15  16
ATOM     16  C   UNL     1      45.872   7.197  12.213  0.00  0.00    +0.000 C 
BRANCH  16  17
ATOM     17  C   UNL     1      47.219   7.768  12.603  0.00  0.00    +0.000 A 
ATOM     18  C   UNL     1      47.453   8.400  13.825  0.00  0.00    +0.000 A 
ATOM     19  C   UNL     1      48.759   8.668  14.243  0.00  0.00    +0.000 A 
ATOM     20  C   UNL     1      49.857   8.332  13.443  0.00  0.00    +0.000 A 
ATOM     21  C   UNL     1      49.645   7.834  12.150  0.00  0.00    +0.000 A 
ATOM     22  C   UNL     1      50.719   7.666  11.112  0.00  0.00    +0.000 C 
ATOM     23  C   UNL     1      48.324   7.525  11.764  0.00  0.00    +0.000 A 
BRANCH  20  24
ATOM     24  C   UNL     1      51.193   8.483  14.094  0.00  0.00    +0.000 C 
ATOM     25  N   UNL     1      51.632   7.439  14.869  0.00  0.00    +0.000 N 
ATOM     26  O   UNL     1      51.825   9.527  14.041  0.00  0.00    +0.000 OA
ATOM     27  H   UNL     1      51.040   6.656  15.106  0.00  0.00    +0.000 HD
ATOM     28  H   UNL     1      52.457   7.613  15.433  0.00  0.00    +0.000 HD
ENDBRANCH  20  24
ENDBRANCH  16  17
ENDBRANCH  15  16
ENDBRANCH   4  15
TORSDOF 6
ENDMDL
MODEL 6
REMARK VINA RESULT:    -6.497      4.345      7.726
REMARK INTER + INTRA:          -9.727
REMARK INTER:                  -8.862
REMARK INTRA:                  -0.865
REMARK UNBOUND:                -0.952
REMARK  Name = 
REMARK  8 active torsions:
REMARK  status: ('A' for Active; 'I' for Inactive)
REMARK    1  A    between atoms: C_1  and  C_2
REMARK    2  A    between atoms: C_4  and  C_5
REMARK    3  A    between atoms: C_5  and  C_6
REMARK    4  A    between atoms: C_6  and  C_7
REMARK    5  A    between atoms: C_10  and  C_11
REMARK    6  A    between atoms: C_14  and  C_15
REMARK    7  A    between atoms: C_18  and  N_19
REMARK    8  A    between atoms: N_19  and  C_20
REMARK                            x       y       z     vdW  Elec       q    Type
REMARK                         _______ _______ _______ _____ _____    ______ ____
ROOT
ATOM      1  C   UNL     1      44.915  11.960  10.327  0.00  0.00    +0.000 C 
ATOM      2  C   UNL     1      45.135  10.657  11.038  0.00  0.00    +0.000 A 
ATOM      3  C   UNL     1      46.313  10.425  11.762  0.00  0.00    +0.000 A 
ATOM      4  C   UNL     1      46.575   9.166  12.317  0.00  0.00    +0.000 A 
ATOM      5  C   UNL     1      45.615   8.148  12.138  0.00  0.00    +0.000 A 
ATOM      6  C   UNL     1      44.411   8.376  11.470  0.00  0.00    +0.000 A 
ATOM      7  C   UNL     1      44.192   9.633  10.900  0.00  0.00    +0.000 A 
ENDROOT
BRANCH   6   8
ATOM      8  N   UNL     1      43.523   7.287  11.280  0.00  0.00    +0.000 N 
ATOM      9  H   UNL     1      42.605   7.564  11.628  0.00  0.00    +0.000 HD
BRANCH   8  10
ATOM     10  C   UNL     1      43.822   5.919  11.631  0.00  0.00    +0.000 C 
ATOM     11  C   UNL     1      43.467   4.925  10.507  0.00  0.00    +0.000 C 
ATOM     12  N   UNL     1      42.772   4.074  11.490  0.00  0.00    +0.000 NA
ATOM     13  C   UNL     1      42.747   5.192  12.452  0.00  0.00    +0.000 C 
ATOM     14  H   UNL     1      43.333   3.281  11.803  0.00  0.00    +0.000 HD
ENDBRANCH   8  10
ENDBRANCH   6   8
BRANCH   4  15
ATOM     15  C   UNL     1      47.915   8.799  12.917  0.00  0.00    +0.000 C 
BRANCH  15  16
ATOM     16  C   UNL     1      48.378   7.332  12.874  0.00  0.00    +0.000 C 
BRANCH  16  17
ATOM     17  C   UNL     1      47.975   6.393  13.990  0.00  0.00    +0.000 A 
ATOM     18  C   UNL     1      47.133   5.296  13.796  0.00  0.00    +0.000 A 
ATOM     19  C   UNL     1      47.007   4.319  14.787  0.00  0.00    +0.000 A 
ATOM     20  C   UNL     1      47.698   4.425  15.999  0.00  0.00    +0.000 A 
ATOM     21  C   UNL     1      48.431   5.586  16.279  0.00  0.00    +0.000 A 
ATOM     22  C   UNL     1      49.011   5.927  17.623  0.00  0.00    +0.000 C 
ATOM     23  C   UNL     1      48.588   6.539  15.250  0.00  0.00    +0.000 A 
BRANCH  20  24
ATOM     24  C   UNL     1      47.637   3.218  16.878  0.00  0.00    +0.000 C 
ATOM     25  N   UNL     1      48.730   2.388  16.876  0.00  0.00    +0.000 N 
ATOM     26  O   UNL     1      46.623   2.911  17.486  0.00  0.00    +0.000 OA
ATOM     27  H   UNL     1      49.492   2.499  16.223  0.00  0.00    +0.000 HD
ATOM     28  H   UNL     1      48.617   1.496  17.345  0.00  0.00    +0.000 HD
ENDBRANCH  20  24
ENDBRANCH  16  17
ENDBRANCH  15  16
ENDBRANCH   4  15
TORSDOF 6
ENDMDL
MODEL 7
REMARK VINA RESULT:    -6.334      3.361      5.395
REMARK INTER + INTRA:          -9.508
REMARK INTER:                  -8.555
REMARK INTRA:                  -0.953
REMARK UNBOUND:                -0.952
REMARK  Name = 
REMARK  8 active torsions:
REMARK  status: ('A' for Active; 'I' for Inactive)
REMARK    1  A    between atoms: C_1  and  C_2
REMARK    2  A    between atoms: C_4  and  C_5
REMARK    3  A    between atoms: C_5  and  C_6
REMARK    4  A    between atoms: C_6  and  C_7
REMARK    5  A    between atoms: C_10  and  C_11
REMARK    6  A    between atoms: C_14  and  C_15
REMARK    7  A    between atoms: C_18  and  N_19
REMARK    8  A    between atoms: N_19  and  C_20
REMARK                            x       y       z     vdW  Elec       q    Type
REMARK                         _______ _______ _______ _____ _____    ______ ____
ROOT
ATOM      1  C   UNL     1      48.079  10.258  17.314  0.00  0.00    +0.000 C 
ATOM      2  C   UNL     1      48.531   8.984  16.661  0.00  0.00    +0.000 A 
ATOM      3  C   UNL     1      48.742   8.924  15.276  0.00  0.00    +0.000 A 
ATOM      4  C   UNL     1      49.040   7.707  14.651  0.00  0.00    +0.000 A 
ATOM      5  C   UNL     1      49.134   6.552  15.454  0.00  0.00    +0.000 A 
ATOM      6  C   UNL     1      48.984   6.602  16.841  0.00  0.00    +0.000 A 
ATOM      7  C   UNL     1      48.657   7.824  17.433  0.00  0.00    +0.000 A 
ENDROOT
BRANCH   6   8
ATOM      8  N   UNL     1      49.035   5.389  17.573  0.00  0.00    +0.000 N 
ATOM      9  H   UNL     1      49.653   4.746  17.076  0.00  0.00    +0.000 HD
BRANCH   8  10
ATOM     10  C   UNL     1      47.879   4.702  18.097  0.00  0.00    +0.000 C 
ATOM     11  C   UNL     1      48.165   3.224  18.431  0.00  0.00    +0.000 C 
ATOM     12  N   UNL     1      46.944   2.831  17.704  0.00  0.00    +0.000 NA
ATOM     13  C   UNL     1      46.900   4.152  17.049  0.00  0.00    +0.000 C 
ATOM     14  H   UNL     1      46.149   2.656  18.319  0.00  0.00    +0.000 HD
ENDBRANCH   8  10
ENDBRANCH   6   8
BRANCH   4  15
ATOM     15  C   UNL     1      49.063   7.544  13.146  0.00  0.00    +0.000 C 
BRANCH  15  16
ATOM     16  C   UNL     1      47.784   7.833  12.341  0.00  0.00    +0.000 C 
BRANCH  16  17
ATOM     17  C   UNL     1      46.752   6.739  12.169  0.00  0.00    +0.000 A 
ATOM     18  C   UNL     1      45.941   6.288  13.211  0.00  0.00    +0.000 A 
ATOM     19  C   UNL     1      44.835   5.476  12.944  0.00  0.00    +0.000 A 
ATOM     20  C   UNL     1      44.528   5.079  11.638  0.00  0.00    +0.000 A 
ATOM     21  C   UNL     1      45.408   5.394  10.594  0.00  0.00    +0.000 A 
ATOM     22  C   UNL     1      45.323   4.828   9.204  0.00  0.00    +0.000 C 
ATOM     23  C   UNL     1      46.491   6.254  10.872  0.00  0.00    +0.000 A 
BRANCH  20  24
ATOM     24  C   UNL     1      43.213   4.391  11.470  0.00  0.00    +0.000 C 
ATOM     25  N   UNL     1      42.085   5.121  11.752  0.00  0.00    +0.000 N 
ATOM     26  O   UNL     1      43.134   3.200  11.208  0.00  0.00    +0.000 OA
ATOM     27  H   UNL     1      42.126   6.036  12.178  0.00  0.00    +0.000 HD
ATOM     28  H   UNL     1      41.213   4.604  11.793  0.00  0.00    +0.000 HD
ENDBRANCH  20  24
ENDBRANCH  16  17
ENDBRANCH  15  16
ENDBRANCH   4  15
TORSDOF 6
ENDMDL
MODEL 8
REMARK VINA RESULT:    -5.995      4.321      8.354
REMARK INTER + INTRA:          -9.050
REMARK INTER:                  -8.201
REMARK INTRA:                  -0.850
REMARK UNBOUND:                -0.952
REMARK  Name = 
REMARK  8 active torsions:
REMARK  status: ('A' for Active; 'I' for Inactive)
REMARK    1  A    between atoms: C_1  and  C_2
REMARK    2  A    between atoms: C_4  and  C_5
REMARK    3  A    between atoms: C_5  and  C_6
REMARK    4  A    between atoms: C_6  and  C_7
REMARK    5  A    between atoms: C_10  and  C_11
REMARK    6  A    between atoms: C_14  and  C_15
REMARK    7  A    between atoms: C_18  and  N_19
REMARK    8  A    between atoms: N_19  and  C_20
REMARK                            x       y       z     vdW  Elec       q    Type
REMARK                         _______ _______ _______ _____ _____    ______ ____
ROOT
ATOM      1  C   UNL     1      44.831  10.009  11.903  0.00  0.00    +0.000 C 
ATOM      2  C   UNL     1      45.432   8.634  11.961  0.00  0.00    +0.000 A 
ATOM      3  C   UNL     1      46.749   8.446  12.401  0.00  0.00    +0.000 A 
ATOM      4  C   UNL     1      47.351   7.183  12.334  0.00  0.00    +0.000 A 
ATOM      5  C   UNL     1      46.591   6.110  11.826  0.00  0.00    +0.000 A 
ATOM      6  C   UNL     1      45.260   6.266  11.436  0.00  0.00    +0.000 A 
ATOM      7  C   UNL     1      44.696   7.544  11.485  0.00  0.00    +0.000 A 
ENDROOT
BRANCH   6   8
ATOM      8  N   UNL     1      44.579   5.153  10.881  0.00  0.00    +0.000 N 
ATOM      9  H   UNL     1      43.632   5.450  10.642  0.00  0.00    +0.000 HD
BRANCH   8  10
ATOM     10  C   UNL     1      44.583   3.827  11.450  0.00  0.00    +0.000 C 
ATOM     11  C   UNL     1      43.956   2.775  10.514  0.00  0.00    +0.000 C 
ATOM     12  N   UNL     1      43.141   2.273  11.635  0.00  0.00    +0.000 NA
ATOM     13  C   UNL     1      43.417   3.506  12.397  0.00  0.00    +0.000 C 
ATOM     14  H   UNL     1      43.525   1.433  12.067  0.00  0.00    +0.000 HD
ENDBRANCH   8  10
ENDBRANCH   6   8
BRANCH   4  15
ATOM     15  C   UNL     1      48.828   6.966  12.590  0.00  0.00    +0.000 C 
BRANCH  15  16
ATOM     16  C   UNL     1      49.495   7.678  13.780  0.00  0.00    +0.000 C 
BRANCH  16  17
ATOM     17  C   UNL     1      49.539   6.988  15.127  0.00  0.00    +0.000 A 
ATOM     18  C   UNL     1      48.450   6.303  15.667  0.00  0.00    +0.000 A 
ATOM     19  C   UNL     1      48.620   5.468  16.775  0.00  0.00    +0.000 A 
ATOM     20  C   UNL     1      49.873   5.316  17.380  0.00  0.00    +0.000 A 
ATOM     21  C   UNL     1      50.949   6.104  16.951  0.00  0.00    +0.000 A 
ATOM     22  C   UNL     1      52.267   6.213  17.666  0.00  0.00    +0.000 C 
ATOM     23  C   UNL     1      50.773   6.904  15.802  0.00  0.00    +0.000 A 
BRANCH  20  24
ATOM     24  C   UNL     1      49.957   4.243  18.416  0.00  0.00    +0.000 C 
ATOM     25  N   UNL     1      50.392   3.008  18.003  0.00  0.00    +0.000 N 
ATOM     26  O   UNL     1      49.550   4.410  19.555  0.00  0.00    +0.000 OA
ATOM     27  H   UNL     1      50.529   2.781  17.028  0.00  0.00    +0.000 HD
ATOM     28  H   UNL     1      50.293   2.250  18.670  0.00  0.00    +0.000 HD
ENDBRANCH  20  24
ENDBRANCH  16  17
ENDBRANCH  15  16
ENDBRANCH   4  15
TORSDOF 6
ENDMDL
MODEL 9
REMARK VINA RESULT:    -5.958      4.515      6.417
REMARK INTER + INTRA:          -9.000
REMARK INTER:                  -8.063
REMARK INTRA:                  -0.937
REMARK UNBOUND:                -0.952
REMARK  Name = 
REMARK  8 active torsions:
REMARK  status: ('A' for Active; 'I' for Inactive)
REMARK    1  A    between atoms: C_1  and  C_2
REMARK    2  A    between atoms: C_4  and  C_5
REMARK    3  A    between atoms: C_5  and  C_6
REMARK    4  A    between atoms: C_6  and  C_7
REMARK    5  A    between atoms: C_10  and  C_11
REMARK    6  A    between atoms: C_14  and  C_15
REMARK    7  A    between atoms: C_18  and  N_19
REMARK    8  A    between atoms: N_19  and  C_20
REMARK                            x       y       z     vdW  Elec       q    Type
REMARK                         _______ _______ _______ _____ _____    ______ ____
ROOT
ATOM      1  C   UNL     1      47.731   7.881  20.009  0.00  0.00    +0.000 C 
ATOM      2  C   UNL     1      48.464   7.395  18.793  0.00  0.00    +0.000 A 
ATOM      3  C   UNL     1      48.378   8.089  17.578  0.00  0.00    +0.000 A 
ATOM      4  C   UNL     1      48.956   7.567  16.415  0.00  0.00    +0.000 A 
ATOM      5  C   UNL     1      49.636   6.335  16.504  0.00  0.00    +0.000 A 
ATOM      6  C   UNL     1      49.781   5.657  17.716  0.00  0.00    +0.000 A 
ATOM      7  C   UNL     1      49.166   6.186  18.854  0.00  0.00    +0.000 A 
ENDROOT
BRANCH   6   8
ATOM      8  N   UNL     1      50.427   4.395  17.715  0.00  0.00    +0.000 N 
ATOM      9  H   UNL     1      51.162   4.418  17.007  0.00  0.00    +0.000 HD
BRANCH   8  10
ATOM     10  C   UNL     1      49.740   3.126  17.713  0.00  0.00    +0.000 C 
ATOM     11  C   UNL     1      50.519   2.028  16.962  0.00  0.00    +0.000 C 
ATOM     12  N   UNL     1      49.291   1.669  16.228  0.00  0.00    +0.000 NA
ATOM     13  C   UNL     1      48.672   2.948  16.622  0.00  0.00    +0.000 C 
ATOM     14  H   UNL     1      48.817   0.852  16.613  0.00  0.00    +0.000 HD
ENDBRANCH   8  10
ENDBRANCH   6   8
BRANCH   4  15
ATOM     15  C   UNL     1      48.712   8.160  15.043  0.00  0.00    +0.000 C 
BRANCH  15  16
ATOM     16  C   UNL     1      48.855   7.260  13.802  0.00  0.00    +0.000 C 
BRANCH  16  17
ATOM     17  C   UNL     1      47.635   6.549  13.257  0.00  0.00    +0.000 A 
ATOM     18  C   UNL     1      47.330   5.221  13.558  0.00  0.00    +0.000 A 
ATOM     19  C   UNL     1      46.070   4.699  13.251  0.00  0.00    +0.000 A 
ATOM     20  C   UNL     1      45.097   5.482  12.620  0.00  0.00    +0.000 A 
ATOM     21  C   UNL     1      45.426   6.769  12.174  0.00  0.00    +0.000 A 
ATOM     22  C   UNL     1      44.561   7.610  11.278  0.00  0.00    +0.000 C 
ATOM     23  C   UNL     1      46.684   7.297  12.534  0.00  0.00    +0.000 A 
BRANCH  20  24
ATOM     24  C   UNL     1      43.737   4.870  12.538  0.00  0.00    +0.000 C 
ATOM     25  N   UNL     1      42.747   5.445  13.295  0.00  0.00    +0.000 N 
ATOM     26  O   UNL     1      43.528   3.836  11.923  0.00  0.00    +0.000 OA
ATOM     27  H   UNL     1      42.938   6.164  13.978  0.00  0.00    +0.000 HD
ATOM     28  H   UNL     1      41.875   4.931  13.360  0.00  0.00    +0.000 HD
ENDBRANCH  20  24
ENDBRANCH  16  17
ENDBRANCH  15  16
ENDBRANCH   4  15
TORSDOF 6
ENDMDL
