MODEL 1
REMARK VINA RESULT:    -8.111      0.000      0.000
REMARK INTER + INTRA:         -12.916
REMARK INTER:                 -11.904
REMARK INTRA:                  -1.012
REMARK UNBOUND:                -1.012
REMARK  Name = 
REMARK  9 active torsions:
REMARK  status: ('A' for Active; 'I' for Inactive)
REMARK    1  A    between atoms: C_1  and  C_2
REMARK    2  A    between atoms: C_2  and  C_3
REMARK    3  A    between atoms: C_2  and  N_10
REMARK    4  A    between atoms: C_3  and  C_4
REMARK    5  A    between atoms: N_10  and  C_11
REMARK    6  A    between atoms: C_11  and  C_12
REMARK    7  A    between atoms: C_15  and  C_16
REMARK    8  A    between atoms: C_16  and  N_17
REMARK    9  A    between atoms: C_18  and  C_20
REMARK                            x       y       z     vdW  Elec       q    Type
REMARK                         _______ _______ _______ _____ _____    ______ ____
ROOT
ATOM      1  C   UNL     1      45.210   4.813  13.052  0.00  0.00    +0.000 A 
ATOM      2  C   UNL     1      45.192   6.195  12.818  0.00  0.00    +0.000 A 
ATOM      3  C   UNL     1      46.268   6.995  13.207  0.00  0.00    +0.000 A 
ATOM      4  C   UNL     1      47.380   6.429  13.843  0.00  0.00    +0.000 A 
ATOM      5  C   UNL     1      47.386   5.053  14.105  0.00  0.00    +0.000 A 
ATOM      6  C   UNL     1      46.316   4.252  13.704  0.00  0.00    +0.000 A 
ENDROOT
BRANCH   1   7
ATOM      7  C   UNL     1      44.051   3.940  12.628  0.00  0.00    +0.000 C 
BRANCH   7   8
ATOM      8  N   UNL     1      44.494   2.891  11.707  0.00  0.00    +0.000 NA
ATOM      9  H   UNL     1      45.375   2.523  12.067  0.00  0.00    +0.000 HD
BRANCH   8  11
ATOM     10  C   UNL     1      43.739   4.490   9.974  0.00  0.00    +0.000 C 
ATOM     11  C   UNL     1      44.730   3.376  10.333  0.00  0.00    +0.000 C 
BRANCH  11  12
ATOM     12  C   UNL     1      44.578   2.221   9.312  0.00  0.00    +0.000 C 
BRANCH  12  13
ATOM     13  C   UNL     1      45.689   2.162   8.291  0.00  0.00    +0.000 A 
ATOM     14  C   UNL     1      45.994   3.279   7.514  0.00  0.00    +0.000 A 
ATOM     15  C   UNL     1      46.996   3.179   6.552  0.00  0.00    +0.000 A 
ATOM     16  C   UNL     1      47.677   1.979   6.402  0.00  0.00    +0.000 A 
ATOM     17  C   UNL     1      47.321   0.920   7.222  0.00  0.00    +0.000 A 
ATOM     18  N   UNL     1      46.340   0.981   8.151  0.00  0.00    +0.000 NA
ENDBRANCH  12  13
ENDBRANCH  11  12
ENDBRANCH   8  11
ENDBRANCH   7   8
ENDBRANCH   1   7
BRANCH   4  19
ATOM     19  C   UNL     1      48.521   7.292  14.308  0.00  0.00    +0.000 C 
BRANCH  19  20
ATOM     20  N   UNL     1      48.545   7.356  15.745  0.00  0.00    +0.000 N 
ATOM     21  C   UNL     1      49.530   6.743  16.471  0.00  0.00    +0.000 C 
ATOM     22  O   UNL     1      50.452   6.135  15.933  0.00  0.00    +0.000 OA
ATOM     23  H   UNL     1      47.692   7.656  16.207  0.00  0.00    +0.000 HD
BRANCH  21  24
ATOM     24  C   UNL     1      49.467   6.911  17.927  0.00  0.00    +0.000 A 
ATOM     25  C   UNL     1      49.750   8.148  18.487  0.00  0.00    +0.000 A 
ATOM     26  S   UNL     1      49.559   8.193  20.181  0.00  0.00    +0.000 S 
ATOM     27  C   UNL     1      49.144   6.544  20.231  0.00  0.00    +0.000 A 
ATOM     28  N   UNL     1      48.865   5.930  21.413  0.00  0.00    +0.000 NA
ATOM     29  C   UNL     1      48.595   4.672  21.309  0.00  0.00    +0.000 A 
ATOM     30  N   UNL     1      48.574   3.971  20.128  0.00  0.00    +0.000 N 
ATOM     31  C   UNL     1      48.823   4.556  18.906  0.00  0.00    +0.000 A 
ATOM     32  O   UNL     1      48.762   3.910  17.867  0.00  0.00    +0.000 OA
ATOM     33  C   UNL     1      49.137   5.969  18.972  0.00  0.00    +0.000 A 
ATOM     34  H   UNL     1      48.353   2.988  20.117  0.00  0.00    +0.000 HD
ENDBRANCH  21  24
ENDBRANCH  19  20
ENDBRANCH   4  19
TORSDOF 8
ENDMDL
MODEL 2
REMARK VINA RESULT:    -7.991      2.836      3.456
REMARK INTER + INTRA:         -12.740
REMARK INTER:                 -11.228
REMARK INTRA:                  -1.512
REMARK UNBOUND:                -1.012
REMARK  Name = 
REMARK  9 active torsions:
REMARK  status: ('A' for Active; 'I' for Inactive)
REMARK    1  A    between atoms: C_1  and  C_2
REMARK    2  A    between atoms: C_2  and  C_3
REMARK    3  A    between atoms: C_2  and  N_10
REMARK    4  A    between atoms: C_3  and  C_4
REMARK    5  A    between atoms: N_10  and  C_11
REMARK    6  A    between atoms: C_11  and  C_12
REMARK    7  A    between atoms: C_15  and  C_16
REMARK    8  A    between atoms: C_16  and  N_17
REMARK    9  A    between atoms: C_18  and  C_20
REMARK                            x       y       z     vdW  Elec       q    Type
REMARK                         _______ _______ _______ _____ _____    ______ ____
ROOT
ATOM      1  C   UNL     1      46.719   4.937  13.578  0.00  0.00    +0.000 A 
ATOM      2  C   UNL     1      46.875   4.412  14.869  0.00  0.00    +0.000 A 
ATOM      3  C   UNL     1      47.716   5.036  15.792  0.00  0.00    +0.000 A 
ATOM      4  C   UNL     1      48.420   6.194  15.442  0.00  0.00    +0.000 A 
ATOM      5  C   UNL     1      48.289   6.702  14.143  0.00  0.00    +0.000 A 
ATOM      6  C   UNL     1      47.439   6.086  13.224  0.00  0.00    +0.000 A 
ENDROOT
BRANCH   1   7
ATOM      7  C   UNL     1      45.807   4.269  12.574  0.00  0.00    +0.000 C 
BRANCH   7   8
ATOM      8  N   UNL     1      45.787   5.009  11.310  0.00  0.00    +0.000 NA
ATOM      9  H   UNL     1      46.160   5.939  11.498  0.00  0.00    +0.000 HD
BRANCH   8  11
ATOM     10  C   UNL     1      43.417   5.478  11.847  0.00  0.00    +0.000 C 
ATOM     11  C   UNL     1      44.434   5.166  10.743  0.00  0.00    +0.000 C 
BRANCH  11  12
ATOM     12  C   UNL     1      43.995   3.875  10.008  0.00  0.00    +0.000 C 
BRANCH  12  13
ATOM     13  C   UNL     1      45.010   3.370   9.009  0.00  0.00    +0.000 A 
ATOM     14  C   UNL     1      45.332   2.015   8.954  0.00  0.00    +0.000 A 
ATOM     15  C   UNL     1      46.302   1.587   8.051  0.00  0.00    +0.000 A 
ATOM     16  C   UNL     1      46.911   2.516   7.219  0.00  0.00    +0.000 A 
ATOM     17  C   UNL     1      46.526   3.842   7.329  0.00  0.00    +0.000 A 
ATOM     18  N   UNL     1      45.602   4.290   8.208  0.00  0.00    +0.000 NA
ENDBRANCH  12  13
ENDBRANCH  11  12
ENDBRANCH   8  11
ENDBRANCH   7   8
ENDBRANCH   1   7
BRANCH   4  19
ATOM     19  C   UNL     1      49.363   6.844  16.416  0.00  0.00    +0.000 C 
BRANCH  19  20
ATOM     20  N   UNL     1      50.393   5.918  16.808  0.00  0.00    +0.000 N 
ATOM     21  C   UNL     1      50.604   5.599  18.122  0.00  0.00    +0.000 C 
ATOM     22  O   UNL     1      49.910   6.063  19.024  0.00  0.00    +0.000 OA
ATOM     23  H   UNL     1      51.104   5.701  16.117  0.00  0.00    +0.000 HD
BRANCH  21  24
ATOM     24  C   UNL     1      51.657   4.615  18.393  0.00  0.00    +0.000 A 
ATOM     25  C   UNL     1      52.793   5.001  19.090  0.00  0.00    +0.000 A 
ATOM     26  S   UNL     1      53.883   3.723  19.384  0.00  0.00    +0.000 S 
ATOM     27  C   UNL     1      52.900   2.619  18.541  0.00  0.00    +0.000 A 
ATOM     28  N   UNL     1      53.271   1.318  18.403  0.00  0.00    +0.000 NA
ATOM     29  C   UNL     1      52.448   0.599  17.716  0.00  0.00    +0.000 A 
ATOM     30  N   UNL     1      51.283   1.063  17.157  0.00  0.00    +0.000 N 
ATOM     31  C   UNL     1      50.854   2.366  17.293  0.00  0.00    +0.000 A 
ATOM     32  O   UNL     1      49.792   2.739  16.811  0.00  0.00    +0.000 OA
ATOM     33  C   UNL     1      51.749   3.214  18.054  0.00  0.00    +0.000 A 
ATOM     34  H   UNL     1      50.682   0.447  16.632  0.00  0.00    +0.000 HD
ENDBRANCH  21  24
ENDBRANCH  19  20
ENDBRANCH   4  19
TORSDOF 8
ENDMDL
MODEL 3
REMARK VINA RESULT:    -7.722      1.797      2.173
REMARK INTER + INTRA:         -12.345
REMARK INTER:                 -10.921
REMARK INTRA:                  -1.424
REMARK UNBOUND:                -1.012
REMARK  Name = 
REMARK  9 active torsions:
REMARK  status: ('A' for Active; 'I' for Inactive)
REMARK    1  A    between atoms: C_1  and  C_2
REMARK    2  A    between atoms: C_2  and  C_3
REMARK    3  A    between atoms: C_2  and  N_10
REMARK    4  A    between atoms: C_3  and  C_4
REMARK    5  A    between atoms: N_10  and  C_11
REMARK    6  A    between atoms: C_11  and  C_12
REMARK    7  A    between atoms: C_15  and  C_16
REMARK    8  A    between atoms: C_16  and  N_17
REMARK    9  A    between atoms: C_18  and  C_20
REMARK                            x       y       z     vdW  Elec       q    Type
REMARK                         _______ _______ _______ _____ _____    ______ ____
ROOT
ATOM      1  C   UNL     1      45.158   6.713  11.540  0.00  0.00    +0.000 A 
ATOM      2  C   UNL     1      44.876   7.947  12.144  0.00  0.00    +0.000 A 
ATOM      3  C   UNL     1      45.836   8.589  12.928  0.00  0.00    +0.000 A 
ATOM      4  C   UNL     1      47.094   8.008  13.128  0.00  0.00    +0.000 A 
ATOM      5  C   UNL     1      47.366   6.761  12.551  0.00  0.00    +0.000 A 
ATOM      6  C   UNL     1      46.411   6.125  11.757  0.00  0.00    +0.000 A 
ENDROOT
BRANCH   1   7
ATOM      7  C   UNL     1      44.125   6.014  10.685  0.00  0.00    +0.000 C 
BRANCH   7   8
ATOM      8  N   UNL     1      44.750   5.002   9.830  0.00  0.00    +0.000 NA
ATOM      9  H   UNL     1      44.690   5.340   8.869  0.00  0.00    +0.000 HD
BRANCH   8  11
ATOM     10  C   UNL     1      43.307   3.536  11.207  0.00  0.00    +0.000 C 
ATOM     11  C   UNL     1      44.084   3.687   9.893  0.00  0.00    +0.000 C 
BRANCH  11  12
ATOM     12  C   UNL     1      45.123   2.542   9.791  0.00  0.00    +0.000 C 
BRANCH  12  13
ATOM     13  C   UNL     1      45.826   2.477   8.456  0.00  0.00    +0.000 A 
ATOM     14  C   UNL     1      46.459   1.304   8.048  0.00  0.00    +0.000 A 
ATOM     15  C   UNL     1      47.134   1.289   6.830  0.00  0.00    +0.000 A 
ATOM     16  C   UNL     1      47.146   2.435   6.046  0.00  0.00    +0.000 A 
ATOM     17  C   UNL     1      46.483   3.555   6.519  0.00  0.00    +0.000 A 
ATOM     18  N   UNL     1      45.836   3.606   7.705  0.00  0.00    +0.000 NA
ENDBRANCH  12  13
ENDBRANCH  11  12
ENDBRANCH   8  11
ENDBRANCH   7   8
ENDBRANCH   1   7
BRANCH   4  19
ATOM     19  C   UNL     1      48.115   8.671  14.010  0.00  0.00    +0.000 C 
BRANCH  19  20
ATOM     20  N   UNL     1      48.362   7.869  15.179  0.00  0.00    +0.000 N 
ATOM     21  C   UNL     1      49.597   7.337  15.432  0.00  0.00    +0.000 C 
ATOM     22  O   UNL     1      50.558   7.540  14.693  0.00  0.00    +0.000 OA
ATOM     23  H   UNL     1      47.549   7.513  15.673  0.00  0.00    +0.000 HD
BRANCH  21  24
ATOM     24  C   UNL     1      49.733   6.568  16.674  0.00  0.00    +0.000 A 
ATOM     25  C   UNL     1      50.617   6.999  17.653  0.00  0.00    +0.000 A 
ATOM     26  S   UNL     1      50.600   6.038  19.062  0.00  0.00    +0.000 S 
ATOM     27  C   UNL     1      49.449   4.979  18.390  0.00  0.00    +0.000 A 
ATOM     28  N   UNL     1      49.000   3.901  19.088  0.00  0.00    +0.000 NA
ATOM     29  C   UNL     1      48.153   3.168  18.449  0.00  0.00    +0.000 A 
ATOM     30  N   UNL     1      47.709   3.416  17.174  0.00  0.00    +0.000 N 
ATOM     31  C   UNL     1      48.114   4.509  16.439  0.00  0.00    +0.000 A 
ATOM     32  O   UNL     1      47.672   4.720  15.317  0.00  0.00    +0.000 OA
ATOM     33  C   UNL     1      49.072   5.362  17.114  0.00  0.00    +0.000 A 
ATOM     34  H   UNL     1      47.042   2.802  16.731  0.00  0.00    +0.000 HD
ENDBRANCH  21  24
ENDBRANCH  19  20
ENDBRANCH   4  19
TORSDOF 8
ENDMDL
MODEL 4
REMARK VINA RESULT:    -7.629      1.732      2.352
REMARK INTER + INTRA:         -12.209
REMARK INTER:                 -10.805
REMARK INTRA:                  -1.404
REMARK UNBOUND:                -1.012
REMARK  Name = 
REMARK  9 active torsions:
REMARK  status: ('A' for Active; 'I' for Inactive)
REMARK    1  A    between atoms: C_1  and  C_2
REMARK    2  A    between atoms: C_2  and  C_3
REMARK    3  A    between atoms: C_2  and  N_10
REMARK    4  A    between atoms: C_3  and  C_4
REMARK    5  A    between atoms: N_10  and  C_11
REMARK    6  A    between atoms: C_11  and  C_12
REMARK    7  A    between atoms: C_15  and  C_16
REMARK    8  A    between atoms: C_16  and  N_17
REMARK    9  A    between atoms: C_18  and  C_20
REMARK                            x       y       z     vdW  Elec       q    Type
REMARK                         _______ _______ _______ _____ _____    ______ ____
ROOT
ATOM      1  C   UNL     1      46.010   6.351  11.967  0.00  0.00    +0.000 A 
ATOM      2  C   UNL     1      46.976   7.338  11.727  0.00  0.00    +0.000 A 
ATOM      3  C   UNL     1      48.063   7.492  12.590  0.00  0.00    +0.000 A 
ATOM      4  C   UNL     1      48.201   6.667  13.712  0.00  0.00    +0.000 A 
ATOM      5  C   UNL     1      47.221   5.700  13.970  0.00  0.00    +0.000 A 
ATOM      6  C   UNL     1      46.141   5.538  13.101  0.00  0.00    +0.000 A 
ENDROOT
BRANCH   1   7
ATOM      7  C   UNL     1      44.833   6.175  11.035  0.00  0.00    +0.000 C 
BRANCH   7   8
ATOM      8  N   UNL     1      45.165   5.263   9.938  0.00  0.00    +0.000 NA
ATOM      9  H   UNL     1      45.146   5.807   9.075  0.00  0.00    +0.000 HD
BRANCH   8  11
ATOM     10  C   UNL     1      43.256   4.091  10.992  0.00  0.00    +0.000 C 
ATOM     11  C   UNL     1      44.211   4.146   9.793  0.00  0.00    +0.000 C 
BRANCH  11  12
ATOM     12  C   UNL     1      44.963   2.795   9.690  0.00  0.00    +0.000 C 
BRANCH  12  13
ATOM     13  C   UNL     1      45.730   2.623   8.400  0.00  0.00    +0.000 A 
ATOM     14  C   UNL     1      46.350   1.410   8.104  0.00  0.00    +0.000 A 
ATOM     15  C   UNL     1      47.085   1.297   6.926  0.00  0.00    +0.000 A 
ATOM     16  C   UNL     1      47.168   2.388   6.071  0.00  0.00    +0.000 A 
ATOM     17  C   UNL     1      46.514   3.553   6.434  0.00  0.00    +0.000 A 
ATOM     18  N   UNL     1      45.809   3.699   7.579  0.00  0.00    +0.000 NA
ENDBRANCH  12  13
ENDBRANCH  11  12
ENDBRANCH   8  11
ENDBRANCH   7   8
ENDBRANCH   1   7
BRANCH   4  19
ATOM     19  C   UNL     1      49.343   6.859  14.671  0.00  0.00    +0.000 C 
BRANCH  19  20
ATOM     20  N   UNL     1      48.916   6.585  16.018  0.00  0.00    +0.000 N 
ATOM     21  C   UNL     1      49.741   5.967  16.917  0.00  0.00    +0.000 C 
ATOM     22  O   UNL     1      50.891   5.642  16.630  0.00  0.00    +0.000 OA
ATOM     23  H   UNL     1      47.919   6.642  16.205  0.00  0.00    +0.000 HD
BRANCH  21  24
ATOM     24  C   UNL     1      49.205   5.777  18.269  0.00  0.00    +0.000 A 
ATOM     25  C   UNL     1      49.269   4.524  18.862  0.00  0.00    +0.000 A 
ATOM     26  S   UNL     1      48.671   4.491  20.459  0.00  0.00    +0.000 S 
ATOM     27  C   UNL     1      48.255   6.139  20.395  0.00  0.00    +0.000 A 
ATOM     28  N   UNL     1      47.671   6.754  21.458  0.00  0.00    +0.000 NA
ATOM     29  C   UNL     1      47.382   7.997  21.262  0.00  0.00    +0.000 A 
ATOM     30  N   UNL     1      47.628   8.683  20.099  0.00  0.00    +0.000 N 
ATOM     31  C   UNL     1      48.241   8.110  19.006  0.00  0.00    +0.000 A 
ATOM     32  O   UNL     1      48.478   8.760  17.996  0.00  0.00    +0.000 OA
ATOM     33  C   UNL     1      48.581   6.711  19.176  0.00  0.00    +0.000 A 
ATOM     34  H   UNL     1      47.379   9.656  20.013  0.00  0.00    +0.000 HD
ENDBRANCH  21  24
ENDBRANCH  19  20
ENDBRANCH   4  19
TORSDOF 8
ENDMDL
MODEL 5
REMARK VINA RESULT:    -7.587      3.946     10.115
REMARK INTER + INTRA:         -12.148
REMARK INTER:                  -9.640
REMARK INTRA:                  -2.508
REMARK UNBOUND:                -1.012
REMARK  Name = 
REMARK  9 active torsions:
REMARK  status: ('A' for Active; 'I' for Inactive)
REMARK    1  A    between atoms: C_1  and  C_2
REMARK    2  A    between atoms: C_2  and  C_3
REMARK    3  A    between atoms: C_2  and  N_10
REMARK    4  A    between atoms: C_3  and  C_4
REMARK    5  A    between atoms: N_10  and  C_11
REMARK    6  A    between atoms: C_11  and  C_12
REMARK    7  A    between atoms: C_15  and  C_16
REMARK    8  A    between atoms: C_16  and  N_17
REMARK    9  A    between atoms: C_18  and  C_20
REMARK                            x       y       z     vdW  Elec       q    Type
REMARK                         _______ _______ _______ _____ _____    ______ ____
ROOT
ATOM      1  C   UNL     1      51.408   4.403  17.753  0.00  0.00    +0.000 A 
ATOM      2  C   UNL     1      50.521   5.426  17.389  0.00  0.00    +0.000 A 
ATOM      3  C   UNL     1      49.199   5.132  17.050  0.00  0.00    +0.000 A 
ATOM      4  C   UNL     1      48.741   3.809  17.061  0.00  0.00    +0.000 A 
ATOM      5  C   UNL     1      49.634   2.783  17.395  0.00  0.00    +0.000 A 
ATOM      6  C   UNL     1      50.951   3.078  17.747  0.00  0.00    +0.000 A 
ENDROOT
BRANCH   1   7
ATOM      7  C   UNL     1      52.839   4.715  18.128  0.00  0.00    +0.000 C 
BRANCH   7   8
ATOM      8  N   UNL     1      52.900   5.796  19.113  0.00  0.00    +0.000 NA
ATOM      9  H   UNL     1      53.528   6.509  18.742  0.00  0.00    +0.000 HD
BRANCH   8  11
ATOM     10  C   UNL     1      53.514   3.838  20.498  0.00  0.00    +0.000 C 
ATOM     11  C   UNL     1      53.423   5.367  20.425  0.00  0.00    +0.000 C 
BRANCH  11  12
ATOM     12  C   UNL     1      52.507   5.869  21.570  0.00  0.00    +0.000 C 
BRANCH  12  13
ATOM     13  C   UNL     1      51.047   5.942  21.191  0.00  0.00    +0.000 A 
ATOM     14  C   UNL     1      50.236   4.812  21.288  0.00  0.00    +0.000 A 
ATOM     15  C   UNL     1      48.904   4.900  20.891  0.00  0.00    +0.000 A 
ATOM     16  C   UNL     1      48.413   6.113  20.425  0.00  0.00    +0.000 A 
ATOM     17  C   UNL     1      49.282   7.190  20.370  0.00  0.00    +0.000 A 
ATOM     18  N   UNL     1      50.584   7.130  20.730  0.00  0.00    +0.000 NA
ENDBRANCH  12  13
ENDBRANCH  11  12
ENDBRANCH   8  11
ENDBRANCH   7   8
ENDBRANCH   1   7
BRANCH   4  19
ATOM     19  C   UNL     1      47.332   3.480  16.650  0.00  0.00    +0.000 C 
BRANCH  19  20
ATOM     20  N   UNL     1      46.840   4.465  15.722  0.00  0.00    +0.000 N 
ATOM     21  C   UNL     1      46.840   4.237  14.373  0.00  0.00    +0.000 C 
ATOM     22  O   UNL     1      47.231   3.176  13.892  0.00  0.00    +0.000 OA
ATOM     23  H   UNL     1      46.723   5.410  16.074  0.00  0.00    +0.000 HD
BRANCH  21  24
ATOM     24  C   UNL     1      46.279   5.301  13.533  0.00  0.00    +0.000 A 
ATOM     25  C   UNL     1      47.024   6.445  13.287  0.00  0.00    +0.000 A 
ATOM     26  S   UNL     1      46.259   7.547  12.234  0.00  0.00    +0.000 S 
ATOM     27  C   UNL     1      44.880   6.558  12.114  0.00  0.00    +0.000 A 
ATOM     28  N   UNL     1      43.814   6.934  11.358  0.00  0.00    +0.000 NA
ATOM     29  C   UNL     1      42.825   6.105  11.380  0.00  0.00    +0.000 A 
ATOM     30  N   UNL     1      42.807   4.929  12.088  0.00  0.00    +0.000 N 
ATOM     31  C   UNL     1      43.873   4.493  12.845  0.00  0.00    +0.000 A 
ATOM     32  O   UNL     1      43.837   3.422  13.437  0.00  0.00    +0.000 OA
ATOM     33  C   UNL     1      45.007   5.395  12.856  0.00  0.00    +0.000 A 
ATOM     34  H   UNL     1      42.001   4.323  12.060  0.00  0.00    +0.000 HD
ENDBRANCH  21  24
ENDBRANCH  19  20
ENDBRANCH   4  19
TORSDOF 8
ENDMDL
MODEL 6
REMARK VINA RESULT:    -7.475      3.387      9.144
REMARK INTER + INTRA:         -11.983
REMARK INTER:                  -9.951
REMARK INTRA:                  -2.031
REMARK UNBOUND:                -1.012
REMARK  Name = 
REMARK  9 active torsions:
REMARK  status: ('A' for Active; 'I' for Inactive)
REMARK    1  A    between atoms: C_1  and  C_2
REMARK    2  A    between atoms: C_2  and  C_3
REMARK    3  A    between atoms: C_2  and  N_10
REMARK    4  A    between atoms: C_3  and  C_4
REMARK    5  A    between atoms: N_10  and  C_11
REMARK    6  A    between atoms: C_11  and  C_12
REMARK    7  A    between atoms: C_15  and  C_16
REMARK    8  A    between atoms: C_16  and  N_17
REMARK    9  A    between atoms: C_18  and  C_20
REMARK                            x       y       z     vdW  Elec       q    Type
REMARK                         _______ _______ _______ _____ _____    ______ ____
ROOT
ATOM      1  C   UNL     1      49.227   8.170  15.962  0.00  0.00    +0.000 A 
ATOM      2  C   UNL     1      49.232   6.937  15.294  0.00  0.00    +0.000 A 
ATOM      3  C   UNL     1      48.743   6.834  13.990  0.00  0.00    +0.000 A 
ATOM      4  C   UNL     1      48.234   7.960  13.332  0.00  0.00    +0.000 A 
ATOM      5  C   UNL     1      48.201   9.186  14.009  0.00  0.00    +0.000 A 
ATOM      6  C   UNL     1      48.701   9.292  15.307  0.00  0.00    +0.000 A 
ENDROOT
BRANCH   1   7
ATOM      7  C   UNL     1      49.760   8.290  17.372  0.00  0.00    +0.000 C 
BRANCH   7   8
ATOM      8  N   UNL     1      49.274   7.194  18.212  0.00  0.00    +0.000 NA
ATOM      9  H   UNL     1      49.373   6.333  17.674  0.00  0.00    +0.000 HD
BRANCH   8  11
ATOM     10  C   UNL     1      47.706   8.288  19.784  0.00  0.00    +0.000 C 
ATOM     11  C   UNL     1      47.855   7.331  18.595  0.00  0.00    +0.000 C 
BRANCH  11  12
ATOM     12  C   UNL     1      47.258   5.955  18.982  0.00  0.00    +0.000 C 
BRANCH  12  13
ATOM     13  C   UNL     1      47.863   4.796  18.225  0.00  0.00    +0.000 A 
ATOM     14  C   UNL     1      47.219   4.270  17.106  0.00  0.00    +0.000 A 
ATOM     15  C   UNL     1      47.781   3.175  16.455  0.00  0.00    +0.000 A 
ATOM     16  C   UNL     1      48.974   2.645  16.926  0.00  0.00    +0.000 A 
ATOM     17  C   UNL     1      49.556   3.233  18.037  0.00  0.00    +0.000 A 
ATOM     18  N   UNL     1      49.025   4.284  18.701  0.00  0.00    +0.000 NA
ENDBRANCH  12  13
ENDBRANCH  11  12
ENDBRANCH   8  11
ENDBRANCH   7   8
ENDBRANCH   1   7
BRANCH   4  19
ATOM     19  C   UNL     1      47.662   7.847  11.946  0.00  0.00    +0.000 C 
BRANCH  19  20
ATOM     20  N   UNL     1      46.965   6.597  11.794  0.00  0.00    +0.000 N 
ATOM     21  C   UNL     1      45.598   6.540  11.770  0.00  0.00    +0.000 C 
ATOM     22  O   UNL     1      44.903   7.550  11.847  0.00  0.00    +0.000 OA
ATOM     23  H   UNL     1      47.503   5.749  11.949  0.00  0.00    +0.000 HD
BRANCH  21  24
ATOM     24  C   UNL     1      45.005   5.213  11.573  0.00  0.00    +0.000 A 
ATOM     25  C   UNL     1      44.340   4.596  12.623  0.00  0.00    +0.000 A 
ATOM     26  S   UNL     1      43.647   3.095  12.207  0.00  0.00    +0.000 S 
ATOM     27  C   UNL     1      44.259   3.190  10.622  0.00  0.00    +0.000 A 
ATOM     28  N   UNL     1      44.035   2.192   9.725  0.00  0.00    +0.000 NA
ATOM     29  C   UNL     1      44.581   2.380   8.571  0.00  0.00    +0.000 A 
ATOM     30  N   UNL     1      45.330   3.479   8.230  0.00  0.00    +0.000 N 
ATOM     31  C   UNL     1      45.561   4.526   9.095  0.00  0.00    +0.000 A 
ATOM     32  O   UNL     1      46.205   5.508   8.748  0.00  0.00    +0.000 OA
ATOM     33  C   UNL     1      44.971   4.358  10.408  0.00  0.00    +0.000 A 
ATOM     34  H   UNL     1      45.727   3.566   7.308  0.00  0.00    +0.000 HD
ENDBRANCH  21  24
ENDBRANCH  19  20
ENDBRANCH   4  19
TORSDOF 8
ENDMDL
MODEL 7
REMARK VINA RESULT:    -7.339      3.906      9.434
REMARK INTER + INTRA:         -11.784
REMARK INTER:                  -9.015
REMARK INTRA:                  -2.769
REMARK UNBOUND:                -1.012
REMARK  Name = 
REMARK  9 active torsions:
REMARK  status: ('A' for Active; 'I' for Inactive)
REMARK    1  A    between atoms: C_1  and  C_2
REMARK    2  A    between atoms: C_2  and  C_3
REMARK    3  A    between atoms: C_2  and  N_10
REMARK    4  A    between atoms: C_3  and  C_4
REMARK    5  A    between atoms: N_10  and  C_11
REMARK    6  A    between atoms: C_11  and  C_12
REMARK    7  A    between atoms: C_15  and  C_16
REMARK    8  A    between atoms: C_16  and  N_17
REMARK    9  A    between atoms: C_18  and  C_20
REMARK                            x       y       z     vdW  Elec       q    Type
REMARK                         _______ _______ _______ _____ _____    ______ ____
ROOT
ATOM      1  C   UNL     1      49.036   5.422  19.971  0.00  0.00    +0.000 A 
ATOM      2  C   UNL     1      49.774   4.414  19.337  0.00  0.00    +0.000 A 
ATOM      3  C   UNL     1      49.290   3.801  18.179  0.00  0.00    +0.000 A 
ATOM      4  C   UNL     1      48.056   4.180  17.638  0.00  0.00    +0.000 A 
ATOM      5  C   UNL     1      47.303   5.167  18.288  0.00  0.00    +0.000 A 
ATOM      6  C   UNL     1      47.793   5.788  19.438  0.00  0.00    +0.000 A 
ENDROOT
BRANCH   1   7
ATOM      7  C   UNL     1      49.556   6.094  21.221  0.00  0.00    +0.000 C 
BRANCH   7   8
ATOM      8  N   UNL     1      50.167   7.387  20.907  0.00  0.00    +0.000 NA
ATOM      9  H   UNL     1      49.595   7.825  20.184  0.00  0.00    +0.000 HD
BRANCH   8  11
ATOM     10  C   UNL     1      52.560   7.687  21.465  0.00  0.00    +0.000 C 
ATOM     11  C   UNL     1      51.546   7.276  20.391  0.00  0.00    +0.000 C 
BRANCH  11  12
ATOM     12  C   UNL     1      51.738   8.181  19.148  0.00  0.00    +0.000 C 
BRANCH  12  13
ATOM     13  C   UNL     1      50.752   7.905  18.037  0.00  0.00    +0.000 A 
ATOM     14  C   UNL     1      51.049   6.972  17.045  0.00  0.00    +0.000 A 
ATOM     15  C   UNL     1      50.138   6.771  16.012  0.00  0.00    +0.000 A 
ATOM     16  C   UNL     1      48.951   7.492  16.003  0.00  0.00    +0.000 A 
ATOM     17  C   UNL     1      48.728   8.392  17.032  0.00  0.00    +0.000 A 
ATOM     18  N   UNL     1      49.601   8.622  18.038  0.00  0.00    +0.000 NA
ENDBRANCH  12  13
ENDBRANCH  11  12
ENDBRANCH   8  11
ENDBRANCH   7   8
ENDBRANCH   1   7
BRANCH   4  19
ATOM     19  C   UNL     1      47.506   3.491  16.420  0.00  0.00    +0.000 C 
BRANCH  19  20
ATOM     20  N   UNL     1      46.911   4.452  15.529  0.00  0.00    +0.000 N 
ATOM     21  C   UNL     1      46.720   4.173  14.203  0.00  0.00    +0.000 C 
ATOM     22  O   UNL     1      47.019   3.085  13.716  0.00  0.00    +0.000 OA
ATOM     23  H   UNL     1      46.863   5.413  15.854  0.00  0.00    +0.000 HD
BRANCH  21  24
ATOM     24  C   UNL     1      46.070   5.218  13.405  0.00  0.00    +0.000 A 
ATOM     25  C   UNL     1      46.735   6.412  13.167  0.00  0.00    +0.000 A 
ATOM     26  S   UNL     1      45.873   7.488  12.163  0.00  0.00    +0.000 S 
ATOM     27  C   UNL     1      44.555   6.417  12.055  0.00  0.00    +0.000 A 
ATOM     28  N   UNL     1      43.447   6.743  11.337  0.00  0.00    +0.000 NA
ATOM     29  C   UNL     1      42.513   5.852  11.365  0.00  0.00    +0.000 A 
ATOM     30  N   UNL     1      42.588   4.661  12.044  0.00  0.00    +0.000 N 
ATOM     31  C   UNL     1      43.700   4.277  12.761  0.00  0.00    +0.000 A 
ATOM     32  O   UNL     1      43.748   3.192  13.327  0.00  0.00    +0.000 OA
ATOM     33  C   UNL     1      44.775   5.248  12.764  0.00  0.00    +0.000 A 
ATOM     34  H   UNL     1      41.821   4.007  12.023  0.00  0.00    +0.000 HD
ENDBRANCH  21  24
ENDBRANCH  19  20
ENDBRANCH   4  19
TORSDOF 8
ENDMDL
MODEL 8
REMARK VINA RESULT:    -7.224      3.743      9.464
REMARK INTER + INTRA:         -11.615
REMARK INTER:                  -8.895
REMARK INTRA:                  -2.720
REMARK UNBOUND:                -1.012
REMARK  Name = 
REMARK  9 active torsions:
REMARK  status: ('A' for Active; 'I' for Inactive)
REMARK    1  A    between atoms: C_1  and  C_2
REMARK    2  A    between atoms: C_2  and  C_3
REMARK    3  A    between atoms: C_2  and  N_10
REMARK    4  A    between atoms: C_3  and  C_4
REMARK    5  A    between atoms: N_10  and  C_11
REMARK    6  A    between atoms: C_11  and  C_12
REMARK    7  A    between atoms: C_15  and  C_16
REMARK    8  A    between atoms: C_16  and  N_17
REMARK    9  A    between atoms: C_18  and  C_20
REMARK                            x       y       z     vdW  Elec       q    Type
REMARK                         _______ _______ _______ _____ _____    ______ ____
ROOT
ATOM      1  C   UNL     1      49.905   4.979  17.412  0.00  0.00    +0.000 A 
ATOM      2  C   UNL     1      48.600   4.800  16.932  0.00  0.00    +0.000 A 
ATOM      3  C   UNL     1      48.089   5.634  15.936  0.00  0.00    +0.000 A 
ATOM      4  C   UNL     1      48.871   6.667  15.405  0.00  0.00    +0.000 A 
ATOM      5  C   UNL     1      50.165   6.866  15.904  0.00  0.00    +0.000 A 
ATOM      6  C   UNL     1      50.680   6.024  16.891  0.00  0.00    +0.000 A 
ENDROOT
BRANCH   1   7
ATOM      7  C   UNL     1      50.467   4.076  18.486  0.00  0.00    +0.000 C 
BRANCH   7   8
ATOM      8  N   UNL     1      49.787   4.294  19.764  0.00  0.00    +0.000 NA
ATOM      9  H   UNL     1      48.799   4.447  19.559  0.00  0.00    +0.000 HD
BRANCH   8  11
ATOM     10  C   UNL     1      50.961   5.040  21.812  0.00  0.00    +0.000 C 
ATOM     11  C   UNL     1      50.286   5.470  20.503  0.00  0.00    +0.000 C 
BRANCH  11  12
ATOM     12  C   UNL     1      49.124   6.440  20.834  0.00  0.00    +0.000 C 
BRANCH  12  13
ATOM     13  C   UNL     1      48.960   7.556  19.829  0.00  0.00    +0.000 A 
ATOM     14  C   UNL     1      47.769   7.693  19.116  0.00  0.00    +0.000 A 
ATOM     15  C   UNL     1      47.664   8.705  18.166  0.00  0.00    +0.000 A 
ATOM     16  C   UNL     1      48.738   9.561  17.964  0.00  0.00    +0.000 A 
ATOM     17  C   UNL     1      49.881   9.364  18.721  0.00  0.00    +0.000 A 
ATOM     18  N   UNL     1      50.020   8.379  19.636  0.00  0.00    +0.000 NA
ENDBRANCH  12  13
ENDBRANCH  11  12
ENDBRANCH   8  11
ENDBRANCH   7   8
ENDBRANCH   1   7
BRANCH   4  19
ATOM     19  C   UNL     1      48.311   7.599  14.366  0.00  0.00    +0.000 C 
BRANCH  19  20
ATOM     20  N   UNL     1      47.069   7.085  13.852  0.00  0.00    +0.000 N 
ATOM     21  C   UNL     1      46.857   6.943  12.507  0.00  0.00    +0.000 C 
ATOM     22  O   UNL     1      47.722   7.219  11.679  0.00  0.00    +0.000 OA
ATOM     23  H   UNL     1      46.281   7.062  14.491  0.00  0.00    +0.000 HD
BRANCH  21  24
ATOM     24  C   UNL     1      45.566   6.373  12.108  0.00  0.00    +0.000 A 
ATOM     25  C   UNL     1      44.602   7.193  11.540  0.00  0.00    +0.000 A 
ATOM     26  S   UNL     1      43.190   6.362  11.066  0.00  0.00    +0.000 S 
ATOM     27  C   UNL     1      43.797   4.885  11.653  0.00  0.00    +0.000 A 
ATOM     28  N   UNL     1      43.060   3.745  11.570  0.00  0.00    +0.000 NA
ATOM     29  C   UNL     1      43.629   2.705  12.081  0.00  0.00    +0.000 A 
ATOM     30  N   UNL     1      44.871   2.700  12.665  0.00  0.00    +0.000 N 
ATOM     31  C   UNL     1      45.664   3.824  12.748  0.00  0.00    +0.000 A 
ATOM     32  O   UNL     1      46.782   3.779  13.245  0.00  0.00    +0.000 OA
ATOM     33  C   UNL     1      45.065   5.021  12.192  0.00  0.00    +0.000 A 
ATOM     34  H   UNL     1      45.259   1.851  13.044  0.00  0.00    +0.000 HD
ENDBRANCH  21  24
ENDBRANCH  19  20
ENDBRANCH   4  19
TORSDOF 8
ENDMDL
MODEL 9
REMARK VINA RESULT:    -7.172      2.016      2.791
REMARK INTER + INTRA:         -11.539
REMARK INTER:                  -9.791
REMARK INTRA:                  -1.748
REMARK UNBOUND:                -1.012
REMARK  Name = 
REMARK  9 active torsions:
REMARK  status: ('A' for Active; 'I' for Inactive)
REMARK    1  A    between atoms: C_1  and  C_2
REMARK    2  A    between atoms: C_2  and  C_3
REMARK    3  A    between atoms: C_2  and  N_10
REMARK    4  A    between atoms: C_3  and  C_4
REMARK    5  A    between atoms: N_10  and  C_11
REMARK    6  A    between atoms: C_11  and  C_12
REMARK    7  A    between atoms: C_15  and  C_16
REMARK    8  A    between atoms: C_16  and  N_17
REMARK    9  A    between atoms: C_18  and  C_20
REMARK                            x       y       z     vdW  Elec       q    Type
REMARK                         _______ _______ _______ _____ _____    ______ ____
ROOT
ATOM      1  C   UNL     1      46.381   7.945  11.988  0.00  0.00    +0.000 A 
ATOM      2  C   UNL     1      46.829   9.084  12.673  0.00  0.00    +0.000 A 
ATOM      3  C   UNL     1      48.116   9.127  13.213  0.00  0.00    +0.000 A 
ATOM      4  C   UNL     1      48.977   8.030  13.084  0.00  0.00    +0.000 A 
ATOM      5  C   UNL     1      48.520   6.881  12.426  0.00  0.00    +0.000 A 
ATOM      6  C   UNL     1      47.238   6.843  11.875  0.00  0.00    +0.000 A 
ENDROOT
BRANCH   1   7
ATOM      7  C   UNL     1      44.991   7.894  11.396  0.00  0.00    +0.000 C 
BRANCH   7   8
ATOM      8  N   UNL     1      44.133   6.978  12.149  0.00  0.00    +0.000 NA
ATOM      9  H   UNL     1      44.696   6.587  12.905  0.00  0.00    +0.000 HD
BRANCH   8  11
ATOM     10  C   UNL     1      42.169   5.529  11.734  0.00  0.00    +0.000 C 
ATOM     11  C   UNL     1      43.615   5.857  11.341  0.00  0.00    +0.000 C 
BRANCH  11  12
ATOM     12  C   UNL     1      44.487   4.592  11.538  0.00  0.00    +0.000 C 
BRANCH  12  13
ATOM     13  C   UNL     1      44.962   3.973  10.245  0.00  0.00    +0.000 A 
ATOM     14  C   UNL     1      45.479   4.774   9.228  0.00  0.00    +0.000 A 
ATOM     15  C   UNL     1      45.868   4.179   8.031  0.00  0.00    +0.000 A 
ATOM     16  C   UNL     1      45.748   2.803   7.886  0.00  0.00    +0.000 A 
ATOM     17  C   UNL     1      45.235   2.078   8.949  0.00  0.00    +0.000 A 
ATOM     18  N   UNL     1      44.831   2.630  10.115  0.00  0.00    +0.000 NA
ENDBRANCH  12  13
ENDBRANCH  11  12
ENDBRANCH   8  11
ENDBRANCH   7   8
ENDBRANCH   1   7
BRANCH   4  19
ATOM     19  C   UNL     1      50.347   8.051  13.704  0.00  0.00    +0.000 C 
BRANCH  19  20
ATOM     20  N   UNL     1      50.384   7.196  14.861  0.00  0.00    +0.000 N 
ATOM     21  C   UNL     1      50.107   7.675  16.112  0.00  0.00    +0.000 C 
ATOM     22  O   UNL     1      49.785   8.845  16.306  0.00  0.00    +0.000 OA
ATOM     23  H   UNL     1      50.853   6.301  14.756  0.00  0.00    +0.000 HD
BRANCH  21  24
ATOM     24  C   UNL     1      50.141   6.697  17.206  0.00  0.00    +0.000 A 
ATOM     25  C   UNL     1      51.020   6.884  18.264  0.00  0.00    +0.000 A 
ATOM     26  S   UNL     1      50.882   5.701  19.484  0.00  0.00    +0.000 S 
ATOM     27  C   UNL     1      49.680   4.866  18.615  0.00  0.00    +0.000 A 
ATOM     28  N   UNL     1      49.129   3.724  19.106  0.00  0.00    +0.000 NA
ATOM     29  C   UNL     1      48.252   3.179  18.331  0.00  0.00    +0.000 A 
ATOM     30  N   UNL     1      47.873   3.676  17.109  0.00  0.00    +0.000 N 
ATOM     31  C   UNL     1      48.384   4.843  16.583  0.00  0.00    +0.000 A 
ATOM     32  O   UNL     1      47.999   5.277  15.504  0.00  0.00    +0.000 OA
ATOM     33  C   UNL     1      49.378   5.489  17.416  0.00  0.00    +0.000 A 
ATOM     34  H   UNL     1      47.179   3.201  16.552  0.00  0.00    +0.000 HD
ENDBRANCH  21  24
ENDBRANCH  19  20
ENDBRANCH   4  19
TORSDOF 8
ENDMDL
