MODEL 1
REMARK VINA RESULT:    -8.688      0.000      0.000
REMARK INTER + INTRA:         -13.559
REMARK INTER:                 -12.244
REMARK INTRA:                  -1.315
REMARK UNBOUND:                -1.315
REMARK  Name = 
REMARK  8 active torsions:
REMARK  status: ('A' for Active; 'I' for Inactive)
REMARK    1  A    between atoms: C_1  and  C_2
REMARK    2  A    between atoms: C_2  and  C_3
REMARK    3  A    between atoms: C_2  and  C_14
REMARK    4  A    between atoms: C_3  and  O_4
REMARK    5  A    between atoms: O_4  and  C_5
REMARK    6  A    between atoms: C_8  and  C_9
REMARK    7  A    between atoms: C_18  and  O_19
REMARK    8  A    between atoms: O_19  and  C_20
REMARK                            x       y       z     vdW  Elec       q    Type
REMARK                         _______ _______ _______ _____ _____    ______ ____
ROOT
ATOM      1  C   UNL     1      42.740   5.403  12.044  0.00  0.00    +0.000 C 
ATOM      2  C   UNL     1      43.747   4.427  12.664  0.00  0.00    +0.000 C 
ENDROOT
BRANCH   2   3
ATOM      3  C   UNL     1      45.102   5.091  12.837  0.00  0.00    +0.000 A 
ATOM      4  C   UNL     1      45.498   6.096  11.945  0.00  0.00    +0.000 A 
ATOM      5  C   UNL     1      46.773   6.653  12.031  0.00  0.00    +0.000 A 
ATOM      6  C   UNL     1      47.656   6.240  13.030  0.00  0.00    +0.000 A 
ATOM      7  C   UNL     1      47.254   5.296  13.976  0.00  0.00    +0.000 A 
ATOM      8  C   UNL     1      45.990   4.708  13.857  0.00  0.00    +0.000 A 
BRANCH   7   9
ATOM      9  O   UNL     1      47.990   4.878  15.056  0.00  0.00    +0.000 OA
BRANCH   9  10
ATOM     10  C   UNL     1      47.321   4.046  16.016  0.00  0.00    +0.000 C 
ATOM     11  C   UNL     1      47.329   4.748  17.360  0.00  0.00    +0.000 C 
ATOM     12  C   UNL     1      48.602   4.260  18.013  0.00  0.00    +0.000 C 
ATOM     13  O   UNL     1      48.864   2.951  17.505  0.00  0.00    +0.000 OA
ATOM     14  C   UNL     1      48.091   2.760  16.310  0.00  0.00    +0.000 C 
ENDBRANCH   9  10
ENDBRANCH   7   9
ENDBRANCH   2   3
BRANCH   2  15
ATOM     15  C   UNL     1      43.846   3.118  11.863  0.00  0.00    +0.000 C 
BRANCH  15  16
ATOM     16  O   UNL     1      43.455   3.374  10.509  0.00  0.00    +0.000 OA
BRANCH  16  17
ATOM     17  C   UNL     1      44.413   3.214   9.547  0.00  0.00    +0.000 A 
ATOM     18  C   UNL     1      45.002   4.236   8.801  0.00  0.00    +0.000 A 
ATOM     19  C   UNL     1      45.986   3.937   7.853  0.00  0.00    +0.000 A 
ATOM     20  C   UNL     1      46.394   2.617   7.645  0.00  0.00    +0.000 A 
ATOM     21  C   UNL     1      45.783   1.587   8.373  0.00  0.00    +0.000 A 
ATOM     22  C   UNL     1      44.801   1.891   9.318  0.00  0.00    +0.000 A 
BRANCH  20  23
ATOM     23  C   UNL     1      47.458   2.357   6.640  0.00  0.00    +0.000 C 
ATOM     24  N   UNL     1      47.391   3.041   5.458  0.00  0.00    +0.000 N 
ATOM     25  O   UNL     1      48.341   1.531   6.837  0.00  0.00    +0.000 OA
ATOM     26  H   UNL     1      46.558   3.528   5.160  0.00  0.00    +0.000 HD
ATOM     27  H   UNL     1      48.050   2.757   4.745  0.00  0.00    +0.000 HD
ENDBRANCH  20  23
ENDBRANCH  16  17
ENDBRANCH  15  16
ENDBRANCH   2  15
TORSDOF 7
ENDMDL
MODEL 2
REMARK VINA RESULT:    -7.879      2.963      4.757
REMARK INTER + INTRA:         -12.418
REMARK INTER:                 -11.184
REMARK INTRA:                  -1.235
REMARK UNBOUND:                -1.315
REMARK  Name = 
REMARK  8 active torsions:
REMARK  status: ('A' for Active; 'I' for Inactive)
REMARK    1  A    between atoms: C_1  and  C_2
REMARK    2  A    between atoms: C_2  and  C_3
REMARK    3  A    between atoms: C_2  and  C_14
REMARK    4  A    between atoms: C_3  and  O_4
REMARK    5  A    between atoms: O_4  and  C_5
REMARK    6  A    between atoms: C_8  and  C_9
REMARK    7  A    between atoms: C_18  and  O_19
REMARK    8  A    between atoms: O_19  and  C_20
REMARK                            x       y       z     vdW  Elec       q    Type
REMARK                         _______ _______ _______ _____ _____    ______ ____
ROOT
ATOM      1  C   UNL     1      42.473   5.613  11.784  0.00  0.00    +0.000 C 
ATOM      2  C   UNL     1      43.657   4.954  12.501  0.00  0.00    +0.000 C 
ENDROOT
BRANCH   2   3
ATOM      3  C   UNL     1      44.864   5.875  12.503  0.00  0.00    +0.000 A 
ATOM      4  C   UNL     1      46.152   5.326  12.447  0.00  0.00    +0.000 A 
ATOM      5  C   UNL     1      47.273   6.149  12.541  0.00  0.00    +0.000 A 
ATOM      6  C   UNL     1      47.125   7.532  12.655  0.00  0.00    +0.000 A 
ATOM      7  C   UNL     1      45.853   8.105  12.635  0.00  0.00    +0.000 A 
ATOM      8  C   UNL     1      44.730   7.271  12.587  0.00  0.00    +0.000 A 
BRANCH   7   9
ATOM      9  O   UNL     1      45.577   9.450  12.645  0.00  0.00    +0.000 OA
BRANCH   9  10
ATOM     10  C   UNL     1      45.042  10.014  11.440  0.00  0.00    +0.000 C 
ATOM     11  C   UNL     1      45.903  11.192  11.026  0.00  0.00    +0.000 C 
ATOM     12  C   UNL     1      45.253  12.370  11.715  0.00  0.00    +0.000 C 
ATOM     13  O   UNL     1      43.862  12.074  11.842  0.00  0.00    +0.000 OA
ATOM     14  C   UNL     1      43.675  10.662  11.655  0.00  0.00    +0.000 C 
ENDBRANCH   9  10
ENDBRANCH   7   9
ENDBRANCH   2   3
BRANCH   2  15
ATOM     15  C   UNL     1      43.988   3.572  11.913  0.00  0.00    +0.000 C 
BRANCH  15  16
ATOM     16  O   UNL     1      43.523   3.523  10.558  0.00  0.00    +0.000 OA
BRANCH  16  17
ATOM     17  C   UNL     1      44.463   3.318   9.588  0.00  0.00    +0.000 A 
ATOM     18  C   UNL     1      45.079   4.309   8.822  0.00  0.00    +0.000 A 
ATOM     19  C   UNL     1      46.041   3.965   7.867  0.00  0.00    +0.000 A 
ATOM     20  C   UNL     1      46.400   2.628   7.671  0.00  0.00    +0.000 A 
ATOM     21  C   UNL     1      45.762   1.629   8.419  0.00  0.00    +0.000 A 
ATOM     22  C   UNL     1      44.803   1.980   9.371  0.00  0.00    +0.000 A 
BRANCH  20  23
ATOM     23  C   UNL     1      47.442   2.319   6.658  0.00  0.00    +0.000 C 
ATOM     24  N   UNL     1      47.513   3.128   5.557  0.00  0.00    +0.000 N 
ATOM     25  O   UNL     1      48.186   1.352   6.774  0.00  0.00    +0.000 OA
ATOM     26  H   UNL     1      46.772   3.764   5.304  0.00  0.00    +0.000 HD
ATOM     27  H   UNL     1      48.144   2.825   4.826  0.00  0.00    +0.000 HD
ENDBRANCH  20  23
ENDBRANCH  16  17
ENDBRANCH  15  16
ENDBRANCH   2  15
TORSDOF 7
ENDMDL
MODEL 3
REMARK VINA RESULT:    -7.721      1.495      2.053
REMARK INTER + INTRA:         -12.196
REMARK INTER:                 -11.064
REMARK INTRA:                  -1.132
REMARK UNBOUND:                -1.315
REMARK  Name = 
REMARK  8 active torsions:
REMARK  status: ('A' for Active; 'I' for Inactive)
REMARK    1  A    between atoms: C_1  and  C_2
REMARK    2  A    between atoms: C_2  and  C_3
REMARK    3  A    between atoms: C_2  and  C_14
REMARK    4  A    between atoms: C_3  and  O_4
REMARK    5  A    between atoms: O_4  and  C_5
REMARK    6  A    between atoms: C_8  and  C_9
REMARK    7  A    between atoms: C_18  and  O_19
REMARK    8  A    between atoms: O_19  and  C_20
REMARK                            x       y       z     vdW  Elec       q    Type
REMARK                         _______ _______ _______ _____ _____    ______ ____
ROOT
ATOM      1  C   UNL     1      43.138   5.936  11.478  0.00  0.00    +0.000 C 
ATOM      2  C   UNL     1      44.030   5.023  12.327  0.00  0.00    +0.000 C 
ENDROOT
BRANCH   2   3
ATOM      3  C   UNL     1      45.418   5.619  12.479  0.00  0.00    +0.000 A 
ATOM      4  C   UNL     1      45.960   6.384  11.438  0.00  0.00    +0.000 A 
ATOM      5  C   UNL     1      47.266   6.862  11.520  0.00  0.00    +0.000 A 
ATOM      6  C   UNL     1      48.038   6.614  12.657  0.00  0.00    +0.000 A 
ATOM      7  C   UNL     1      47.490   5.922  13.738  0.00  0.00    +0.000 A 
ATOM      8  C   UNL     1      46.194   5.405  13.631  0.00  0.00    +0.000 A 
BRANCH   7   9
ATOM      9  O   UNL     1      48.108   5.695  14.943  0.00  0.00    +0.000 OA
BRANCH   9  10
ATOM     10  C   UNL     1      49.114   6.636  15.344  0.00  0.00    +0.000 C 
ATOM     11  C   UNL     1      49.857   6.074  16.541  0.00  0.00    +0.000 C 
ATOM     12  C   UNL     1      49.077   6.597  17.726  0.00  0.00    +0.000 C 
ATOM     13  O   UNL     1      48.494   7.840  17.335  0.00  0.00    +0.000 OA
ATOM     14  C   UNL     1      48.518   7.927  15.901  0.00  0.00    +0.000 C 
ENDBRANCH   9  10
ENDBRANCH   7   9
ENDBRANCH   2   3
BRANCH   2  15
ATOM     15  C   UNL     1      44.077   3.589  11.773  0.00  0.00    +0.000 C 
BRANCH  15  16
ATOM     16  O   UNL     1      43.685   3.613  10.395  0.00  0.00    +0.000 OA
BRANCH  16  17
ATOM     17  C   UNL     1      44.624   3.234   9.477  0.00  0.00    +0.000 A 
ATOM     18  C   UNL     1      45.027   1.925   9.211  0.00  0.00    +0.000 A 
ATOM     19  C   UNL     1      45.993   1.671   8.231  0.00  0.00    +0.000 A 
ATOM     20  C   UNL     1      46.561   2.722   7.506  0.00  0.00    +0.000 A 
ATOM     21  C   UNL     1      46.178   4.039   7.792  0.00  0.00    +0.000 A 
ATOM     22  C   UNL     1      45.214   4.286   8.771  0.00  0.00    +0.000 A 
BRANCH  20  23
ATOM     23  C   UNL     1      47.568   2.396   6.463  0.00  0.00    +0.000 C 
ATOM     24  N   UNL     1      47.438   3.007   5.246  0.00  0.00    +0.000 N 
ATOM     25  O   UNL     1      48.459   1.578   6.661  0.00  0.00    +0.000 OA
ATOM     26  H   UNL     1      46.591   3.480   4.965  0.00  0.00    +0.000 HD
ATOM     27  H   UNL     1      48.056   2.677   4.517  0.00  0.00    +0.000 HD
ENDBRANCH  20  23
ENDBRANCH  16  17
ENDBRANCH  15  16
ENDBRANCH   2  15
TORSDOF 7
ENDMDL
MODEL 4
REMARK VINA RESULT:    -7.600      3.463      5.844
REMARK INTER + INTRA:         -12.026
REMARK INTER:                 -11.056
REMARK INTRA:                  -0.970
REMARK UNBOUND:                -1.315
REMARK  Name = 
REMARK  8 active torsions:
REMARK  status: ('A' for Active; 'I' for Inactive)
REMARK    1  A    between atoms: C_1  and  C_2
REMARK    2  A    between atoms: C_2  and  C_3
REMARK    3  A    between atoms: C_2  and  C_14
REMARK    4  A    between atoms: C_3  and  O_4
REMARK    5  A    between atoms: O_4  and  C_5
REMARK    6  A    between atoms: C_8  and  C_9
REMARK    7  A    between atoms: C_18  and  O_19
REMARK    8  A    between atoms: O_19  and  C_20
REMARK                            x       y       z     vdW  Elec       q    Type
REMARK                         _______ _______ _______ _____ _____    ______ ____
ROOT
ATOM      1  C   UNL     1      45.737   4.258  12.926  0.00  0.00    +0.000 C 
ATOM      2  C   UNL     1      45.210   5.060  11.730  0.00  0.00    +0.000 C 
ENDROOT
BRANCH   2   3
ATOM      3  C   UNL     1      45.377   6.551  11.968  0.00  0.00    +0.000 A 
ATOM      4  C   UNL     1      46.282   6.999  12.939  0.00  0.00    +0.000 A 
ATOM      5  C   UNL     1      46.383   8.356  13.236  0.00  0.00    +0.000 A 
ATOM      6  C   UNL     1      45.608   9.289  12.544  0.00  0.00    +0.000 A 
ATOM      7  C   UNL     1      44.757   8.871  11.520  0.00  0.00    +0.000 A 
ATOM      8  C   UNL     1      44.627   7.503  11.257  0.00  0.00    +0.000 A 
BRANCH   7   9
ATOM      9  O   UNL     1      44.017   9.692  10.705  0.00  0.00    +0.000 OA
BRANCH   9  10
ATOM     10  C   UNL     1      43.076  10.565  11.345  0.00  0.00    +0.000 C 
ATOM     11  C   UNL     1      41.710  10.353  10.721  0.00  0.00    +0.000 C 
ATOM     12  C   UNL     1      41.674  11.352   9.587  0.00  0.00    +0.000 C 
ATOM     13  O   UNL     1      42.501  12.453   9.965  0.00  0.00    +0.000 OA
ATOM     14  C   UNL     1      43.351  12.038  11.046  0.00  0.00    +0.000 C 
ENDBRANCH   9  10
ENDBRANCH   7   9
ENDBRANCH   2   3
BRANCH   2  15
ATOM     15  C   UNL     1      43.758   4.692  11.385  0.00  0.00    +0.000 C 
BRANCH  15  16
ATOM     16  O   UNL     1      43.624   4.620   9.960  0.00  0.00    +0.000 OA
BRANCH  16  17
ATOM     17  C   UNL     1      44.524   3.838   9.293  0.00  0.00    +0.000 A 
ATOM     18  C   UNL     1      44.646   2.452   9.407  0.00  0.00    +0.000 A 
ATOM     19  C   UNL     1      45.604   1.766   8.653  0.00  0.00    +0.000 A 
ATOM     20  C   UNL     1      46.445   2.455   7.776  0.00  0.00    +0.000 A 
ATOM     21  C   UNL     1      46.343   3.850   7.681  0.00  0.00    +0.000 A 
ATOM     22  C   UNL     1      45.385   4.530   8.436  0.00  0.00    +0.000 A 
BRANCH  20  23
ATOM     23  C   UNL     1      47.432   1.676   6.984  0.00  0.00    +0.000 C 
ATOM     24  N   UNL     1      48.494   2.355   6.453  0.00  0.00    +0.000 N 
ATOM     25  O   UNL     1      47.285   0.477   6.773  0.00  0.00    +0.000 OA
ATOM     26  H   UNL     1      48.516   3.362   6.389  0.00  0.00    +0.000 HD
ATOM     27  H   UNL     1      49.081   1.830   5.817  0.00  0.00    +0.000 HD
ENDBRANCH  20  23
ENDBRANCH  16  17
ENDBRANCH  15  16
ENDBRANCH   2  15
TORSDOF 7
ENDMDL
MODEL 5
REMARK VINA RESULT:    -7.455      2.268      3.996
REMARK INTER + INTRA:         -11.820
REMARK INTER:                 -10.594
REMARK INTRA:                  -1.226
REMARK UNBOUND:                -1.315
REMARK  Name = 
REMARK  8 active torsions:
REMARK  status: ('A' for Active; 'I' for Inactive)
REMARK    1  A    between atoms: C_1  and  C_2
REMARK    2  A    between atoms: C_2  and  C_3
REMARK    3  A    between atoms: C_2  and  C_14
REMARK    4  A    between atoms: C_3  and  O_4
REMARK    5  A    between atoms: O_4  and  C_5
REMARK    6  A    between atoms: C_8  and  C_9
REMARK    7  A    between atoms: C_18  and  O_19
REMARK    8  A    between atoms: O_19  and  C_20
REMARK                            x       y       z     vdW  Elec       q    Type
REMARK                         _______ _______ _______ _____ _____    ______ ____
ROOT
ATOM      1  C   UNL     1      43.163   6.415  11.279  0.00  0.00    +0.000 C 
ATOM      2  C   UNL     1      43.641   5.274  12.186  0.00  0.00    +0.000 C 
ENDROOT
BRANCH   2   3
ATOM      3  C   UNL     1      45.042   5.549  12.702  0.00  0.00    +0.000 A 
ATOM      4  C   UNL     1      45.848   4.480  13.115  0.00  0.00    +0.000 A 
ATOM      5  C   UNL     1      47.101   4.718  13.677  0.00  0.00    +0.000 A 
ATOM      6  C   UNL     1      47.581   6.023  13.803  0.00  0.00    +0.000 A 
ATOM      7  C   UNL     1      46.826   7.096  13.327  0.00  0.00    +0.000 A 
ATOM      8  C   UNL     1      45.551   6.855  12.805  0.00  0.00    +0.000 A 
BRANCH   7   9
ATOM      9  O   UNL     1      47.223   8.410  13.306  0.00  0.00    +0.000 OA
BRANCH   9  10
ATOM     10  C   UNL     1      47.436   9.005  12.018  0.00  0.00    +0.000 C 
ATOM     11  C   UNL     1      48.864   8.734  11.585  0.00  0.00    +0.000 C 
ATOM     12  C   UNL     1      49.632   9.921  12.119  0.00  0.00    +0.000 C 
ATOM     13  O   UNL     1      48.732  11.030  12.151  0.00  0.00    +0.000 OA
ATOM     14  C   UNL     1      47.388  10.531  12.064  0.00  0.00    +0.000 C 
ENDBRANCH   9  10
ENDBRANCH   7   9
ENDBRANCH   2   3
BRANCH   2  15
ATOM     15  C   UNL     1      43.542   3.907  11.489  0.00  0.00    +0.000 C 
BRANCH  15  16
ATOM     16  O   UNL     1      43.473   4.113  10.072  0.00  0.00    +0.000 OA
BRANCH  16  17
ATOM     17  C   UNL     1      44.457   3.542   9.315  0.00  0.00    +0.000 A 
ATOM     18  C   UNL     1      44.719   2.176   9.209  0.00  0.00    +0.000 A 
ATOM     19  C   UNL     1      45.752   1.719   8.384  0.00  0.00    +0.000 A 
ATOM     20  C   UNL     1      46.530   2.622   7.654  0.00  0.00    +0.000 A 
ATOM     21  C   UNL     1      46.287   3.996   7.782  0.00  0.00    +0.000 A 
ATOM     22  C   UNL     1      45.254   4.446   8.607  0.00  0.00    +0.000 A 
BRANCH  20  23
ATOM     23  C   UNL     1      47.602   2.083   6.777  0.00  0.00    +0.000 C 
ATOM     24  N   UNL     1      47.961   2.827   5.688  0.00  0.00    +0.000 N 
ATOM     25  O   UNL     1      48.120   0.992   6.990  0.00  0.00    +0.000 OA
ATOM     26  H   UNL     1      47.395   3.588   5.342  0.00  0.00    +0.000 HD
ATOM     27  H   UNL     1      48.600   2.384   5.040  0.00  0.00    +0.000 HD
ENDBRANCH  20  23
ENDBRANCH  16  17
ENDBRANCH  15  16
ENDBRANCH   2  15
TORSDOF 7
ENDMDL
MODEL 6
REMARK VINA RESULT:    -6.813      2.770      4.412
REMARK INTER + INTRA:         -10.916
REMARK INTER:                 -10.088
REMARK INTRA:                  -0.829
REMARK UNBOUND:                -1.315
REMARK  Name = 
REMARK  8 active torsions:
REMARK  status: ('A' for Active; 'I' for Inactive)
REMARK    1  A    between atoms: C_1  and  C_2
REMARK    2  A    between atoms: C_2  and  C_3
REMARK    3  A    between atoms: C_2  and  C_14
REMARK    4  A    between atoms: C_3  and  O_4
REMARK    5  A    between atoms: O_4  and  C_5
REMARK    6  A    between atoms: C_8  and  C_9
REMARK    7  A    between atoms: C_18  and  O_19
REMARK    8  A    between atoms: O_19  and  C_20
REMARK                            x       y       z     vdW  Elec       q    Type
REMARK                         _______ _______ _______ _____ _____    ______ ____
ROOT
ATOM      1  C   UNL     1      45.416   4.539  13.430  0.00  0.00    +0.000 C 
ATOM      2  C   UNL     1      45.166   5.056  12.007  0.00  0.00    +0.000 C 
ENDROOT
BRANCH   2   3
ATOM      3  C   UNL     1      45.310   6.566  11.951  0.00  0.00    +0.000 A 
ATOM      4  C   UNL     1      44.237   7.347  11.503  0.00  0.00    +0.000 A 
ATOM      5  C   UNL     1      44.380   8.725  11.357  0.00  0.00    +0.000 A 
ATOM      6  C   UNL     1      45.584   9.348  11.690  0.00  0.00    +0.000 A 
ATOM      7  C   UNL     1      46.640   8.599  12.212  0.00  0.00    +0.000 A 
ATOM      8  C   UNL     1      46.506   7.210  12.313  0.00  0.00    +0.000 A 
BRANCH   7   9
ATOM      9  O   UNL     1      47.835   9.102  12.664  0.00  0.00    +0.000 OA
BRANCH   9  10
ATOM     10  C   UNL     1      48.900   9.205  11.709  0.00  0.00    +0.000 C 
ATOM     11  C   UNL     1      50.221   9.004  12.426  0.00  0.00    +0.000 C 
ATOM     12  C   UNL     1      50.623  10.402  12.836  0.00  0.00    +0.000 C 
ATOM     13  O   UNL     1      50.072  11.302  11.873  0.00  0.00    +0.000 OA
ATOM     14  C   UNL     1      49.042  10.617  11.143  0.00  0.00    +0.000 C 
ENDBRANCH   9  10
ENDBRANCH   7   9
ENDBRANCH   2   3
BRANCH   2  15
ATOM     15  C   UNL     1      43.810   4.586  11.456  0.00  0.00    +0.000 C 
BRANCH  15  16
ATOM     16  O   UNL     1      43.822   4.713  10.028  0.00  0.00    +0.000 OA
BRANCH  16  17
ATOM     17  C   UNL     1      44.656   3.877   9.340  0.00  0.00    +0.000 A 
ATOM     18  C   UNL     1      44.726   2.490   9.484  0.00  0.00    +0.000 A 
ATOM     19  C   UNL     1      45.618   1.746   8.704  0.00  0.00    +0.000 A 
ATOM     20  C   UNL     1      46.443   2.378   7.771  0.00  0.00    +0.000 A 
ATOM     21  C   UNL     1      46.394   3.774   7.645  0.00  0.00    +0.000 A 
ATOM     22  C   UNL     1      45.502   4.511   8.426  0.00  0.00    +0.000 A 
BRANCH  20  23
ATOM     23  C   UNL     1      47.357   1.539   6.954  0.00  0.00    +0.000 C 
ATOM     24  N   UNL     1      48.517   2.113   6.512  0.00  0.00    +0.000 N 
ATOM     25  O   UNL     1      47.072   0.387   6.647  0.00  0.00    +0.000 OA
ATOM     26  H   UNL     1      48.666   3.112   6.526  0.00  0.00    +0.000 HD
ATOM     27  H   UNL     1      49.060   1.566   5.857  0.00  0.00    +0.000 HD
ENDBRANCH  20  23
ENDBRANCH  16  17
ENDBRANCH  15  16
ENDBRANCH   2  15
TORSDOF 7
ENDMDL
MODEL 7
REMARK VINA RESULT:    -6.691      3.091      4.947
REMARK INTER + INTRA:         -10.744
REMARK INTER:                  -9.789
REMARK INTRA:                  -0.955
REMARK UNBOUND:                -1.315
REMARK  Name = 
REMARK  8 active torsions:
REMARK  status: ('A' for Active; 'I' for Inactive)
REMARK    1  A    between atoms: C_1  and  C_2
REMARK    2  A    between atoms: C_2  and  C_3
REMARK    3  A    between atoms: C_2  and  C_14
REMARK    4  A    between atoms: C_3  and  O_4
REMARK    5  A    between atoms: O_4  and  C_5
REMARK    6  A    between atoms: C_8  and  C_9
REMARK    7  A    between atoms: C_18  and  O_19
REMARK    8  A    between atoms: O_19  and  C_20
REMARK                            x       y       z     vdW  Elec       q    Type
REMARK                         _______ _______ _______ _____ _____    ______ ____
ROOT
ATOM      1  C   UNL     1      45.310   4.111  13.010  0.00  0.00    +0.000 C 
ATOM      2  C   UNL     1      45.697   5.086  11.892  0.00  0.00    +0.000 C 
ENDROOT
BRANCH   2   3
ATOM      3  C   UNL     1      46.452   6.277  12.455  0.00  0.00    +0.000 A 
ATOM      4  C   UNL     1      47.417   6.077  13.450  0.00  0.00    +0.000 A 
ATOM      5  C   UNL     1      48.054   7.165  14.044  0.00  0.00    +0.000 A 
ATOM      6  C   UNL     1      47.762   8.465  13.629  0.00  0.00    +0.000 A 
ATOM      7  C   UNL     1      46.860   8.682  12.586  0.00  0.00    +0.000 A 
ATOM      8  C   UNL     1      46.191   7.589  12.025  0.00  0.00    +0.000 A 
BRANCH   7   9
ATOM      9  O   UNL     1      46.559   9.898  12.025  0.00  0.00    +0.000 OA
BRANCH   9  10
ATOM     10  C   UNL     1      47.559  10.923  12.116  0.00  0.00    +0.000 C 
ATOM     11  C   UNL     1      46.924  12.258  11.778  0.00  0.00    +0.000 C 
ATOM     12  C   UNL     1      47.118  12.379  10.284  0.00  0.00    +0.000 C 
ATOM     13  O   UNL     1      48.307  11.663   9.950  0.00  0.00    +0.000 OA
ATOM     14  C   UNL     1      48.635  10.786  11.040  0.00  0.00    +0.000 C 
ENDBRANCH   9  10
ENDBRANCH   7   9
ENDBRANCH   2   3
BRANCH   2  15
ATOM     15  C   UNL     1      44.479   5.517  11.058  0.00  0.00    +0.000 C 
BRANCH  15  16
ATOM     16  O   UNL     1      44.044   4.405  10.265  0.00  0.00    +0.000 OA
BRANCH  16  17
ATOM     17  C   UNL     1      44.913   3.944   9.316  0.00  0.00    +0.000 A 
ATOM     18  C   UNL     1      45.712   4.731   8.487  0.00  0.00    +0.000 A 
ATOM     19  C   UNL     1      46.574   4.131   7.563  0.00  0.00    +0.000 A 
ATOM     20  C   UNL     1      46.648   2.739   7.461  0.00  0.00    +0.000 A 
ATOM     21  C   UNL     1      45.824   1.947   8.274  0.00  0.00    +0.000 A 
ATOM     22  C   UNL     1      44.967   2.553   9.195  0.00  0.00    +0.000 A 
BRANCH  20  23
ATOM     23  C   UNL     1      47.594   2.152   6.478  0.00  0.00    +0.000 C 
ATOM     24  N   UNL     1      47.691   2.759   5.256  0.00  0.00    +0.000 N 
ATOM     25  O   UNL     1      48.235   1.138   6.727  0.00  0.00    +0.000 OA
ATOM     26  H   UNL     1      47.010   3.426   4.927  0.00  0.00    +0.000 HD
ATOM     27  H   UNL     1      48.244   2.271   4.563  0.00  0.00    +0.000 HD
ENDBRANCH  20  23
ENDBRANCH  16  17
ENDBRANCH  15  16
ENDBRANCH   2  15
TORSDOF 7
ENDMDL
MODEL 8
REMARK VINA RESULT:    -6.454      2.827      7.936
REMARK INTER + INTRA:         -10.410
REMARK INTER:                  -9.341
REMARK INTRA:                  -1.069
REMARK UNBOUND:                -1.315
REMARK  Name = 
REMARK  8 active torsions:
REMARK  status: ('A' for Active; 'I' for Inactive)
REMARK    1  A    between atoms: C_1  and  C_2
REMARK    2  A    between atoms: C_2  and  C_3
REMARK    3  A    between atoms: C_2  and  C_14
REMARK    4  A    between atoms: C_3  and  O_4
REMARK    5  A    between atoms: O_4  and  C_5
REMARK    6  A    between atoms: C_8  and  C_9
REMARK    7  A    between atoms: C_18  and  O_19
REMARK    8  A    between atoms: O_19  and  C_20
REMARK                            x       y       z     vdW  Elec       q    Type
REMARK                         _______ _______ _______ _____ _____    ______ ____
ROOT
ATOM      1  C   UNL     1      45.074   7.699  12.075  0.00  0.00    +0.000 C 
ATOM      2  C   UNL     1      45.937   6.842  11.141  0.00  0.00    +0.000 C 
ENDROOT
BRANCH   2   3
ATOM      3  C   UNL     1      45.222   5.551  10.782  0.00  0.00    +0.000 A 
ATOM      4  C   UNL     1      44.254   5.033  11.652  0.00  0.00    +0.000 A 
ATOM      5  C   UNL     1      43.653   3.804  11.386  0.00  0.00    +0.000 A 
ATOM      6  C   UNL     1      43.984   3.093  10.231  0.00  0.00    +0.000 A 
ATOM      7  C   UNL     1      44.889   3.628   9.313  0.00  0.00    +0.000 A 
ATOM      8  C   UNL     1      45.522   4.840   9.608  0.00  0.00    +0.000 A 
BRANCH   7   9
ATOM      9  O   UNL     1      45.226   3.076   8.102  0.00  0.00    +0.000 OA
BRANCH   9  10
ATOM     10  C   UNL     1      46.623   2.893   7.837  0.00  0.00    +0.000 C 
ATOM     11  C   UNL     1      46.973   3.603   6.544  0.00  0.00    +0.000 C 
ATOM     12  C   UNL     1      46.764   2.545   5.485  0.00  0.00    +0.000 C 
ATOM     13  O   UNL     1      47.017   1.279   6.094  0.00  0.00    +0.000 OA
ATOM     14  C   UNL     1      46.972   1.439   7.521  0.00  0.00    +0.000 C 
ENDBRANCH   9  10
ENDBRANCH   7   9
ENDBRANCH   2   3
BRANCH   2  15
ATOM     15  C   UNL     1      47.335   6.582  11.727  0.00  0.00    +0.000 C 
BRANCH  15  16
ATOM     16  O   UNL     1      47.381   7.103  13.062  0.00  0.00    +0.000 OA
BRANCH  16  17
ATOM     17  C   UNL     1      47.474   6.193  14.077  0.00  0.00    +0.000 A 
ATOM     18  C   UNL     1      46.804   4.971  14.146  0.00  0.00    +0.000 A 
ATOM     19  C   UNL     1      46.999   4.122  15.240  0.00  0.00    +0.000 A 
ATOM     20  C   UNL     1      47.869   4.482  16.273  0.00  0.00    +0.000 A 
ATOM     21  C   UNL     1      48.521   5.722  16.219  0.00  0.00    +0.000 A 
ATOM     22  C   UNL     1      48.322   6.566  15.124  0.00  0.00    +0.000 A 
BRANCH  20  23
ATOM     23  C   UNL     1      48.056   3.534  17.401  0.00  0.00    +0.000 C 
ATOM     24  N   UNL     1      47.013   2.704  17.708  0.00  0.00    +0.000 N 
ATOM     25  O   UNL     1      49.086   3.520  18.066  0.00  0.00    +0.000 OA
ATOM     26  H   UNL     1      46.078   2.857  17.360  0.00  0.00    +0.000 HD
ATOM     27  H   UNL     1      47.117   2.159  18.554  0.00  0.00    +0.000 HD
ENDBRANCH  20  23
ENDBRANCH  16  17
ENDBRANCH  15  16
ENDBRANCH   2  15
TORSDOF 7
ENDMDL
MODEL 9
REMARK VINA RESULT:    -6.297      2.716      4.678
REMARK INTER + INTRA:         -10.189
REMARK INTER:                  -8.984
REMARK INTRA:                  -1.206
REMARK UNBOUND:                -1.315
REMARK  Name = 
REMARK  8 active torsions:
REMARK  status: ('A' for Active; 'I' for Inactive)
REMARK    1  A    between atoms: C_1  and  C_2
REMARK    2  A    between atoms: C_2  and  C_3
REMARK    3  A    between atoms: C_2  and  C_14
REMARK    4  A    between atoms: C_3  and  O_4
REMARK    5  A    between atoms: O_4  and  C_5
REMARK    6  A    between atoms: C_8  and  C_9
REMARK    7  A    between atoms: C_18  and  O_19
REMARK    8  A    between atoms: O_19  and  C_20
REMARK                            x       y       z     vdW  Elec       q    Type
REMARK                         _______ _______ _______ _____ _____    ______ ____
ROOT
ATOM      1  C   UNL     1      49.378   7.409  12.082  0.00  0.00    +0.000 C 
ATOM      2  C   UNL     1      48.585   8.449  12.882  0.00  0.00    +0.000 C 
ENDROOT
BRANCH   2   3
ATOM      3  C   UNL     1      48.655   8.151  14.370  0.00  0.00    +0.000 A 
ATOM      4  C   UNL     1      48.296   9.144  15.291  0.00  0.00    +0.000 A 
ATOM      5  C   UNL     1      48.441   8.921  16.659  0.00  0.00    +0.000 A 
ATOM      6  C   UNL     1      48.913   7.694  17.127  0.00  0.00    +0.000 A 
ATOM      7  C   UNL     1      49.202   6.665  16.230  0.00  0.00    +0.000 A 
ATOM      8  C   UNL     1      49.098   6.910  14.856  0.00  0.00    +0.000 A 
BRANCH   7   9
ATOM      9  O   UNL     1      49.581   5.389  16.565  0.00  0.00    +0.000 OA
BRANCH   9  10
ATOM     10  C   UNL     1      48.771   4.703  17.530  0.00  0.00    +0.000 C 
ATOM     11  C   UNL     1      49.294   3.288  17.690  0.00  0.00    +0.000 C 
ATOM     12  C   UNL     1      48.515   2.499  16.663  0.00  0.00    +0.000 C 
ATOM     13  O   UNL     1      47.251   3.144  16.502  0.00  0.00    +0.000 OA
ATOM     14  C   UNL     1      47.343   4.474  17.038  0.00  0.00    +0.000 C 
ENDBRANCH   9  10
ENDBRANCH   7   9
ENDBRANCH   2   3
BRANCH   2  15
ATOM     15  C   UNL     1      47.134   8.570  12.387  0.00  0.00    +0.000 C 
BRANCH  15  16
ATOM     16  O   UNL     1      46.300   7.721  13.187  0.00  0.00    +0.000 OA
BRANCH  16  17
ATOM     17  C   UNL     1      45.769   6.620  12.575  0.00  0.00    +0.000 A 
ATOM     18  C   UNL     1      45.252   6.574  11.279  0.00  0.00    +0.000 A 
ATOM     19  C   UNL     1      44.749   5.375  10.765  0.00  0.00    +0.000 A 
ATOM     20  C   UNL     1      44.763   4.210  11.536  0.00  0.00    +0.000 A 
ATOM     21  C   UNL     1      45.256   4.261  12.847  0.00  0.00    +0.000 A 
ATOM     22  C   UNL     1      45.757   5.462  13.355  0.00  0.00    +0.000 A 
BRANCH  20  23
ATOM     23  C   UNL     1      44.235   2.958  10.934  0.00  0.00    +0.000 C 
ATOM     24  N   UNL     1      44.962   2.387   9.927  0.00  0.00    +0.000 N 
ATOM     25  O   UNL     1      43.168   2.473  11.290  0.00  0.00    +0.000 OA
ATOM     26  H   UNL     1      45.696   2.881   9.441  0.00  0.00    +0.000 HD
ATOM     27  H   UNL     1      44.523   1.610   9.450  0.00  0.00    +0.000 HD
ENDBRANCH  20  23
ENDBRANCH  16  17
ENDBRANCH  15  16
ENDBRANCH   2  15
TORSDOF 7
ENDMDL
