MODEL 1
REMARK VINA RESULT:    -8.352      0.000      0.000
REMARK INTER + INTRA:         -13.278
REMARK INTER:                 -12.014
REMARK INTRA:                  -1.265
REMARK UNBOUND:                -1.265
REMARK  Name = 
REMARK  8 active torsions:
REMARK  status: ('A' for Active; 'I' for Inactive)
REMARK    1  A    between atoms: N_1  and  C_2
REMARK    2  A    between atoms: C_2  and  C_3
REMARK    3  A    between atoms: C_2  and  C_24
REMARK    4  A    between atoms: C_3  and  C_4
REMARK    5  A    between atoms: C_8  and  C_9
REMARK    6  A    between atoms: C_9  and  N_10
REMARK    7  A    between atoms: C_11  and  C_13
REMARK    8  A    between atoms: C_24  and  C_26
REMARK                            x       y       z     vdW  Elec       q    Type
REMARK                         _______ _______ _______ _____ _____    ______ ____
ROOT
ATOM      1  C   UNL     1      45.134   6.747  12.207  0.00  0.00    +0.000 A 
ATOM      2  C   UNL     1      44.450   7.737  11.491  0.00  0.00    +0.000 A 
ATOM      3  C   UNL     1      44.916   9.051  11.483  0.00  0.00    +0.000 A 
ATOM      4  C   UNL     1      46.051   9.397  12.216  0.00  0.00    +0.000 A 
ATOM      5  C   UNL     1      46.733   8.429  12.963  0.00  0.00    +0.000 A 
ATOM      6  C   UNL     1      46.300   7.096  12.905  0.00  0.00    +0.000 A 
ENDROOT
BRANCH   1   7
ATOM      7  C   UNL     1      44.572   5.345  12.311  0.00  0.00    +0.000 C 
BRANCH   7   8
ATOM      8  C   UNL     1      43.551   4.975  11.210  0.00  0.00    +0.000 C 
BRANCH   8   9
ATOM      9  N   UNL     1      42.147   5.092  11.661  0.00  0.00    +0.000 NA
ATOM     10  H   UNL     1      42.094   4.969  12.669  0.00  0.00    +0.000 HD
ATOM     11  H   UNL     1      41.633   4.303  11.253  0.00  0.00    +0.000 HD
ENDBRANCH   8   9
BRANCH   8  12
ATOM     12  C   UNL     1      43.780   3.548  10.661  0.00  0.00    +0.000 C 
ATOM     13  O   UNL     1      43.226   2.563  11.152  0.00  0.00    +0.000 OA
BRANCH  12  14
ATOM     14  C   UNL     1      44.716   3.339   9.519  0.00  0.00    +0.000 A 
ATOM     15  C   UNL     1      45.200   2.093   9.112  0.00  0.00    +0.000 A 
ATOM     16  C   UNL     1      46.115   2.017   8.061  0.00  0.00    +0.000 A 
ATOM     17  C   UNL     1      46.505   3.188   7.435  0.00  0.00    +0.000 A 
ATOM     18  N   UNL     1      46.044   4.405   7.784  0.00  0.00    +0.000 NA
ATOM     19  C   UNL     1      45.164   4.455   8.817  0.00  0.00    +0.000 A 
ENDBRANCH  12  14
ENDBRANCH   8  12
ENDBRANCH   7   8
ENDBRANCH   1   7
BRANCH   5  20
ATOM     20  C   UNL     1      47.879   8.816  13.861  0.00  0.00    +0.000 C 
BRANCH  20  21
ATOM     21  N   UNL     1      47.992   7.946  15.001  0.00  0.00    +0.000 N 
ATOM     22  C   UNL     1      49.174   7.302  15.274  0.00  0.00    +0.000 C 
ATOM     23  O   UNL     1      50.185   7.476  14.603  0.00  0.00    +0.000 OA
ATOM     24  H   UNL     1      47.126   7.592  15.396  0.00  0.00    +0.000 HD
BRANCH  22  25
ATOM     25  C   UNL     1      49.181   6.438  16.460  0.00  0.00    +0.000 A 
ATOM     26  C   UNL     1      49.938   6.795  17.568  0.00  0.00    +0.000 A 
ATOM     27  S   UNL     1      49.797   5.704  18.872  0.00  0.00    +0.000 S 
ATOM     28  C   UNL     1      48.762   4.689  17.982  0.00  0.00    +0.000 A 
ATOM     29  N   UNL     1      48.285   3.533  18.517  0.00  0.00    +0.000 NA
ATOM     30  C   UNL     1      47.535   2.847  17.721  0.00  0.00    +0.000 A 
ATOM     31  N   UNL     1      47.212   3.215  16.441  0.00  0.00    +0.000 N 
ATOM     32  C   UNL     1      47.644   4.388  15.869  0.00  0.00    +0.000 A 
ATOM     33  O   UNL     1      47.293   4.709  14.738  0.00  0.00    +0.000 OA
ATOM     34  C   UNL     1      48.506   5.188  16.716  0.00  0.00    +0.000 A 
ATOM     35  H   UNL     1      46.610   2.639  15.872  0.00  0.00    +0.000 HD
ENDBRANCH  22  25
ENDBRANCH  20  21
ENDBRANCH   5  20
TORSDOF 8
ENDMDL
MODEL 2
REMARK VINA RESULT:    -7.812      3.214      5.740
REMARK INTER + INTRA:         -12.502
REMARK INTER:                 -10.719
REMARK INTRA:                  -1.783
REMARK UNBOUND:                -1.265
REMARK  Name = 
REMARK  8 active torsions:
REMARK  status: ('A' for Active; 'I' for Inactive)
REMARK    1  A    between atoms: N_1  and  C_2
REMARK    2  A    between atoms: C_2  and  C_3
REMARK    3  A    between atoms: C_2  and  C_24
REMARK    4  A    between atoms: C_3  and  C_4
REMARK    5  A    between atoms: C_8  and  C_9
REMARK    6  A    between atoms: C_9  and  N_10
REMARK    7  A    between atoms: C_11  and  C_13
REMARK    8  A    between atoms: C_24  and  C_26
REMARK                            x       y       z     vdW  Elec       q    Type
REMARK                         _______ _______ _______ _____ _____    ______ ____
ROOT
ATOM      1  C   UNL     1      46.659   4.703  13.742  0.00  0.00    +0.000 A 
ATOM      2  C   UNL     1      47.086   4.420  15.046  0.00  0.00    +0.000 A 
ATOM      3  C   UNL     1      48.048   5.218  15.662  0.00  0.00    +0.000 A 
ATOM      4  C   UNL     1      48.618   6.288  14.972  0.00  0.00    +0.000 A 
ATOM      5  C   UNL     1      48.227   6.572  13.658  0.00  0.00    +0.000 A 
ATOM      6  C   UNL     1      47.205   5.809  13.073  0.00  0.00    +0.000 A 
ENDROOT
BRANCH   1   7
ATOM      7  C   UNL     1      45.698   3.776  13.028  0.00  0.00    +0.000 C 
BRANCH   7   8
ATOM      8  C   UNL     1      44.739   4.475  12.038  0.00  0.00    +0.000 C 
BRANCH   8   9
ATOM      9  N   UNL     1      43.582   5.111  12.705  0.00  0.00    +0.000 NA
ATOM     10  H   UNL     1      43.544   6.099  12.470  0.00  0.00    +0.000 HD
ATOM     11  H   UNL     1      43.756   5.067  13.715  0.00  0.00    +0.000 HD
ENDBRANCH   8   9
BRANCH   8  12
ATOM     12  C   UNL     1      44.217   3.506  10.952  0.00  0.00    +0.000 C 
ATOM     13  O   UNL     1      43.206   2.822  11.119  0.00  0.00    +0.000 OA
BRANCH  12  14
ATOM     14  C   UNL     1      44.964   3.367   9.668  0.00  0.00    +0.000 A 
ATOM     15  C   UNL     1      45.331   2.146   9.097  0.00  0.00    +0.000 A 
ATOM     16  C   UNL     1      46.076   2.131   7.917  0.00  0.00    +0.000 A 
ATOM     17  C   UNL     1      46.416   3.339   7.332  0.00  0.00    +0.000 A 
ATOM     18  N   UNL     1      46.060   4.535   7.840  0.00  0.00    +0.000 NA
ATOM     19  C   UNL     1      45.347   4.524   8.996  0.00  0.00    +0.000 A 
ENDBRANCH  12  14
ENDBRANCH   8  12
ENDBRANCH   7   8
ENDBRANCH   1   7
BRANCH   5  20
ATOM     20  C   UNL     1      48.928   7.640  12.859  0.00  0.00    +0.000 C 
BRANCH  20  21
ATOM     21  N   UNL     1      48.003   8.469  12.135  0.00  0.00    +0.000 N 
ATOM     22  C   UNL     1      47.660   9.712  12.609  0.00  0.00    +0.000 C 
ATOM     23  O   UNL     1      48.156  10.186  13.624  0.00  0.00    +0.000 OA
ATOM     24  H   UNL     1      47.400   8.006  11.463  0.00  0.00    +0.000 HD
BRANCH  22  25
ATOM     25  C   UNL     1      46.709  10.475  11.792  0.00  0.00    +0.000 A 
ATOM     26  C   UNL     1      47.032  11.762  11.381  0.00  0.00    +0.000 A 
ATOM     27  S   UNL     1      45.835  12.488  10.405  0.00  0.00    +0.000 S 
ATOM     28  C   UNL     1      44.821  11.128  10.542  0.00  0.00    +0.000 A 
ATOM     29  N   UNL     1      43.596  11.106   9.952  0.00  0.00    +0.000 NA
ATOM     30  C   UNL     1      42.922  10.024  10.162  0.00  0.00    +0.000 A 
ATOM     31  N   UNL     1      43.365   8.960  10.903  0.00  0.00    +0.000 N 
ATOM     32  C   UNL     1      44.608   8.924  11.492  0.00  0.00    +0.000 A 
ATOM     33  O   UNL     1      44.990   7.933  12.105  0.00  0.00    +0.000 OA
ATOM     34  C   UNL     1      45.398  10.123  11.301  0.00  0.00    +0.000 A 
ATOM     35  H   UNL     1      42.795   8.136  11.021  0.00  0.00    +0.000 HD
ENDBRANCH  22  25
ENDBRANCH  20  21
ENDBRANCH   5  20
TORSDOF 8
ENDMDL
MODEL 3
REMARK VINA RESULT:    -7.796      1.561      1.860
REMARK INTER + INTRA:         -12.479
REMARK INTER:                 -11.244
REMARK INTRA:                  -1.235
REMARK UNBOUND:                -1.265
REMARK  Name = 
REMARK  8 active torsions:
REMARK  status: ('A' for Active; 'I' for Inactive)
REMARK    1  A    between atoms: N_1  and  C_2
REMARK    2  A    between atoms: C_2  and  C_3
REMARK    3  A    between atoms: C_2  and  C_24
REMARK    4  A    between atoms: C_3  and  C_4
REMARK    5  A    between atoms: C_8  and  C_9
REMARK    6  A    between atoms: C_9  and  N_10
REMARK    7  A    between atoms: C_11  and  C_13
REMARK    8  A    between atoms: C_24  and  C_26
REMARK                            x       y       z     vdW  Elec       q    Type
REMARK                         _______ _______ _______ _____ _____    ______ ____
ROOT
ATOM      1  C   UNL     1      45.272   6.343  12.583  0.00  0.00    +0.000 A 
ATOM      2  C   UNL     1      45.006   7.590  12.004  0.00  0.00    +0.000 A 
ATOM      3  C   UNL     1      45.968   8.599  12.027  0.00  0.00    +0.000 A 
ATOM      4  C   UNL     1      47.194   8.383  12.656  0.00  0.00    +0.000 A 
ATOM      5  C   UNL     1      47.471   7.154  13.266  0.00  0.00    +0.000 A 
ATOM      6  C   UNL     1      46.525   6.122  13.174  0.00  0.00    +0.000 A 
ENDROOT
BRANCH   1   7
ATOM      7  C   UNL     1      44.193   5.284  12.660  0.00  0.00    +0.000 C 
BRANCH   7   8
ATOM      8  C   UNL     1      43.429   5.042  11.338  0.00  0.00    +0.000 C 
BRANCH   8   9
ATOM      9  N   UNL     1      41.977   5.301  11.454  0.00  0.00    +0.000 NA
ATOM     10  H   UNL     1      41.487   4.439  11.677  0.00  0.00    +0.000 HD
ATOM     11  H   UNL     1      41.647   5.581  10.523  0.00  0.00    +0.000 HD
ENDBRANCH   8   9
BRANCH   8  12
ATOM     12  C   UNL     1      43.638   3.607  10.801  0.00  0.00    +0.000 C 
ATOM     13  O   UNL     1      43.074   2.633  11.304  0.00  0.00    +0.000 OA
BRANCH  12  14
ATOM     14  C   UNL     1      44.566   3.377   9.657  0.00  0.00    +0.000 A 
ATOM     15  C   UNL     1      45.028   2.121   9.255  0.00  0.00    +0.000 A 
ATOM     16  C   UNL     1      45.937   2.023   8.201  0.00  0.00    +0.000 A 
ATOM     17  C   UNL     1      46.344   3.184   7.567  0.00  0.00    +0.000 A 
ATOM     18  N   UNL     1      45.903   4.410   7.910  0.00  0.00    +0.000 NA
ATOM     19  C   UNL     1      45.029   4.481   8.946  0.00  0.00    +0.000 A 
ENDBRANCH  12  14
ENDBRANCH   8  12
ENDBRANCH   7   8
ENDBRANCH   1   7
BRANCH   5  20
ATOM     20  C   UNL     1      48.736   6.956  14.060  0.00  0.00    +0.000 C 
BRANCH  20  21
ATOM     21  N   UNL     1      48.474   6.795  15.465  0.00  0.00    +0.000 N 
ATOM     22  C   UNL     1      48.957   7.705  16.374  0.00  0.00    +0.000 C 
ATOM     23  O   UNL     1      49.578   8.705  16.034  0.00  0.00    +0.000 OA
ATOM     24  H   UNL     1      48.204   5.868  15.779  0.00  0.00    +0.000 HD
BRANCH  22  25
ATOM     25  C   UNL     1      48.632   7.446  17.782  0.00  0.00    +0.000 A 
ATOM     26  C   UNL     1      48.110   8.467  18.566  0.00  0.00    +0.000 A 
ATOM     27  S   UNL     1      47.749   7.985  20.163  0.00  0.00    +0.000 S 
ATOM     28  C   UNL     1      48.328   6.411  19.876  0.00  0.00    +0.000 A 
ATOM     29  N   UNL     1      48.333   5.476  20.864  0.00  0.00    +0.000 NA
ATOM     30  C   UNL     1      48.827   4.335  20.516  0.00  0.00    +0.000 A 
ATOM     31  N   UNL     1      49.309   4.040  19.268  0.00  0.00    +0.000 N 
ATOM     32  C   UNL     1      49.295   4.942  18.229  0.00  0.00    +0.000 A 
ATOM     33  O   UNL     1      49.689   4.626  17.111  0.00  0.00    +0.000 OA
ATOM     34  C   UNL     1      48.767   6.247  18.573  0.00  0.00    +0.000 A 
ATOM     35  H   UNL     1      49.672   3.123  19.054  0.00  0.00    +0.000 HD
ENDBRANCH  22  25
ENDBRANCH  20  21
ENDBRANCH   5  20
TORSDOF 8
ENDMDL
MODEL 4
REMARK VINA RESULT:    -7.684      3.316      8.253
REMARK INTER + INTRA:         -12.317
REMARK INTER:                 -10.333
REMARK INTRA:                  -1.984
REMARK UNBOUND:                -1.265
REMARK  Name = 
REMARK  8 active torsions:
REMARK  status: ('A' for Active; 'I' for Inactive)
REMARK    1  A    between atoms: N_1  and  C_2
REMARK    2  A    between atoms: C_2  and  C_3
REMARK    3  A    between atoms: C_2  and  C_24
REMARK    4  A    between atoms: C_3  and  C_4
REMARK    5  A    between atoms: C_8  and  C_9
REMARK    6  A    between atoms: C_9  and  N_10
REMARK    7  A    between atoms: C_11  and  C_13
REMARK    8  A    between atoms: C_24  and  C_26
REMARK                            x       y       z     vdW  Elec       q    Type
REMARK                         _______ _______ _______ _____ _____    ______ ____
ROOT
ATOM      1  C   UNL     1      48.983   4.676  18.229  0.00  0.00    +0.000 A 
ATOM      2  C   UNL     1      49.252   5.249  19.478  0.00  0.00    +0.000 A 
ATOM      3  C   UNL     1      49.344   6.634  19.614  0.00  0.00    +0.000 A 
ATOM      4  C   UNL     1      49.200   7.459  18.498  0.00  0.00    +0.000 A 
ATOM      5  C   UNL     1      48.959   6.906  17.235  0.00  0.00    +0.000 A 
ATOM      6  C   UNL     1      48.795   5.517  17.122  0.00  0.00    +0.000 A 
ENDROOT
BRANCH   1   7
ATOM      7  C   UNL     1      48.993   3.172  18.055  0.00  0.00    +0.000 C 
BRANCH   7   8
ATOM      8  C   UNL     1      49.901   2.660  16.914  0.00  0.00    +0.000 C 
BRANCH   8   9
ATOM      9  N   UNL     1      49.228   1.679  16.035  0.00  0.00    +0.000 NA
ATOM     10  H   UNL     1      48.244   1.917  15.936  0.00  0.00    +0.000 HD
ATOM     11  H   UNL     1      49.251   0.774  16.520  0.00  0.00    +0.000 HD
ENDBRANCH   8   9
BRANCH   8  12
ATOM     12  C   UNL     1      51.209   2.033  17.449  0.00  0.00    +0.000 C 
ATOM     13  O   UNL     1      51.371   0.812  17.509  0.00  0.00    +0.000 OA
BRANCH  12  14
ATOM     14  C   UNL     1      52.307   2.919  17.933  0.00  0.00    +0.000 A 
ATOM     15  C   UNL     1      52.405   4.283  17.648  0.00  0.00    +0.000 A 
ATOM     16  C   UNL     1      53.504   5.008  18.110  0.00  0.00    +0.000 A 
ATOM     17  C   UNL     1      54.464   4.352  18.860  0.00  0.00    +0.000 A 
ATOM     18  N   UNL     1      54.393   3.043  19.175  0.00  0.00    +0.000 NA
ATOM     19  C   UNL     1      53.321   2.356  18.704  0.00  0.00    +0.000 A 
ENDBRANCH  12  14
ENDBRANCH   8  12
ENDBRANCH   7   8
ENDBRANCH   1   7
BRANCH   5  20
ATOM     20  C   UNL     1      48.933   7.775  16.005  0.00  0.00    +0.000 C 
BRANCH  20  21
ATOM     21  N   UNL     1      47.871   7.411  15.107  0.00  0.00    +0.000 N 
ATOM     22  C   UNL     1      48.150   6.817  13.900  0.00  0.00    +0.000 C 
ATOM     23  O   UNL     1      49.291   6.528  13.561  0.00  0.00    +0.000 OA
ATOM     24  H   UNL     1      46.975   7.869  15.245  0.00  0.00    +0.000 HD
BRANCH  22  25
ATOM     25  C   UNL     1      46.993   6.487  13.059  0.00  0.00    +0.000 A 
ATOM     26  C   UNL     1      46.340   7.495  12.360  0.00  0.00    +0.000 A 
ATOM     27  S   UNL     1      45.047   6.933  11.400  0.00  0.00    +0.000 S 
ATOM     28  C   UNL     1      45.281   5.332  11.926  0.00  0.00    +0.000 A 
ATOM     29  N   UNL     1      44.470   4.328  11.496  0.00  0.00    +0.000 NA
ATOM     30  C   UNL     1      44.743   3.170  11.998  0.00  0.00    +0.000 A 
ATOM     31  N   UNL     1      45.758   2.922  12.885  0.00  0.00    +0.000 N 
ATOM     32  C   UNL     1      46.622   3.898  13.323  0.00  0.00    +0.000 A 
ATOM     33  O   UNL     1      47.551   3.629  14.077  0.00  0.00    +0.000 OA
ATOM     34  C   UNL     1      46.348   5.222  12.803  0.00  0.00    +0.000 A 
ATOM     35  H   UNL     1      45.928   1.990  13.232  0.00  0.00    +0.000 HD
ENDBRANCH  22  25
ENDBRANCH  20  21
ENDBRANCH   5  20
TORSDOF 8
ENDMDL
MODEL 5
REMARK VINA RESULT:    -7.342      2.986      7.779
REMARK INTER + INTRA:         -11.825
REMARK INTER:                 -10.567
REMARK INTRA:                  -1.258
REMARK UNBOUND:                -1.265
REMARK  Name = 
REMARK  8 active torsions:
REMARK  status: ('A' for Active; 'I' for Inactive)
REMARK    1  A    between atoms: N_1  and  C_2
REMARK    2  A    between atoms: C_2  and  C_3
REMARK    3  A    between atoms: C_2  and  C_24
REMARK    4  A    between atoms: C_3  and  C_4
REMARK    5  A    between atoms: C_8  and  C_9
REMARK    6  A    between atoms: C_9  and  N_10
REMARK    7  A    between atoms: C_11  and  C_13
REMARK    8  A    between atoms: C_24  and  C_26
REMARK                            x       y       z     vdW  Elec       q    Type
REMARK                         _______ _______ _______ _____ _____    ______ ____
ROOT
ATOM      1  C   UNL     1      49.085   6.903  15.362  0.00  0.00    +0.000 A 
ATOM      2  C   UNL     1      50.400   7.380  15.291  0.00  0.00    +0.000 A 
ATOM      3  C   UNL     1      50.849   8.043  14.149  0.00  0.00    +0.000 A 
ATOM      4  C   UNL     1      50.000   8.208  13.055  0.00  0.00    +0.000 A 
ATOM      5  C   UNL     1      48.691   7.714  13.094  0.00  0.00    +0.000 A 
ATOM      6  C   UNL     1      48.226   7.114  14.274  0.00  0.00    +0.000 A 
ENDROOT
BRANCH   1   7
ATOM      7  C   UNL     1      48.627   6.085  16.551  0.00  0.00    +0.000 C 
BRANCH   7   8
ATOM      8  C   UNL     1      48.268   4.617  16.227  0.00  0.00    +0.000 C 
BRANCH   8   9
ATOM      9  N   UNL     1      46.847   4.438  15.859  0.00  0.00    +0.000 NA
ATOM     10  H   UNL     1      46.248   4.830  16.580  0.00  0.00    +0.000 HD
ATOM     11  H   UNL     1      46.662   3.428  15.856  0.00  0.00    +0.000 HD
ENDBRANCH   8   9
BRANCH   8  12
ATOM     12  C   UNL     1      48.603   3.665  17.398  0.00  0.00    +0.000 C 
ATOM     13  O   UNL     1      47.763   3.350  18.244  0.00  0.00    +0.000 OA
BRANCH  12  14
ATOM     14  C   UNL     1      49.985   3.123  17.536  0.00  0.00    +0.000 A 
ATOM     15  C   UNL     1      51.079   3.859  18.000  0.00  0.00    +0.000 A 
ATOM     16  C   UNL     1      52.343   3.268  18.040  0.00  0.00    +0.000 A 
ATOM     17  C   UNL     1      52.473   1.952  17.630  0.00  0.00    +0.000 A 
ATOM     18  N   UNL     1      51.439   1.204  17.198  0.00  0.00    +0.000 NA
ATOM     19  C   UNL     1      50.221   1.805  17.157  0.00  0.00    +0.000 A 
ENDBRANCH  12  14
ENDBRANCH   8  12
ENDBRANCH   7   8
ENDBRANCH   1   7
BRANCH   5  20
ATOM     20  C   UNL     1      47.810   7.770  11.873  0.00  0.00    +0.000 C 
BRANCH  20  21
ATOM     21  N   UNL     1      47.073   6.550  11.680  0.00  0.00    +0.000 N 
ATOM     22  C   UNL     1      45.705   6.533  11.800  0.00  0.00    +0.000 C 
ATOM     23  O   UNL     1      45.055   7.548  12.021  0.00  0.00    +0.000 OA
ATOM     24  H   UNL     1      47.593   5.682  11.760  0.00  0.00    +0.000 HD
BRANCH  22  25
ATOM     25  C   UNL     1      45.052   5.237  11.584  0.00  0.00    +0.000 A 
ATOM     26  C   UNL     1      44.358   4.634  12.626  0.00  0.00    +0.000 A 
ATOM     27  S   UNL     1      43.626   3.155  12.192  0.00  0.00    +0.000 S 
ATOM     28  C   UNL     1      44.255   3.244  10.613  0.00  0.00    +0.000 A 
ATOM     29  N   UNL     1      44.022   2.254   9.711  0.00  0.00    +0.000 NA
ATOM     30  C   UNL     1      44.584   2.436   8.562  0.00  0.00    +0.000 A 
ATOM     31  N   UNL     1      45.351   3.523   8.232  0.00  0.00    +0.000 N 
ATOM     32  C   UNL     1      45.587   4.563   9.100  0.00  0.00    +0.000 A 
ATOM     33  O   UNL     1      46.236   5.544   8.752  0.00  0.00    +0.000 OA
ATOM     34  C   UNL     1      44.993   4.398  10.411  0.00  0.00    +0.000 A 
ATOM     35  H   UNL     1      45.753   3.614   7.311  0.00  0.00    +0.000 HD
ENDBRANCH  22  25
ENDBRANCH  20  21
ENDBRANCH   5  20
TORSDOF 8
ENDMDL
MODEL 6
REMARK VINA RESULT:    -7.325      2.795      3.546
REMARK INTER + INTRA:         -11.801
REMARK INTER:                 -10.953
REMARK INTRA:                  -0.848
REMARK UNBOUND:                -1.265
REMARK  Name = 
REMARK  8 active torsions:
REMARK  status: ('A' for Active; 'I' for Inactive)
REMARK    1  A    between atoms: N_1  and  C_2
REMARK    2  A    between atoms: C_2  and  C_3
REMARK    3  A    between atoms: C_2  and  C_24
REMARK    4  A    between atoms: C_3  and  C_4
REMARK    5  A    between atoms: C_8  and  C_9
REMARK    6  A    between atoms: C_9  and  N_10
REMARK    7  A    between atoms: C_11  and  C_13
REMARK    8  A    between atoms: C_24  and  C_26
REMARK                            x       y       z     vdW  Elec       q    Type
REMARK                         _______ _______ _______ _____ _____    ______ ____
ROOT
ATOM      1  C   UNL     1      47.010   4.946  13.550  0.00  0.00    +0.000 A 
ATOM      2  C   UNL     1      47.616   5.993  12.844  0.00  0.00    +0.000 A 
ATOM      3  C   UNL     1      48.458   6.891  13.499  0.00  0.00    +0.000 A 
ATOM      4  C   UNL     1      48.679   6.771  14.872  0.00  0.00    +0.000 A 
ATOM      5  C   UNL     1      48.060   5.749  15.602  0.00  0.00    +0.000 A 
ATOM      6  C   UNL     1      47.274   4.808  14.920  0.00  0.00    +0.000 A 
ENDROOT
BRANCH   1   7
ATOM      7  C   UNL     1      46.009   4.037  12.868  0.00  0.00    +0.000 C 
BRANCH   7   8
ATOM      8  C   UNL     1      44.559   4.574  12.847  0.00  0.00    +0.000 C 
BRANCH   8   9
ATOM      9  N   UNL     1      43.574   3.595  13.356  0.00  0.00    +0.000 NA
ATOM     10  H   UNL     1      42.699   4.064  13.576  0.00  0.00    +0.000 HD
ATOM     11  H   UNL     1      43.936   3.239  14.248  0.00  0.00    +0.000 HD
ENDBRANCH   8   9
BRANCH   8  12
ATOM     12  C   UNL     1      44.127   5.026  11.433  0.00  0.00    +0.000 C 
ATOM     13  O   UNL     1      43.369   5.982  11.257  0.00  0.00    +0.000 OA
BRANCH  12  14
ATOM     14  C   UNL     1      44.613   4.277  10.239  0.00  0.00    +0.000 A 
ATOM     15  C   UNL     1      44.352   2.926   9.993  0.00  0.00    +0.000 A 
ATOM     16  C   UNL     1      44.901   2.310   8.868  0.00  0.00    +0.000 A 
ATOM     17  C   UNL     1      45.681   3.066   8.011  0.00  0.00    +0.000 A 
ATOM     18  N   UNL     1      45.937   4.376   8.202  0.00  0.00    +0.000 NA
ATOM     19  C   UNL     1      45.402   4.950   9.310  0.00  0.00    +0.000 A 
ENDBRANCH  12  14
ENDBRANCH   8  12
ENDBRANCH   7   8
ENDBRANCH   1   7
BRANCH   5  20
ATOM     20  C   UNL     1      48.186   5.689  17.102  0.00  0.00    +0.000 C 
BRANCH  20  21
ATOM     21  N   UNL     1      49.292   4.873  17.521  0.00  0.00    +0.000 N 
ATOM     22  C   UNL     1      50.528   5.431  17.743  0.00  0.00    +0.000 C 
ATOM     23  O   UNL     1      50.729   6.636  17.648  0.00  0.00    +0.000 OA
ATOM     24  H   UNL     1      49.218   3.875  17.351  0.00  0.00    +0.000 HD
BRANCH  22  25
ATOM     25  C   UNL     1      51.587   4.509  18.167  0.00  0.00    +0.000 A 
ATOM     26  C   UNL     1      52.652   4.984  18.923  0.00  0.00    +0.000 A 
ATOM     27  S   UNL     1      53.769   3.773  19.366  0.00  0.00    +0.000 S 
ATOM     28  C   UNL     1      52.896   2.582  18.520  0.00  0.00    +0.000 A 
ATOM     29  N   UNL     1      53.335   1.296  18.471  0.00  0.00    +0.000 NA
ATOM     30  C   UNL     1      52.592   0.505  17.770  0.00  0.00    +0.000 A 
ATOM     31  N   UNL     1      51.446   0.882  17.121  0.00  0.00    +0.000 N 
ATOM     32  C   UNL     1      50.946   2.163  17.169  0.00  0.00    +0.000 A 
ATOM     33  O   UNL     1      49.890   2.452  16.617  0.00  0.00    +0.000 OA
ATOM     34  C   UNL     1      51.754   3.096  17.928  0.00  0.00    +0.000 A 
ATOM     35  H   UNL     1      50.901   0.213  16.598  0.00  0.00    +0.000 HD
ENDBRANCH  22  25
ENDBRANCH  20  21
ENDBRANCH   5  20
TORSDOF 8
ENDMDL
MODEL 7
REMARK VINA RESULT:    -7.053      3.198      9.330
REMARK INTER + INTRA:         -11.410
REMARK INTER:                  -9.823
REMARK INTRA:                  -1.587
REMARK UNBOUND:                -1.265
REMARK  Name = 
REMARK  8 active torsions:
REMARK  status: ('A' for Active; 'I' for Inactive)
REMARK    1  A    between atoms: N_1  and  C_2
REMARK    2  A    between atoms: C_2  and  C_3
REMARK    3  A    between atoms: C_2  and  C_24
REMARK    4  A    between atoms: C_3  and  C_4
REMARK    5  A    between atoms: C_8  and  C_9
REMARK    6  A    between atoms: C_9  and  N_10
REMARK    7  A    between atoms: C_11  and  C_13
REMARK    8  A    between atoms: C_24  and  C_26
REMARK                            x       y       z     vdW  Elec       q    Type
REMARK                         _______ _______ _______ _____ _____    ______ ____
ROOT
ATOM      1  C   UNL     1      51.062   4.557  17.623  0.00  0.00    +0.000 A 
ATOM      2  C   UNL     1      51.649   3.285  17.630  0.00  0.00    +0.000 A 
ATOM      3  C   UNL     1      50.879   2.152  17.370  0.00  0.00    +0.000 A 
ATOM      4  C   UNL     1      49.510   2.274  17.131  0.00  0.00    +0.000 A 
ATOM      5  C   UNL     1      48.898   3.533  17.147  0.00  0.00    +0.000 A 
ATOM      6  C   UNL     1      49.693   4.673  17.337  0.00  0.00    +0.000 A 
ENDROOT
BRANCH   1   7
ATOM      7  C   UNL     1      51.867   5.778  18.014  0.00  0.00    +0.000 C 
BRANCH   7   8
ATOM      8  C   UNL     1      51.026   7.040  18.312  0.00  0.00    +0.000 C 
BRANCH   8   9
ATOM      9  N   UNL     1      51.589   8.266  17.707  0.00  0.00    +0.000 NA
ATOM     10  H   UNL     1      52.049   8.042  16.828  0.00  0.00    +0.000 HD
ATOM     11  H   UNL     1      52.330   8.599  18.335  0.00  0.00    +0.000 HD
ENDBRANCH   8   9
BRANCH   8  12
ATOM     12  C   UNL     1      50.843   7.272  19.829  0.00  0.00    +0.000 C 
ATOM     13  O   UNL     1      51.657   7.916  20.494  0.00  0.00    +0.000 OA
BRANCH  12  14
ATOM     14  C   UNL     1      49.664   6.685  20.528  0.00  0.00    +0.000 A 
ATOM     15  C   UNL     1      49.609   5.380  21.024  0.00  0.00    +0.000 A 
ATOM     16  C   UNL     1      48.435   4.914  21.616  0.00  0.00    +0.000 A 
ATOM     17  C   UNL     1      47.354   5.774  21.712  0.00  0.00    +0.000 A 
ATOM     18  N   UNL     1      47.376   7.045  21.267  0.00  0.00    +0.000 NA
ATOM     19  C   UNL     1      48.526   7.472  20.683  0.00  0.00    +0.000 A 
ENDBRANCH  12  14
ENDBRANCH   8  12
ENDBRANCH   7   8
ENDBRANCH   1   7
BRANCH   5  20
ATOM     20  C   UNL     1      47.402   3.663  17.022  0.00  0.00    +0.000 C 
BRANCH  20  21
ATOM     21  N   UNL     1      47.025   4.629  16.026  0.00  0.00    +0.000 N 
ATOM     22  C   UNL     1      47.018   4.292  14.694  0.00  0.00    +0.000 C 
ATOM     23  O   UNL     1      47.278   3.160  14.303  0.00  0.00    +0.000 OA
ATOM     24  H   UNL     1      47.066   5.607  16.294  0.00  0.00    +0.000 HD
BRANCH  22  25
ATOM     25  C   UNL     1      46.617   5.352  13.761  0.00  0.00    +0.000 A 
ATOM     26  C   UNL     1      47.476   6.417  13.520  0.00  0.00    +0.000 A 
ATOM     27  S   UNL     1      46.874   7.534  12.379  0.00  0.00    +0.000 S 
ATOM     28  C   UNL     1      45.424   6.660  12.207  0.00  0.00    +0.000 A 
ATOM     29  N   UNL     1      44.436   7.099  11.382  0.00  0.00    +0.000 NA
ATOM     30  C   UNL     1      43.380   6.355  11.371  0.00  0.00    +0.000 A 
ATOM     31  N   UNL     1      43.226   5.208  12.105  0.00  0.00    +0.000 N 
ATOM     32  C   UNL     1      44.208   4.709  12.928  0.00  0.00    +0.000 A 
ATOM     33  O   UNL     1      44.053   3.652  13.530  0.00  0.00    +0.000 OA
ATOM     34  C   UNL     1      45.409   5.518  12.991  0.00  0.00    +0.000 A 
ATOM     35  H   UNL     1      42.379   4.663  12.043  0.00  0.00    +0.000 HD
ENDBRANCH  22  25
ENDBRANCH  20  21
ENDBRANCH   5  20
TORSDOF 8
ENDMDL
MODEL 8
REMARK VINA RESULT:    -7.048      2.975      5.392
REMARK INTER + INTRA:         -11.403
REMARK INTER:                 -10.082
REMARK INTRA:                  -1.321
REMARK UNBOUND:                -1.265
REMARK  Name = 
REMARK  8 active torsions:
REMARK  status: ('A' for Active; 'I' for Inactive)
REMARK    1  A    between atoms: N_1  and  C_2
REMARK    2  A    between atoms: C_2  and  C_3
REMARK    3  A    between atoms: C_2  and  C_24
REMARK    4  A    between atoms: C_3  and  C_4
REMARK    5  A    between atoms: C_8  and  C_9
REMARK    6  A    between atoms: C_9  and  N_10
REMARK    7  A    between atoms: C_11  and  C_13
REMARK    8  A    between atoms: C_24  and  C_26
REMARK                            x       y       z     vdW  Elec       q    Type
REMARK                         _______ _______ _______ _____ _____    ______ ____
ROOT
ATOM      1  C   UNL     1      44.792   6.259  11.860  0.00  0.00    +0.000 A 
ATOM      2  C   UNL     1      43.723   5.539  11.310  0.00  0.00    +0.000 A 
ATOM      3  C   UNL     1      43.582   4.177  11.570  0.00  0.00    +0.000 A 
ATOM      4  C   UNL     1      44.524   3.512  12.356  0.00  0.00    +0.000 A 
ATOM      5  C   UNL     1      45.615   4.206  12.892  0.00  0.00    +0.000 A 
ATOM      6  C   UNL     1      45.708   5.590  12.686  0.00  0.00    +0.000 A 
ENDROOT
BRANCH   1   7
ATOM      7  C   UNL     1      45.012   7.710  11.491  0.00  0.00    +0.000 C 
BRANCH   7   8
ATOM      8  C   UNL     1      45.338   8.639  12.683  0.00  0.00    +0.000 C 
BRANCH   8   9
ATOM      9  N   UNL     1      44.549   9.890  12.673  0.00  0.00    +0.000 NA
ATOM     10  H   UNL     1      45.145  10.679  12.912  0.00  0.00    +0.000 HD
ATOM     11  H   UNL     1      43.860   9.817  13.430  0.00  0.00    +0.000 HD
ENDBRANCH   8   9
BRANCH   8  12
ATOM     12  C   UNL     1      46.840   8.998  12.746  0.00  0.00    +0.000 C 
ATOM     13  O   UNL     1      47.360   9.776  11.944  0.00  0.00    +0.000 OA
BRANCH  12  14
ATOM     14  C   UNL     1      47.705   8.373  13.788  0.00  0.00    +0.000 A 
ATOM     15  C   UNL     1      47.912   8.903  15.064  0.00  0.00    +0.000 A 
ATOM     16  C   UNL     1      48.785   8.262  15.946  0.00  0.00    +0.000 A 
ATOM     17  C   UNL     1      49.410   7.099  15.531  0.00  0.00    +0.000 A 
ATOM     18  N   UNL     1      49.217   6.545  14.318  0.00  0.00    +0.000 NA
ATOM     19  C   UNL     1      48.374   7.193  13.474  0.00  0.00    +0.000 A 
ENDBRANCH  12  14
ENDBRANCH   8  12
ENDBRANCH   7   8
ENDBRANCH   1   7
BRANCH   5  20
ATOM     20  C   UNL     1      46.706   3.474  13.630  0.00  0.00    +0.000 C 
BRANCH  20  21
ATOM     21  N   UNL     1      47.011   4.088  14.894  0.00  0.00    +0.000 N 
ATOM     22  C   UNL     1      47.789   3.435  15.819  0.00  0.00    +0.000 C 
ATOM     23  O   UNL     1      48.295   2.342  15.594  0.00  0.00    +0.000 OA
ATOM     24  H   UNL     1      46.405   4.845  15.195  0.00  0.00    +0.000 HD
BRANCH  22  25
ATOM     25  C   UNL     1      48.039   4.151  17.075  0.00  0.00    +0.000 A 
ATOM     26  C   UNL     1      47.047   4.962  17.613  0.00  0.00    +0.000 A 
ATOM     27  S   UNL     1      47.486   5.684  19.096  0.00  0.00    +0.000 S 
ATOM     28  C   UNL     1      49.034   4.980  19.043  0.00  0.00    +0.000 A 
ATOM     29  N   UNL     1      49.946   5.222  20.022  0.00  0.00    +0.000 NA
ATOM     30  C   UNL     1      51.089   4.647  19.840  0.00  0.00    +0.000 A 
ATOM     31  N   UNL     1      51.399   3.847  18.772  0.00  0.00    +0.000 N 
ATOM     32  C   UNL     1      50.500   3.549  17.775  0.00  0.00    +0.000 A 
ATOM     33  O   UNL     1      50.797   2.787  16.861  0.00  0.00    +0.000 OA
ATOM     34  C   UNL     1      49.206   4.184  17.922  0.00  0.00    +0.000 A 
ATOM     35  H   UNL     1      52.308   3.416  18.693  0.00  0.00    +0.000 HD
ENDBRANCH  22  25
ENDBRANCH  20  21
ENDBRANCH   5  20
TORSDOF 8
ENDMDL
MODEL 9
REMARK VINA RESULT:    -7.004      2.001      3.377
REMARK INTER + INTRA:         -11.340
REMARK INTER:                 -11.936
REMARK INTRA:                   0.596
REMARK UNBOUND:                -1.265
REMARK  Name = 
REMARK  8 active torsions:
REMARK  status: ('A' for Active; 'I' for Inactive)
REMARK    1  A    between atoms: N_1  and  C_2
REMARK    2  A    between atoms: C_2  and  C_3
REMARK    3  A    between atoms: C_2  and  C_24
REMARK    4  A    between atoms: C_3  and  C_4
REMARK    5  A    between atoms: C_8  and  C_9
REMARK    6  A    between atoms: C_9  and  N_10
REMARK    7  A    between atoms: C_11  and  C_13
REMARK    8  A    between atoms: C_24  and  C_26
REMARK                            x       y       z     vdW  Elec       q    Type
REMARK                         _______ _______ _______ _____ _____    ______ ____
ROOT
ATOM      1  C   UNL     1      44.972   5.493  11.598  0.00  0.00    +0.000 A 
ATOM      2  C   UNL     1      45.487   6.795  11.624  0.00  0.00    +0.000 A 
ATOM      3  C   UNL     1      46.488   7.140  12.532  0.00  0.00    +0.000 A 
ATOM      4  C   UNL     1      46.963   6.196  13.443  0.00  0.00    +0.000 A 
ATOM      5  C   UNL     1      46.442   4.897  13.454  0.00  0.00    +0.000 A 
ATOM      6  C   UNL     1      45.488   4.540  12.489  0.00  0.00    +0.000 A 
ENDROOT
BRANCH   1   7
ATOM      7  C   UNL     1      43.810   5.144  10.693  0.00  0.00    +0.000 C 
BRANCH   7   8
ATOM      8  C   UNL     1      44.089   3.998   9.694  0.00  0.00    +0.000 C 
BRANCH   8   9
ATOM      9  N   UNL     1      44.244   2.683  10.351  0.00  0.00    +0.000 NA
ATOM     10  H   UNL     1      44.032   2.761  11.342  0.00  0.00    +0.000 HD
ATOM     11  H   UNL     1      45.238   2.433  10.294  0.00  0.00    +0.000 HD
ENDBRANCH   8   9
BRANCH   8  12
ATOM     12  C   UNL     1      45.341   4.273   8.829  0.00  0.00    +0.000 C 
ATOM     13  O   UNL     1      45.816   5.404   8.709  0.00  0.00    +0.000 OA
BRANCH  12  14
ATOM     14  C   UNL     1      45.988   3.150   8.092  0.00  0.00    +0.000 A 
ATOM     15  C   UNL     1      46.683   3.292   6.888  0.00  0.00    +0.000 A 
ATOM     16  C   UNL     1      47.207   2.164   6.255  0.00  0.00    +0.000 A 
ATOM     17  C   UNL     1      47.036   0.928   6.854  0.00  0.00    +0.000 A 
ATOM     18  N   UNL     1      46.393   0.754   8.026  0.00  0.00    +0.000 NA
ATOM     19  C   UNL     1      45.882   1.865   8.616  0.00  0.00    +0.000 A 
ENDBRANCH  12  14
ENDBRANCH   8  12
ENDBRANCH   7   8
ENDBRANCH   1   7
BRANCH   5  20
ATOM     20  C   UNL     1      46.851   3.912  14.517  0.00  0.00    +0.000 C 
BRANCH  20  21
ATOM     21  N   UNL     1      47.392   4.562  15.679  0.00  0.00    +0.000 N 
ATOM     22  C   UNL     1      48.242   3.891  16.524  0.00  0.00    +0.000 C 
ATOM     23  O   UNL     1      48.614   2.744  16.303  0.00  0.00    +0.000 OA
ATOM     24  H   UNL     1      46.904   5.388  16.013  0.00  0.00    +0.000 HD
BRANCH  22  25
ATOM     25  C   UNL     1      48.736   4.647  17.681  0.00  0.00    +0.000 A 
ATOM     26  C   UNL     1      48.474   4.189  18.966  0.00  0.00    +0.000 A 
ATOM     27  S   UNL     1      49.156   5.162  20.190  0.00  0.00    +0.000 S 
ATOM     28  C   UNL     1      49.779   6.258  19.047  0.00  0.00    +0.000 A 
ATOM     29  N   UNL     1      50.464   7.366  19.440  0.00  0.00    +0.000 NA
ATOM     30  C   UNL     1      50.853   8.124  18.470  0.00  0.00    +0.000 A 
ATOM     31  N   UNL     1      50.627   7.873  17.143  0.00  0.00    +0.000 N 
ATOM     32  C   UNL     1      49.968   6.751  16.696  0.00  0.00    +0.000 A 
ATOM     33  O   UNL     1      49.829   6.533  15.497  0.00  0.00    +0.000 OA
ATOM     34  C   UNL     1      49.493   5.874  17.747  0.00  0.00    +0.000 A 
ATOM     35  H   UNL     1      50.968   8.500  16.430  0.00  0.00    +0.000 HD
ENDBRANCH  22  25
ENDBRANCH  20  21
ENDBRANCH   5  20
TORSDOF 8
ENDMDL
