MODEL 1
REMARK VINA RESULT:    -7.664      0.000      0.000
REMARK INTER + INTRA:         -11.372
REMARK INTER:                 -10.128
REMARK INTRA:                  -1.244
REMARK UNBOUND:                -1.244
REMARK  Name = 
REMARK  6 active torsions:
REMARK  status: ('A' for Active; 'I' for Inactive)
REMARK    1  A    between atoms: C_2  and  O_3
REMARK    2  A    between atoms: C_2  and  C_4
REMARK    3  A    between atoms: C_8  and  C_9
REMARK    4  A    between atoms: C_9  and  C_10
REMARK    5  A    between atoms: C_10  and  C_11
REMARK    6  A    between atoms: C_15  and  C_16
REMARK                            x       y       z     vdW  Elec       q    Type
REMARK                         _______ _______ _______ _____ _____    ______ ____
ROOT
ATOM      1  C   UNL     1      44.519   4.156  11.638  0.00  0.00    +0.000 C 
ATOM      2  C   UNL     1      45.203   3.134  12.535  0.00  0.00    +0.000 C 
ATOM      3  C   UNL     1      43.853   3.646  12.915  0.00  0.00    +0.000 C 
ENDROOT
BRANCH   1   4
ATOM      4  C   UNL     1      44.898   5.638  11.704  0.00  0.00    +0.000 A 
ATOM      5  C   UNL     1      43.981   6.637  11.333  0.00  0.00    +0.000 A 
ATOM      6  C   UNL     1      44.296   7.986  11.437  0.00  0.00    +0.000 A 
ATOM      7  C   UNL     1      45.515   8.372  11.984  0.00  0.00    +0.000 A 
ATOM      8  C   UNL     1      46.446   7.421  12.414  0.00  0.00    +0.000 A 
ATOM      9  C   UNL     1      46.138   6.067  12.210  0.00  0.00    +0.000 A 
BRANCH   8  10
ATOM     10  C   UNL     1      47.726   7.765  13.168  0.00  0.00    +0.000 C 
ATOM     11  C   UNL     1      47.994   9.276  13.239  0.00  0.00    +0.000 C 
ATOM     12  C   UNL     1      48.646   9.833  11.976  0.00  0.00    +0.000 C 
ATOM     13  N   UNL     1      49.835   9.081  11.572  0.00  0.00    +0.000 NA
ATOM     14  C   UNL     1      49.595   7.643  11.436  0.00  0.00    +0.000 C 
ATOM     15  C   UNL     1      48.974   7.022  12.683  0.00  0.00    +0.000 C 
ATOM     16  H   UNL     1      50.566   9.227  12.268  0.00  0.00    +0.000 HD
ENDBRANCH   8  10
ENDBRANCH   1   4
BRANCH   1  17
ATOM     17  C   UNL     1      43.944   3.649  10.316  0.00  0.00    +0.000 C 
BRANCH  17  22
ATOM     18  C   UNL     1      46.454   2.174   7.836  0.00  0.00    +0.000 A 
ATOM     19  C   UNL     1      46.971   3.326   7.241  0.00  0.00    +0.000 A 
ATOM     20  C   UNL     1      46.469   4.575   7.604  0.00  0.00    +0.000 A 
ATOM     21  C   UNL     1      45.461   4.675   8.568  0.00  0.00    +0.000 A 
ATOM     22  C   UNL     1      44.974   3.531   9.216  0.00  0.00    +0.000 A 
ATOM     23  C   UNL     1      45.491   2.279   8.847  0.00  0.00    +0.000 A 
BRANCH  18  25
ATOM     24  O   UNL     1      46.643  -0.198   7.915  0.00  0.00    +0.000 OA
ATOM     25  C   UNL     1      46.961   0.855   7.390  0.00  0.00    +0.000 C 
BRANCH  25  26
ATOM     26  O   UNL     1      47.861   0.945   6.385  0.00  0.00    +0.000 OA
ATOM     27  H   UNL     1      48.367   0.126   6.213  0.00  0.00    +0.000 HD
ENDBRANCH  25  26
ENDBRANCH  18  25
ENDBRANCH  17  22
ENDBRANCH   1  17
TORSDOF 6
ENDMDL
MODEL 2
REMARK VINA RESULT:    -7.658      1.511      2.595
REMARK INTER + INTRA:         -11.364
REMARK INTER:                 -10.557
REMARK INTRA:                  -0.808
REMARK UNBOUND:                -1.244
REMARK  Name = 
REMARK  6 active torsions:
REMARK  status: ('A' for Active; 'I' for Inactive)
REMARK    1  A    between atoms: C_2  and  O_3
REMARK    2  A    between atoms: C_2  and  C_4
REMARK    3  A    between atoms: C_8  and  C_9
REMARK    4  A    between atoms: C_9  and  C_10
REMARK    5  A    between atoms: C_10  and  C_11
REMARK    6  A    between atoms: C_15  and  C_16
REMARK                            x       y       z     vdW  Elec       q    Type
REMARK                         _______ _______ _______ _____ _____    ______ ____
ROOT
ATOM      1  C   UNL     1      44.466   4.962  10.787  0.00  0.00    +0.000 C 
ATOM      2  C   UNL     1      43.185   4.175  11.025  0.00  0.00    +0.000 C 
ATOM      3  C   UNL     1      43.147   5.665  11.100  0.00  0.00    +0.000 C 
ENDROOT
BRANCH   1   4
ATOM      4  C   UNL     1      45.512   5.116  11.893  0.00  0.00    +0.000 A 
ATOM      5  C   UNL     1      45.633   4.157  12.914  0.00  0.00    +0.000 A 
ATOM      6  C   UNL     1      46.612   4.259  13.894  0.00  0.00    +0.000 A 
ATOM      7  C   UNL     1      47.544   5.290  13.836  0.00  0.00    +0.000 A 
ATOM      8  C   UNL     1      47.501   6.245  12.816  0.00  0.00    +0.000 A 
ATOM      9  C   UNL     1      46.444   6.169  11.895  0.00  0.00    +0.000 A 
BRANCH   8  10
ATOM     10  C   UNL     1      48.576   7.302  12.595  0.00  0.00    +0.000 C 
ATOM     11  C   UNL     1      49.298   7.705  13.890  0.00  0.00    +0.000 C 
ATOM     12  C   UNL     1      48.527   8.733  14.715  0.00  0.00    +0.000 C 
ATOM     13  N   UNL     1      48.113   9.897  13.930  0.00  0.00    +0.000 NA
ATOM     14  C   UNL     1      47.368   9.546  12.719  0.00  0.00    +0.000 C 
ATOM     15  C   UNL     1      48.106   8.546  11.835  0.00  0.00    +0.000 C 
ATOM     16  H   UNL     1      48.944  10.423  13.663  0.00  0.00    +0.000 HD
ENDBRANCH   8  10
ENDBRANCH   1   4
BRANCH   1  17
ATOM     17  C   UNL     1      44.966   5.057   9.346  0.00  0.00    +0.000 C 
BRANCH  17  22
ATOM     18  C   UNL     1      46.735   2.484   7.137  0.00  0.00    +0.000 A 
ATOM     19  C   UNL     1      46.294   1.283   7.698  0.00  0.00    +0.000 A 
ATOM     20  C   UNL     1      45.470   1.308   8.821  0.00  0.00    +0.000 A 
ATOM     21  C   UNL     1      45.075   2.528   9.378  0.00  0.00    +0.000 A 
ATOM     22  C   UNL     1      45.462   3.740   8.791  0.00  0.00    +0.000 A 
ATOM     23  C   UNL     1      46.287   3.704   7.656  0.00  0.00    +0.000 A 
BRANCH  18  25
ATOM     24  O   UNL     1      48.541   1.598   5.865  0.00  0.00    +0.000 OA
ATOM     25  C   UNL     1      47.660   2.431   5.980  0.00  0.00    +0.000 C 
BRANCH  25  26
ATOM     26  O   UNL     1      47.466   3.439   5.100  0.00  0.00    +0.000 OA
ATOM     27  H   UNL     1      46.890   3.215   4.342  0.00  0.00    +0.000 HD
ENDBRANCH  25  26
ENDBRANCH  18  25
ENDBRANCH  17  22
ENDBRANCH   1  17
TORSDOF 6
ENDMDL
MODEL 3
REMARK VINA RESULT:    -7.015      2.249      3.487
REMARK INTER + INTRA:         -10.514
REMARK INTER:                  -9.531
REMARK INTRA:                  -0.983
REMARK UNBOUND:                -1.244
REMARK  Name = 
REMARK  6 active torsions:
REMARK  status: ('A' for Active; 'I' for Inactive)
REMARK    1  A    between atoms: C_2  and  O_3
REMARK    2  A    between atoms: C_2  and  C_4
REMARK    3  A    between atoms: C_8  and  C_9
REMARK    4  A    between atoms: C_9  and  C_10
REMARK    5  A    between atoms: C_10  and  C_11
REMARK    6  A    between atoms: C_15  and  C_16
REMARK                            x       y       z     vdW  Elec       q    Type
REMARK                         _______ _______ _______ _____ _____    ______ ____
ROOT
ATOM      1  C   UNL     1      45.113   5.565  11.902  0.00  0.00    +0.000 C 
ATOM      2  C   UNL     1      45.706   4.337  12.580  0.00  0.00    +0.000 C 
ATOM      3  C   UNL     1      44.555   5.038  13.224  0.00  0.00    +0.000 C 
ENDROOT
BRANCH   1   4
ATOM      4  C   UNL     1      45.784   6.935  12.032  0.00  0.00    +0.000 A 
ATOM      5  C   UNL     1      47.184   7.059  12.024  0.00  0.00    +0.000 A 
ATOM      6  C   UNL     1      47.803   8.300  12.089  0.00  0.00    +0.000 A 
ATOM      7  C   UNL     1      47.032   9.459  12.093  0.00  0.00    +0.000 A 
ATOM      8  C   UNL     1      45.635   9.396  12.055  0.00  0.00    +0.000 A 
ATOM      9  C   UNL     1      45.038   8.126  12.083  0.00  0.00    +0.000 A 
BRANCH   8  10
ATOM     10  C   UNL     1      44.734  10.614  11.894  0.00  0.00    +0.000 C 
ATOM     11  C   UNL     1      43.472  10.322  11.067  0.00  0.00    +0.000 C 
ATOM     12  C   UNL     1      43.714  10.364   9.561  0.00  0.00    +0.000 C 
ATOM     13  N   UNL     1      44.385  11.591   9.127  0.00  0.00    +0.000 NA
ATOM     14  C   UNL     1      45.626  11.862   9.855  0.00  0.00    +0.000 C 
ATOM     15  C   UNL     1      45.439  11.869  11.369  0.00  0.00    +0.000 C 
ATOM     16  H   UNL     1      43.749  12.375   9.259  0.00  0.00    +0.000 HD
ENDBRANCH   8  10
ENDBRANCH   1   4
BRANCH   1  17
ATOM     17  C   UNL     1      44.260   5.329  10.657  0.00  0.00    +0.000 C 
BRANCH  17  22
ATOM     18  C   UNL     1      46.036   3.204   8.019  0.00  0.00    +0.000 A 
ATOM     19  C   UNL     1      45.461   1.951   8.235  0.00  0.00    +0.000 A 
ATOM     20  C   UNL     1      44.540   1.782   9.267  0.00  0.00    +0.000 A 
ATOM     21  C   UNL     1      44.184   2.865  10.076  0.00  0.00    +0.000 A 
ATOM     22  C   UNL     1      44.709   4.142   9.834  0.00  0.00    +0.000 A 
ATOM     23  C   UNL     1      45.631   4.302   8.788  0.00  0.00    +0.000 A 
BRANCH  18  25
ATOM     24  O   UNL     1      48.088   2.695   6.926  0.00  0.00    +0.000 OA
ATOM     25  C   UNL     1      47.057   3.344   6.954  0.00  0.00    +0.000 C 
BRANCH  25  26
ATOM     26  O   UNL     1      46.758   4.308   6.056  0.00  0.00    +0.000 OA
ATOM     27  H   UNL     1      45.865   4.696   6.152  0.00  0.00    +0.000 HD
ENDBRANCH  25  26
ENDBRANCH  18  25
ENDBRANCH  17  22
ENDBRANCH   1  17
TORSDOF 6
ENDMDL
MODEL 4
REMARK VINA RESULT:    -6.832      2.003      3.251
REMARK INTER + INTRA:         -10.273
REMARK INTER:                  -9.193
REMARK INTRA:                  -1.080
REMARK UNBOUND:                -1.244
REMARK  Name = 
REMARK  6 active torsions:
REMARK  status: ('A' for Active; 'I' for Inactive)
REMARK    1  A    between atoms: C_2  and  O_3
REMARK    2  A    between atoms: C_2  and  C_4
REMARK    3  A    between atoms: C_8  and  C_9
REMARK    4  A    between atoms: C_9  and  C_10
REMARK    5  A    between atoms: C_10  and  C_11
REMARK    6  A    between atoms: C_15  and  C_16
REMARK                            x       y       z     vdW  Elec       q    Type
REMARK                         _______ _______ _______ _____ _____    ______ ____
ROOT
ATOM      1  C   UNL     1      44.423   4.429  11.639  0.00  0.00    +0.000 C 
ATOM      2  C   UNL     1      45.131   3.320  12.404  0.00  0.00    +0.000 C 
ATOM      3  C   UNL     1      43.762   3.737  12.830  0.00  0.00    +0.000 C 
ENDROOT
BRANCH   1   4
ATOM      4  C   UNL     1      44.754   5.901  11.902  0.00  0.00    +0.000 A 
ATOM      5  C   UNL     1      45.788   6.264  12.781  0.00  0.00    +0.000 A 
ATOM      6  C   UNL     1      46.131   7.594  12.988  0.00  0.00    +0.000 A 
ATOM      7  C   UNL     1      45.493   8.595  12.263  0.00  0.00    +0.000 A 
ATOM      8  C   UNL     1      44.489   8.287  11.339  0.00  0.00    +0.000 A 
ATOM      9  C   UNL     1      44.101   6.943  11.221  0.00  0.00    +0.000 A 
BRANCH   8  10
ATOM     10  C   UNL     1      43.861   9.306  10.395  0.00  0.00    +0.000 C 
ATOM     11  C   UNL     1      44.677  10.603  10.283  0.00  0.00    +0.000 C 
ATOM     12  C   UNL     1      44.419  11.579  11.429  0.00  0.00    +0.000 C 
ATOM     13  N   UNL     1      42.994  11.840  11.643  0.00  0.00    +0.000 NA
ATOM     14  C   UNL     1      42.200  10.622  11.815  0.00  0.00    +0.000 C 
ATOM     15  C   UNL     1      42.390   9.621  10.680  0.00  0.00    +0.000 C 
ATOM     16  H   UNL     1      42.633  12.357  10.843  0.00  0.00    +0.000 HD
ENDBRANCH   8  10
ENDBRANCH   1   4
BRANCH   1  17
ATOM     17  C   UNL     1      43.875   4.081  10.255  0.00  0.00    +0.000 C 
BRANCH  17  22
ATOM     18  C   UNL     1      46.370   2.318   7.955  0.00  0.00    +0.000 A 
ATOM     19  C   UNL     1      47.036   3.402   7.380  0.00  0.00    +0.000 A 
ATOM     20  C   UNL     1      46.642   4.701   7.696  0.00  0.00    +0.000 A 
ATOM     21  C   UNL     1      45.592   4.918   8.593  0.00  0.00    +0.000 A 
ATOM     22  C   UNL     1      44.954   3.841   9.223  0.00  0.00    +0.000 A 
ATOM     23  C   UNL     1      45.363   2.537   8.902  0.00  0.00    +0.000 A 
BRANCH  18  25
ATOM     24  O   UNL     1      46.324  -0.059   8.083  0.00  0.00    +0.000 OA
ATOM     25  C   UNL     1      46.768   0.947   7.557  0.00  0.00    +0.000 C 
BRANCH  25  26
ATOM     26  O   UNL     1      47.719   0.928   6.596  0.00  0.00    +0.000 OA
ATOM     27  H   UNL     1      48.366   1.660   6.646  0.00  0.00    +0.000 HD
ENDBRANCH  25  26
ENDBRANCH  18  25
ENDBRANCH  17  22
ENDBRANCH   1  17
TORSDOF 6
ENDMDL
MODEL 5
REMARK VINA RESULT:    -6.796      1.298      2.014
REMARK INTER + INTRA:         -10.224
REMARK INTER:                  -9.254
REMARK INTRA:                  -0.971
REMARK UNBOUND:                -1.244
REMARK  Name = 
REMARK  6 active torsions:
REMARK  status: ('A' for Active; 'I' for Inactive)
REMARK    1  A    between atoms: C_2  and  O_3
REMARK    2  A    between atoms: C_2  and  C_4
REMARK    3  A    between atoms: C_8  and  C_9
REMARK    4  A    between atoms: C_9  and  C_10
REMARK    5  A    between atoms: C_10  and  C_11
REMARK    6  A    between atoms: C_15  and  C_16
REMARK                            x       y       z     vdW  Elec       q    Type
REMARK                         _______ _______ _______ _____ _____    ______ ____
ROOT
ATOM      1  C   UNL     1      44.916   5.729  11.801  0.00  0.00    +0.000 C 
ATOM      2  C   UNL     1      45.586   4.591  12.559  0.00  0.00    +0.000 C 
ATOM      3  C   UNL     1      44.396   5.263  13.160  0.00  0.00    +0.000 C 
ENDROOT
BRANCH   1   4
ATOM      4  C   UNL     1      45.500   7.143  11.829  0.00  0.00    +0.000 A 
ATOM      5  C   UNL     1      44.695   8.264  11.562  0.00  0.00    +0.000 A 
ATOM      6  C   UNL     1      45.202   9.555  11.635  0.00  0.00    +0.000 A 
ATOM      7  C   UNL     1      46.515   9.762  12.047  0.00  0.00    +0.000 A 
ATOM      8  C   UNL     1      47.347   8.685  12.371  0.00  0.00    +0.000 A 
ATOM      9  C   UNL     1      46.834   7.389  12.198  0.00  0.00    +0.000 A 
BRANCH   8  10
ATOM     10  C   UNL     1      48.735   8.837  12.981  0.00  0.00    +0.000 C 
ATOM     11  C   UNL     1      49.410  10.167  12.614  0.00  0.00    +0.000 C 
ATOM     12  C   UNL     1      50.071  10.147  11.238  0.00  0.00    +0.000 C 
ATOM     13  N   UNL     1      50.968   9.005  11.054  0.00  0.00    +0.000 NA
ATOM     14  C   UNL     1      50.333   7.717  11.338  0.00  0.00    +0.000 C 
ATOM     15  C   UNL     1      49.683   7.664  12.717  0.00  0.00    +0.000 C 
ATOM     16  H   UNL     1      51.771   9.118  11.671  0.00  0.00    +0.000 HD
ENDBRANCH   8  10
ENDBRANCH   1   4
BRANCH   1  17
ATOM     17  C   UNL     1      44.075   5.353  10.582  0.00  0.00    +0.000 C 
BRANCH  17  22
ATOM     18  C   UNL     1      45.971   3.119   8.123  0.00  0.00    +0.000 A 
ATOM     19  C   UNL     1      45.446   1.861   8.425  0.00  0.00    +0.000 A 
ATOM     20  C   UNL     1      44.521   1.729   9.459  0.00  0.00    +0.000 A 
ATOM     21  C   UNL     1      44.110   2.852  10.183  0.00  0.00    +0.000 A 
ATOM     22  C   UNL     1      44.583   4.129   9.852  0.00  0.00    +0.000 A 
ATOM     23  C   UNL     1      45.510   4.252   8.805  0.00  0.00    +0.000 A 
BRANCH  18  25
ATOM     24  O   UNL     1      47.921   2.437   6.940  0.00  0.00    +0.000 OA
ATOM     25  C   UNL     1      46.997   3.224   7.060  0.00  0.00    +0.000 C 
BRANCH  25  26
ATOM     26  O   UNL     1      46.842   4.316   6.278  0.00  0.00    +0.000 OA
ATOM     27  H   UNL     1      47.498   5.025   6.429  0.00  0.00    +0.000 HD
ENDBRANCH  25  26
ENDBRANCH  18  25
ENDBRANCH  17  22
ENDBRANCH   1  17
TORSDOF 6
ENDMDL
MODEL 6
REMARK VINA RESULT:    -6.658      3.757      7.043
REMARK INTER + INTRA:         -10.042
REMARK INTER:                  -8.805
REMARK INTRA:                  -1.237
REMARK UNBOUND:                -1.244
REMARK  Name = 
REMARK  6 active torsions:
REMARK  status: ('A' for Active; 'I' for Inactive)
REMARK    1  A    between atoms: C_2  and  O_3
REMARK    2  A    between atoms: C_2  and  C_4
REMARK    3  A    between atoms: C_8  and  C_9
REMARK    4  A    between atoms: C_9  and  C_10
REMARK    5  A    between atoms: C_10  and  C_11
REMARK    6  A    between atoms: C_15  and  C_16
REMARK                            x       y       z     vdW  Elec       q    Type
REMARK                         _______ _______ _______ _____ _____    ______ ____
ROOT
ATOM      1  C   UNL     1      48.547   8.102  12.948  0.00  0.00    +0.000 C 
ATOM      2  C   UNL     1      49.553   7.188  12.264  0.00  0.00    +0.000 C 
ATOM      3  C   UNL     1      49.543   8.641  11.923  0.00  0.00    +0.000 C 
ENDROOT
BRANCH   1   4
ATOM      4  C   UNL     1      47.093   8.168  12.472  0.00  0.00    +0.000 A 
ATOM      5  C   UNL     1      46.453   9.403  12.271  0.00  0.00    +0.000 A 
ATOM      6  C   UNL     1      45.152   9.476  11.790  0.00  0.00    +0.000 A 
ATOM      7  C   UNL     1      44.480   8.312  11.430  0.00  0.00    +0.000 A 
ATOM      8  C   UNL     1      45.087   7.059  11.565  0.00  0.00    +0.000 A 
ATOM      9  C   UNL     1      46.366   7.011  12.141  0.00  0.00    +0.000 A 
BRANCH   8  10
ATOM     10  C   UNL     1      44.480   5.761  11.045  0.00  0.00    +0.000 C 
ATOM     11  C   UNL     1      43.002   5.592  11.428  0.00  0.00    +0.000 C 
ATOM     12  C   UNL     1      42.804   5.059  12.845  0.00  0.00    +0.000 C 
ATOM     13  N   UNL     1      43.583   3.849  13.111  0.00  0.00    +0.000 NA
ATOM     14  C   UNL     1      45.009   4.000  12.813  0.00  0.00    +0.000 C 
ATOM     15  C   UNL     1      45.272   4.498  11.395  0.00  0.00    +0.000 C 
ATOM     16  H   UNL     1      43.209   3.088  12.547  0.00  0.00    +0.000 HD
ENDBRANCH   8  10
ENDBRANCH   1   4
BRANCH   1  17
ATOM     17  C   UNL     1      48.811   8.457  14.411  0.00  0.00    +0.000 C 
BRANCH  17  22
ATOM     18  C   UNL     1      48.355   5.067  16.123  0.00  0.00    +0.000 A 
ATOM     19  C   UNL     1      49.435   5.053  17.009  0.00  0.00    +0.000 A 
ATOM     20  C   UNL     1      50.338   6.113  17.013  0.00  0.00    +0.000 A 
ATOM     21  C   UNL     1      50.159   7.193  16.143  0.00  0.00    +0.000 A 
ATOM     22  C   UNL     1      49.048   7.249  15.291  0.00  0.00    +0.000 A 
ATOM     23  C   UNL     1      48.140   6.178  15.299  0.00  0.00    +0.000 A 
BRANCH  18  25
ATOM     24  O   UNL     1      46.656   3.643  16.991  0.00  0.00    +0.000 OA
ATOM     25  C   UNL     1      47.443   3.900  16.096  0.00  0.00    +0.000 C 
BRANCH  25  26
ATOM     26  O   UNL     1      47.617   3.115  15.010  0.00  0.00    +0.000 OA
ATOM     27  H   UNL     1      48.227   3.477  14.336  0.00  0.00    +0.000 HD
ENDBRANCH  25  26
ENDBRANCH  18  25
ENDBRANCH  17  22
ENDBRANCH   1  17
TORSDOF 6
ENDMDL
MODEL 7
REMARK VINA RESULT:    -6.398      3.900      7.181
REMARK INTER + INTRA:          -9.699
REMARK INTER:                  -9.181
REMARK INTRA:                  -0.518
REMARK UNBOUND:                -1.244
REMARK  Name = 
REMARK  6 active torsions:
REMARK  status: ('A' for Active; 'I' for Inactive)
REMARK    1  A    between atoms: C_2  and  O_3
REMARK    2  A    between atoms: C_2  and  C_4
REMARK    3  A    between atoms: C_8  and  C_9
REMARK    4  A    between atoms: C_9  and  C_10
REMARK    5  A    between atoms: C_10  and  C_11
REMARK    6  A    between atoms: C_15  and  C_16
REMARK                            x       y       z     vdW  Elec       q    Type
REMARK                         _______ _______ _______ _____ _____    ______ ____
ROOT
ATOM      1  C   UNL     1      48.343   8.020  12.703  0.00  0.00    +0.000 C 
ATOM      2  C   UNL     1      49.863   7.964  12.649  0.00  0.00    +0.000 C 
ATOM      3  C   UNL     1      49.098   8.162  11.383  0.00  0.00    +0.000 C 
ENDROOT
BRANCH   1   4
ATOM      4  C   UNL     1      47.510   6.738  12.789  0.00  0.00    +0.000 A 
ATOM      5  C   UNL     1      47.568   5.914  13.926  0.00  0.00    +0.000 A 
ATOM      6  C   UNL     1      46.779   4.776  14.037  0.00  0.00    +0.000 A 
ATOM      7  C   UNL     1      45.857   4.472  13.040  0.00  0.00    +0.000 A 
ATOM      8  C   UNL     1      45.724   5.284  11.910  0.00  0.00    +0.000 A 
ATOM      9  C   UNL     1      46.599   6.374  11.782  0.00  0.00    +0.000 A 
BRANCH   8  10
ATOM     10  C   UNL     1      44.632   5.109  10.861  0.00  0.00    +0.000 C 
ATOM     11  C   UNL     1      43.340   4.505  11.433  0.00  0.00    +0.000 C 
ATOM     12  C   UNL     1      43.392   2.984  11.563  0.00  0.00    +0.000 C 
ATOM     13  N   UNL     1      43.808   2.322  10.326  0.00  0.00    +0.000 NA
ATOM     14  C   UNL     1      45.070   2.836   9.789  0.00  0.00    +0.000 C 
ATOM     15  C   UNL     1      45.066   4.350   9.604  0.00  0.00    +0.000 C 
ATOM     16  H   UNL     1      43.078   2.448   9.626  0.00  0.00    +0.000 HD
ENDBRANCH   8  10
ENDBRANCH   1   4
BRANCH   1  17
ATOM     17  C   UNL     1      47.713   9.292  13.271  0.00  0.00    +0.000 C 
BRANCH  17  22
ATOM     18  C   UNL     1      44.654  10.154  11.143  0.00  0.00    +0.000 A 
ATOM     19  C   UNL     1      45.122  11.244  10.407  0.00  0.00    +0.000 A 
ATOM     20  C   UNL     1      46.407  11.732  10.638  0.00  0.00    +0.000 A 
ATOM     21  C   UNL     1      47.228  11.126  11.594  0.00  0.00    +0.000 A 
ATOM     22  C   UNL     1      46.793   9.995  12.298  0.00  0.00    +0.000 A 
ATOM     23  C   UNL     1      45.499   9.508  12.053  0.00  0.00    +0.000 A 
BRANCH  18  25
ATOM     24  O   UNL     1      42.313  10.448  10.828  0.00  0.00    +0.000 OA
ATOM     25  C   UNL     1      43.263   9.691  10.922  0.00  0.00    +0.000 C 
BRANCH  25  26
ATOM     26  O   UNL     1      43.149   8.344  10.900  0.00  0.00    +0.000 OA
ATOM     27  H   UNL     1      43.872   7.865  11.351  0.00  0.00    +0.000 HD
ENDBRANCH  25  26
ENDBRANCH  18  25
ENDBRANCH  17  22
ENDBRANCH   1  17
TORSDOF 6
ENDMDL
MODEL 8
REMARK VINA RESULT:    -6.283      3.948      6.439
REMARK INTER + INTRA:          -9.546
REMARK INTER:                  -8.139
REMARK INTRA:                  -1.407
REMARK UNBOUND:                -1.244
REMARK  Name = 
REMARK  6 active torsions:
REMARK  status: ('A' for Active; 'I' for Inactive)
REMARK    1  A    between atoms: C_2  and  O_3
REMARK    2  A    between atoms: C_2  and  C_4
REMARK    3  A    between atoms: C_8  and  C_9
REMARK    4  A    between atoms: C_9  and  C_10
REMARK    5  A    between atoms: C_10  and  C_11
REMARK    6  A    between atoms: C_15  and  C_16
REMARK                            x       y       z     vdW  Elec       q    Type
REMARK                         _______ _______ _______ _____ _____    ______ ____
ROOT
ATOM      1  C   UNL     1      49.242   8.018  13.112  0.00  0.00    +0.000 C 
ATOM      2  C   UNL     1      49.305   9.241  12.207  0.00  0.00    +0.000 C 
ATOM      3  C   UNL     1      50.576   8.576  12.618  0.00  0.00    +0.000 C 
ENDROOT
BRANCH   1   4
ATOM      4  C   UNL     1      49.045   8.167  14.622  0.00  0.00    +0.000 A 
ATOM      5  C   UNL     1      48.474   9.330  15.167  0.00  0.00    +0.000 A 
ATOM      6  C   UNL     1      48.244   9.456  16.530  0.00  0.00    +0.000 A 
ATOM      7  C   UNL     1      48.514   8.388  17.380  0.00  0.00    +0.000 A 
ATOM      8  C   UNL     1      49.038   7.189  16.886  0.00  0.00    +0.000 A 
ATOM      9  C   UNL     1      49.348   7.126  15.518  0.00  0.00    +0.000 A 
BRANCH   8  10
ATOM     10  C   UNL     1      49.208   5.927  17.723  0.00  0.00    +0.000 C 
ATOM     11  C   UNL     1      48.875   4.642  16.948  0.00  0.00    +0.000 C 
ATOM     12  C   UNL     1      47.379   4.344  16.890  0.00  0.00    +0.000 C 
ATOM     13  N   UNL     1      46.742   4.372  18.207  0.00  0.00    +0.000 NA
ATOM     14  C   UNL     1      46.990   5.612  18.945  0.00  0.00    +0.000 C 
ATOM     15  C   UNL     1      48.474   5.946  19.067  0.00  0.00    +0.000 C 
ATOM     16  H   UNL     1      47.091   3.588  18.756  0.00  0.00    +0.000 HD
ENDBRANCH   8  10
ENDBRANCH   1   4
BRANCH   1  17
ATOM     17  C   UNL     1      48.773   6.708  12.480  0.00  0.00    +0.000 C 
BRANCH  17  22
ATOM     18  C   UNL     1      45.288   5.142  12.656  0.00  0.00    +0.000 A 
ATOM     19  C   UNL     1      44.474   6.234  12.347  0.00  0.00    +0.000 A 
ATOM     20  C   UNL     1      45.049   7.485  12.135  0.00  0.00    +0.000 A 
ATOM     21  C   UNL     1      46.435   7.646  12.220  0.00  0.00    +0.000 A 
ATOM     22  C   UNL     1      47.269   6.548  12.471  0.00  0.00    +0.000 A 
ATOM     23  C   UNL     1      46.680   5.290  12.676  0.00  0.00    +0.000 A 
BRANCH  18  25
ATOM     24  O   UNL     1      43.534   3.724  13.417  0.00  0.00    +0.000 OA
ATOM     25  C   UNL     1      44.648   3.835  12.935  0.00  0.00    +0.000 C 
BRANCH  25  26
ATOM     26  O   UNL     1      45.450   2.782  12.661  0.00  0.00    +0.000 OA
ATOM     27  H   UNL     1      45.390   2.449  11.744  0.00  0.00    +0.000 HD
ENDBRANCH  25  26
ENDBRANCH  18  25
ENDBRANCH  17  22
ENDBRANCH   1  17
TORSDOF 6
ENDMDL
MODEL 9
REMARK VINA RESULT:    -6.195      4.436      7.228
REMARK INTER + INTRA:          -9.431
REMARK INTER:                  -8.222
REMARK INTRA:                  -1.210
REMARK UNBOUND:                -1.244
REMARK  Name = 
REMARK  6 active torsions:
REMARK  status: ('A' for Active; 'I' for Inactive)
REMARK    1  A    between atoms: C_2  and  O_3
REMARK    2  A    between atoms: C_2  and  C_4
REMARK    3  A    between atoms: C_8  and  C_9
REMARK    4  A    between atoms: C_9  and  C_10
REMARK    5  A    between atoms: C_10  and  C_11
REMARK    6  A    between atoms: C_15  and  C_16
REMARK                            x       y       z     vdW  Elec       q    Type
REMARK                         _______ _______ _______ _____ _____    ______ ____
ROOT
ATOM      1  C   UNL     1      49.216   8.339  14.998  0.00  0.00    +0.000 C 
ATOM      2  C   UNL     1      48.233   9.195  15.785  0.00  0.00    +0.000 C 
ATOM      3  C   UNL     1      49.560   9.769  15.412  0.00  0.00    +0.000 C 
ENDROOT
BRANCH   1   4
ATOM      4  C   UNL     1      50.074   7.283  15.698  0.00  0.00    +0.000 A 
ATOM      5  C   UNL     1      51.478   7.339  15.644  0.00  0.00    +0.000 A 
ATOM      6  C   UNL     1      52.267   6.415  16.318  0.00  0.00    +0.000 A 
ATOM      7  C   UNL     1      51.670   5.451  17.124  0.00  0.00    +0.000 A 
ATOM      8  C   UNL     1      50.279   5.379  17.252  0.00  0.00    +0.000 A 
ATOM      9  C   UNL     1      49.506   6.266  16.486  0.00  0.00    +0.000 A 
BRANCH   8  10
ATOM     10  C   UNL     1      49.563   4.461  18.236  0.00  0.00    +0.000 C 
ATOM     11  C   UNL     1      49.686   2.974  17.869  0.00  0.00    +0.000 C 
ATOM     12  C   UNL     1      48.687   2.531  16.803  0.00  0.00    +0.000 C 
ATOM     13  N   UNL     1      47.309   2.906  17.125  0.00  0.00    +0.000 NA
ATOM     14  C   UNL     1      47.149   4.332  17.419  0.00  0.00    +0.000 C 
ATOM     15  C   UNL     1      48.100   4.827  18.504  0.00  0.00    +0.000 C 
ATOM     16  H   UNL     1      47.005   2.368  17.935  0.00  0.00    +0.000 HD
ENDBRANCH   8  10
ENDBRANCH   1   4
BRANCH   1  17
ATOM     17  C   UNL     1      48.911   8.111  13.518  0.00  0.00    +0.000 C 
BRANCH  17  22
ATOM     18  C   UNL     1      46.387   5.263  13.130  0.00  0.00    +0.000 A 
ATOM     19  C   UNL     1      45.244   5.955  12.724  0.00  0.00    +0.000 A 
ATOM     20  C   UNL     1      45.276   7.345  12.628  0.00  0.00    +0.000 A 
ATOM     21  C   UNL     1      46.450   8.044  12.926  0.00  0.00    +0.000 A 
ATOM     22  C   UNL     1      47.621   7.359  13.278  0.00  0.00    +0.000 A 
ATOM     23  C   UNL     1      47.580   5.958  13.365  0.00  0.00    +0.000 A 
BRANCH  18  25
ATOM     24  O   UNL     1      45.389   3.120  12.853  0.00  0.00    +0.000 OA
ATOM     25  C   UNL     1      46.311   3.791  13.283  0.00  0.00    +0.000 C 
BRANCH  25  26
ATOM     26  O   UNL     1      47.335   3.278  14.001  0.00  0.00    +0.000 OA
ATOM     27  H   UNL     1      47.734   2.468  13.625  0.00  0.00    +0.000 HD
ENDBRANCH  25  26
ENDBRANCH  18  25
ENDBRANCH  17  22
ENDBRANCH   1  17
TORSDOF 6
ENDMDL
