MODEL 1
REMARK VINA RESULT:    -8.854      0.000      0.000
REMARK INTER + INTRA:         -12.558
REMARK INTER:                 -11.442
REMARK INTRA:                  -1.116
REMARK UNBOUND:                -1.116
REMARK  Name = 
REMARK  5 active torsions:
REMARK  status: ('A' for Active; 'I' for Inactive)
REMARK    1  A    between atoms: C_2  and  C_18
REMARK    2  A    between atoms: N_3  and  C_4
REMARK    3  A    between atoms: C_4  and  C_5
REMARK    4  A    between atoms: C_9  and  O_10
REMARK    5  A    between atoms: O_10  and  C_11
REMARK                            x       y       z     vdW  Elec       q    Type
REMARK                         _______ _______ _______ _____ _____    ______ ____
ROOT
ATOM      1  O   UNL     1      48.932   6.540  12.941  0.00  0.00    +0.000 OA
ATOM      2  C   UNL     1      48.103   6.513  13.846  0.00  0.00    +0.000 C 
ATOM      3  N   UNL     1      46.773   6.741  13.628  0.00  0.00    +0.000 N 
ATOM      4  H   UNL     1      46.108   6.688  14.389  0.00  0.00    +0.000 HD
ENDROOT
BRANCH   2   5
ATOM      5  C   UNL     1      48.491   6.274  15.238  0.00  0.00    +0.000 A 
ATOM      6  C   UNL     1      49.333   7.164  15.890  0.00  0.00    +0.000 A 
ATOM      7  S   UNL     1      49.651   6.735  17.512  0.00  0.00    +0.000 S 
ATOM      8  C   UNL     1      48.699   5.330  17.387  0.00  0.00    +0.000 A 
ATOM      9  N   UNL     1      48.550   4.488  18.446  0.00  0.00    +0.000 NA
ATOM     10  C   UNL     1      47.820   3.450  18.200  0.00  0.00    +0.000 A 
ATOM     11  N   UNL     1      47.235   3.172  16.995  0.00  0.00    +0.000 N 
ATOM     12  C   UNL     1      47.346   3.997  15.901  0.00  0.00    +0.000 A 
ATOM     13  O   UNL     1      46.780   3.730  14.848  0.00  0.00    +0.000 OA
ATOM     14  C   UNL     1      48.147   5.187  16.125  0.00  0.00    +0.000 A 
ATOM     15  H   UNL     1      46.670   2.344  16.868  0.00  0.00    +0.000 HD
ENDBRANCH   2   5
BRANCH   3  16
ATOM     16  C   UNL     1      46.220   6.935  12.312  0.00  0.00    +0.000 C 
BRANCH  16  17
ATOM     17  C   UNL     1      45.172   5.906  11.972  0.00  0.00    +0.000 A 
ATOM     18  C   UNL     1      44.321   5.404  12.951  0.00  0.00    +0.000 A 
ATOM     19  C   UNL     1      43.352   4.473  12.589  0.00  0.00    +0.000 A 
ATOM     20  C   UNL     1      43.253   4.072  11.262  0.00  0.00    +0.000 A 
ATOM     21  C   UNL     1      44.131   4.626  10.344  0.00  0.00    +0.000 A 
ATOM     22  N   UNL     1      45.103   5.505  10.678  0.00  0.00    +0.000 NA
BRANCH  21  23
ATOM     23  O   UNL     1      43.976   4.249   9.020  0.00  0.00    +0.000 OA
BRANCH  23  24
ATOM     24  C   UNL     1      44.967   3.475   8.454  0.00  0.00    +0.000 A 
ATOM     25  C   UNL     1      45.155   2.132   8.775  0.00  0.00    +0.000 A 
ATOM     26  C   UNL     1      46.206   1.436   8.184  0.00  0.00    +0.000 A 
ATOM     27  C   UNL     1      47.062   2.110   7.325  0.00  0.00    +0.000 A 
ATOM     28  C   UNL     1      46.832   3.456   7.098  0.00  0.00    +0.000 A 
ATOM     29  N   UNL     1      45.815   4.154   7.648  0.00  0.00    +0.000 NA
ENDBRANCH  23  24
ENDBRANCH  21  23
ENDBRANCH  16  17
ENDBRANCH   3  16
TORSDOF 5
ENDMDL
MODEL 2
REMARK VINA RESULT:    -8.204      2.052      2.882
REMARK INTER + INTRA:         -11.719
REMARK INTER:                 -11.080
REMARK INTRA:                  -0.639
REMARK UNBOUND:                -1.116
REMARK  Name = 
REMARK  5 active torsions:
REMARK  status: ('A' for Active; 'I' for Inactive)
REMARK    1  A    between atoms: C_2  and  C_18
REMARK    2  A    between atoms: N_3  and  C_4
REMARK    3  A    between atoms: C_4  and  C_5
REMARK    4  A    between atoms: C_9  and  O_10
REMARK    5  A    between atoms: O_10  and  C_11
REMARK                            x       y       z     vdW  Elec       q    Type
REMARK                         _______ _______ _______ _____ _____    ______ ____
ROOT
ATOM      1  O   UNL     1      46.588   3.252  16.984  0.00  0.00    +0.000 OA
ATOM      2  C   UNL     1      47.400   4.026  16.486  0.00  0.00    +0.000 C 
ATOM      3  N   UNL     1      47.246   4.539  15.229  0.00  0.00    +0.000 N 
ATOM      4  H   UNL     1      47.919   5.195  14.852  0.00  0.00    +0.000 HD
ENDROOT
BRANCH   2   5
ATOM      5  C   UNL     1      48.621   4.422  17.193  0.00  0.00    +0.000 A 
ATOM      6  C   UNL     1      48.713   5.678  17.774  0.00  0.00    +0.000 A 
ATOM      7  S   UNL     1      50.197   5.949  18.575  0.00  0.00    +0.000 S 
ATOM      8  C   UNL     1      50.776   4.408  18.144  0.00  0.00    +0.000 A 
ATOM      9  N   UNL     1      52.017   3.996  18.521  0.00  0.00    +0.000 NA
ATOM     10  C   UNL     1      52.333   2.814  18.103  0.00  0.00    +0.000 A 
ATOM     11  N   UNL     1      51.529   2.013  17.340  0.00  0.00    +0.000 N 
ATOM     12  C   UNL     1      50.264   2.379  16.946  0.00  0.00    +0.000 A 
ATOM     13  O   UNL     1      49.561   1.620  16.289  0.00  0.00    +0.000 OA
ATOM     14  C   UNL     1      49.852   3.696  17.397  0.00  0.00    +0.000 A 
ATOM     15  H   UNL     1      51.833   1.093  17.049  0.00  0.00    +0.000 HD
ENDBRANCH   2   5
BRANCH   3  16
ATOM     16  C   UNL     1      46.076   4.295  14.424  0.00  0.00    +0.000 C 
BRANCH  16  17
ATOM     17  C   UNL     1      46.079   5.098  13.148  0.00  0.00    +0.000 A 
ATOM     18  C   UNL     1      46.859   6.243  13.027  0.00  0.00    +0.000 A 
ATOM     19  C   UNL     1      46.850   6.941  11.823  0.00  0.00    +0.000 A 
ATOM     20  C   UNL     1      46.070   6.476  10.771  0.00  0.00    +0.000 A 
ATOM     21  C   UNL     1      45.329   5.321  10.967  0.00  0.00    +0.000 A 
ATOM     22  N   UNL     1      45.294   4.646  12.138  0.00  0.00    +0.000 NA
BRANCH  21  23
ATOM     23  O   UNL     1      44.603   4.851   9.885  0.00  0.00    +0.000 OA
BRANCH  23  24
ATOM     24  C   UNL     1      45.210   3.931   9.056  0.00  0.00    +0.000 A 
ATOM     25  C   UNL     1      45.171   2.558   9.293  0.00  0.00    +0.000 A 
ATOM     26  C   UNL     1      45.845   1.703   8.426  0.00  0.00    +0.000 A 
ATOM     27  C   UNL     1      46.572   2.244   7.375  0.00  0.00    +0.000 A 
ATOM     28  C   UNL     1      46.598   3.622   7.240  0.00  0.00    +0.000 A 
ATOM     29  N   UNL     1      45.945   4.475   8.059  0.00  0.00    +0.000 NA
ENDBRANCH  23  24
ENDBRANCH  21  23
ENDBRANCH  16  17
ENDBRANCH   3  16
TORSDOF 5
ENDMDL
MODEL 3
REMARK VINA RESULT:    -8.121      1.832      2.888
REMARK INTER + INTRA:         -11.611
REMARK INTER:                 -10.703
REMARK INTRA:                  -0.908
REMARK UNBOUND:                -1.116
REMARK  Name = 
REMARK  5 active torsions:
REMARK  status: ('A' for Active; 'I' for Inactive)
REMARK    1  A    between atoms: C_2  and  C_18
REMARK    2  A    between atoms: N_3  and  C_4
REMARK    3  A    between atoms: C_4  and  C_5
REMARK    4  A    between atoms: C_9  and  O_10
REMARK    5  A    between atoms: O_10  and  C_11
REMARK                            x       y       z     vdW  Elec       q    Type
REMARK                         _______ _______ _______ _____ _____    ______ ____
ROOT
ATOM      1  O   UNL     1      48.183   2.808  15.822  0.00  0.00    +0.000 OA
ATOM      2  C   UNL     1      47.652   3.912  15.757  0.00  0.00    +0.000 C 
ATOM      3  N   UNL     1      46.919   4.309  14.675  0.00  0.00    +0.000 N 
ATOM      4  H   UNL     1      46.470   5.217  14.658  0.00  0.00    +0.000 HD
ENDROOT
BRANCH   2   5
ATOM      5  C   UNL     1      47.803   4.903  16.826  0.00  0.00    +0.000 A 
ATOM      6  C   UNL     1      47.266   4.661  18.082  0.00  0.00    +0.000 A 
ATOM      7  S   UNL     1      47.566   5.915  19.202  0.00  0.00    +0.000 S 
ATOM      8  C   UNL     1      48.395   6.836  18.036  0.00  0.00    +0.000 A 
ATOM      9  N   UNL     1      48.919   8.053  18.347  0.00  0.00    +0.000 NA
ATOM     10  C   UNL     1      49.499   8.649  17.358  0.00  0.00    +0.000 A 
ATOM     11  N   UNL     1      49.597   8.147  16.089  0.00  0.00    +0.000 N 
ATOM     12  C   UNL     1      49.096   6.918  15.730  0.00  0.00    +0.000 A 
ATOM     13  O   UNL     1      49.232   6.488  14.591  0.00  0.00    +0.000 OA
ATOM     14  C   UNL     1      48.442   6.198  16.807  0.00  0.00    +0.000 A 
ATOM     15  H   UNL     1      50.071   8.662  15.359  0.00  0.00    +0.000 HD
ENDBRANCH   2   5
BRANCH   3  16
ATOM     16  C   UNL     1      46.627   3.436  13.566  0.00  0.00    +0.000 C 
BRANCH  16  17
ATOM     17  C   UNL     1      45.430   3.895  12.773  0.00  0.00    +0.000 A 
ATOM     18  C   UNL     1      44.625   4.932  13.232  0.00  0.00    +0.000 A 
ATOM     19  C   UNL     1      43.543   5.339  12.457  0.00  0.00    +0.000 A 
ATOM     20  C   UNL     1      43.297   4.707  11.244  0.00  0.00    +0.000 A 
ATOM     21  C   UNL     1      44.152   3.690  10.852  0.00  0.00    +0.000 A 
ATOM     22  N   UNL     1      45.187   3.253  11.604  0.00  0.00    +0.000 NA
BRANCH  21  23
ATOM     23  O   UNL     1      43.915   3.114   9.614  0.00  0.00    +0.000 OA
BRANCH  23  24
ATOM     24  C   UNL     1      45.000   2.890   8.793  0.00  0.00    +0.000 A 
ATOM     25  C   UNL     1      45.555   3.881   7.985  0.00  0.00    +0.000 A 
ATOM     26  C   UNL     1      46.625   3.556   7.157  0.00  0.00    +0.000 A 
ATOM     27  C   UNL     1      47.083   2.247   7.127  0.00  0.00    +0.000 A 
ATOM     28  C   UNL     1      46.443   1.314   7.926  0.00  0.00    +0.000 A 
ATOM     29  N   UNL     1      45.410   1.601   8.746  0.00  0.00    +0.000 NA
ENDBRANCH  23  24
ENDBRANCH  21  23
ENDBRANCH  16  17
ENDBRANCH   3  16
TORSDOF 5
ENDMDL
MODEL 4
REMARK VINA RESULT:    -7.795      1.810      2.345
REMARK INTER + INTRA:         -11.189
REMARK INTER:                 -10.220
REMARK INTRA:                  -0.969
REMARK UNBOUND:                -1.116
REMARK  Name = 
REMARK  5 active torsions:
REMARK  status: ('A' for Active; 'I' for Inactive)
REMARK    1  A    between atoms: C_2  and  C_18
REMARK    2  A    between atoms: N_3  and  C_4
REMARK    3  A    between atoms: C_4  and  C_5
REMARK    4  A    between atoms: C_9  and  O_10
REMARK    5  A    between atoms: O_10  and  C_11
REMARK                            x       y       z     vdW  Elec       q    Type
REMARK                         _______ _______ _______ _____ _____    ______ ____
ROOT
ATOM      1  O   UNL     1      48.686   6.142  12.917  0.00  0.00    +0.000 OA
ATOM      2  C   UNL     1      48.117   6.129  14.005  0.00  0.00    +0.000 C 
ATOM      3  N   UNL     1      47.163   5.204  14.321  0.00  0.00    +0.000 N 
ATOM      4  H   UNL     1      46.728   5.201  15.236  0.00  0.00    +0.000 HD
ENDROOT
BRANCH   2   5
ATOM      5  C   UNL     1      48.394   7.138  15.030  0.00  0.00    +0.000 A 
ATOM      6  C   UNL     1      48.169   8.482  14.765  0.00  0.00    +0.000 A 
ATOM      7  S   UNL     1      48.524   9.504  16.086  0.00  0.00    +0.000 S 
ATOM      8  C   UNL     1      49.019   8.188  17.045  0.00  0.00    +0.000 A 
ATOM      9  N   UNL     1      49.457   8.376  18.319  0.00  0.00    +0.000 NA
ATOM     10  C   UNL     1      49.823   7.292  18.920  0.00  0.00    +0.000 A 
ATOM     11  N   UNL     1      49.799   6.043  18.363  0.00  0.00    +0.000 N 
ATOM     12  C   UNL     1      49.353   5.800  17.085  0.00  0.00    +0.000 A 
ATOM     13  O   UNL     1      49.316   4.662  16.633  0.00  0.00    +0.000 OA
ATOM     14  C   UNL     1      48.918   6.985  16.367  0.00  0.00    +0.000 A 
ATOM     15  H   UNL     1      50.094   5.231  18.889  0.00  0.00    +0.000 HD
ENDBRANCH   2   5
BRANCH   3  16
ATOM     16  C   UNL     1      46.815   4.111  13.449  0.00  0.00    +0.000 C 
BRANCH  16  17
ATOM     17  C   UNL     1      45.480   4.314  12.779  0.00  0.00    +0.000 A 
ATOM     18  C   UNL     1      44.553   5.215  13.293  0.00  0.00    +0.000 A 
ATOM     19  C   UNL     1      43.342   5.388  12.630  0.00  0.00    +0.000 A 
ATOM     20  C   UNL     1      43.090   4.665  11.469  0.00  0.00    +0.000 A 
ATOM     21  C   UNL     1      44.069   3.796  11.015  0.00  0.00    +0.000 A 
ATOM     22  N   UNL     1      45.238   3.584  11.662  0.00  0.00    +0.000 NA
BRANCH  21  23
ATOM     23  O   UNL     1      43.814   3.128   9.828  0.00  0.00    +0.000 OA
BRANCH  23  24
ATOM     24  C   UNL     1      44.865   2.949   8.954  0.00  0.00    +0.000 A 
ATOM     25  C   UNL     1      45.329   3.957   8.111  0.00  0.00    +0.000 A 
ATOM     26  C   UNL     1      46.371   3.677   7.232  0.00  0.00    +0.000 A 
ATOM     27  C   UNL     1      46.890   2.392   7.189  0.00  0.00    +0.000 A 
ATOM     28  C   UNL     1      46.339   1.437   8.027  0.00  0.00    +0.000 A 
ATOM     29  N   UNL     1      45.336   1.681   8.898  0.00  0.00    +0.000 NA
ENDBRANCH  23  24
ENDBRANCH  21  23
ENDBRANCH  16  17
ENDBRANCH   3  16
TORSDOF 5
ENDMDL
MODEL 5
REMARK VINA RESULT:    -7.773      1.622      2.181
REMARK INTER + INTRA:         -11.161
REMARK INTER:                 -10.466
REMARK INTRA:                  -0.695
REMARK UNBOUND:                -1.116
REMARK  Name = 
REMARK  5 active torsions:
REMARK  status: ('A' for Active; 'I' for Inactive)
REMARK    1  A    between atoms: C_2  and  C_18
REMARK    2  A    between atoms: N_3  and  C_4
REMARK    3  A    between atoms: C_4  and  C_5
REMARK    4  A    between atoms: C_9  and  O_10
REMARK    5  A    between atoms: O_10  and  C_11
REMARK                            x       y       z     vdW  Elec       q    Type
REMARK                         _______ _______ _______ _____ _____    ______ ____
ROOT
ATOM      1  O   UNL     1      48.856   6.362  14.509  0.00  0.00    +0.000 OA
ATOM      2  C   UNL     1      47.947   5.684  14.979  0.00  0.00    +0.000 C 
ATOM      3  N   UNL     1      46.770   5.477  14.317  0.00  0.00    +0.000 N 
ATOM      4  H   UNL     1      46.047   4.892  14.718  0.00  0.00    +0.000 HD
ENDROOT
BRANCH   2   5
ATOM      5  C   UNL     1      48.046   5.081  16.311  0.00  0.00    +0.000 A 
ATOM      6  C   UNL     1      47.887   3.712  16.470  0.00  0.00    +0.000 A 
ATOM      7  S   UNL     1      48.063   3.191  18.087  0.00  0.00    +0.000 S 
ATOM      8  C   UNL     1      48.326   4.782  18.632  0.00  0.00    +0.000 A 
ATOM      9  N   UNL     1      48.544   5.044  19.949  0.00  0.00    +0.000 NA
ATOM     10  C   UNL     1      48.704   6.298  20.221  0.00  0.00    +0.000 A 
ATOM     11  N   UNL     1      48.657   7.310  19.301  0.00  0.00    +0.000 N 
ATOM     12  C   UNL     1      48.453   7.094  17.959  0.00  0.00    +0.000 A 
ATOM     13  O   UNL     1      48.451   8.025  17.162  0.00  0.00    +0.000 OA
ATOM     14  C   UNL     1      48.278   5.700  17.596  0.00  0.00    +0.000 A 
ATOM     15  H   UNL     1      48.797   8.273  19.578  0.00  0.00    +0.000 HD
ENDBRANCH   2   5
BRANCH   3  16
ATOM     16  C   UNL     1      46.534   5.951  12.977  0.00  0.00    +0.000 C 
BRANCH  16  17
ATOM     17  C   UNL     1      45.348   5.281  12.331  0.00  0.00    +0.000 A 
ATOM     18  C   UNL     1      44.265   4.858  13.093  0.00  0.00    +0.000 A 
ATOM     19  C   UNL     1      43.181   4.265  12.454  0.00  0.00    +0.000 A 
ATOM     20  C   UNL     1      43.202   4.115  11.072  0.00  0.00    +0.000 A 
ATOM     21  C   UNL     1      44.314   4.572  10.383  0.00  0.00    +0.000 A 
ATOM     22  N   UNL     1      45.394   5.119  10.985  0.00  0.00    +0.000 NA
BRANCH  21  23
ATOM     23  O   UNL     1      44.286   4.458   9.002  0.00  0.00    +0.000 OA
BRANCH  23  24
ATOM     24  C   UNL     1      45.174   3.583   8.413  0.00  0.00    +0.000 A 
ATOM     25  C   UNL     1      45.276   2.244   8.785  0.00  0.00    +0.000 A 
ATOM     26  C   UNL     1      46.228   1.441   8.163  0.00  0.00    +0.000 A 
ATOM     27  C   UNL     1      47.077   2.005   7.223  0.00  0.00    +0.000 A 
ATOM     28  C   UNL     1      46.940   3.356   6.947  0.00  0.00    +0.000 A 
ATOM     29  N   UNL     1      46.019   4.157   7.525  0.00  0.00    +0.000 NA
ENDBRANCH  23  24
ENDBRANCH  21  23
ENDBRANCH  16  17
ENDBRANCH   3  16
TORSDOF 5
ENDMDL
MODEL 6
REMARK VINA RESULT:    -7.588      2.253      3.812
REMARK INTER + INTRA:         -10.922
REMARK INTER:                  -9.999
REMARK INTRA:                  -0.923
REMARK UNBOUND:                -1.116
REMARK  Name = 
REMARK  5 active torsions:
REMARK  status: ('A' for Active; 'I' for Inactive)
REMARK    1  A    between atoms: C_2  and  C_18
REMARK    2  A    between atoms: N_3  and  C_4
REMARK    3  A    between atoms: C_4  and  C_5
REMARK    4  A    between atoms: C_9  and  O_10
REMARK    5  A    between atoms: O_10  and  C_11
REMARK                            x       y       z     vdW  Elec       q    Type
REMARK                         _______ _______ _______ _____ _____    ______ ____
ROOT
ATOM      1  O   UNL     1      48.666   5.807  12.902  0.00  0.00    +0.000 OA
ATOM      2  C   UNL     1      48.046   6.213  13.880  0.00  0.00    +0.000 C 
ATOM      3  N   UNL     1      46.941   5.571  14.364  0.00  0.00    +0.000 N 
ATOM      4  H   UNL     1      46.463   5.914  15.188  0.00  0.00    +0.000 HD
ENDROOT
BRANCH   2   5
ATOM      5  C   UNL     1      48.425   7.446  14.575  0.00  0.00    +0.000 A 
ATOM      6  C   UNL     1      48.796   7.407  15.911  0.00  0.00    +0.000 A 
ATOM      7  S   UNL     1      49.229   8.934  16.541  0.00  0.00    +0.000 S 
ATOM      8  C   UNL     1      48.905   9.702  15.057  0.00  0.00    +0.000 A 
ATOM      9  N   UNL     1      49.071  11.044  14.912  0.00  0.00    +0.000 NA
ATOM     10  C   UNL     1      48.764  11.494  13.740  0.00  0.00    +0.000 A 
ATOM     11  N   UNL     1      48.300  10.728  12.705  0.00  0.00    +0.000 N 
ATOM     12  C   UNL     1      48.128   9.367  12.798  0.00  0.00    +0.000 A 
ATOM     13  O   UNL     1      47.741   8.711  11.839  0.00  0.00    +0.000 OA
ATOM     14  C   UNL     1      48.469   8.807  14.094  0.00  0.00    +0.000 A 
ATOM     15  H   UNL     1      48.083  11.140  11.807  0.00  0.00    +0.000 HD
ENDBRANCH   2   5
BRANCH   3  16
ATOM     16  C   UNL     1      46.470   4.317  13.832  0.00  0.00    +0.000 C 
BRANCH  16  17
ATOM     17  C   UNL     1      45.363   4.500  12.826  0.00  0.00    +0.000 A 
ATOM     18  C   UNL     1      44.532   5.613  12.874  0.00  0.00    +0.000 A 
ATOM     19  C   UNL     1      43.537   5.754  11.911  0.00  0.00    +0.000 A 
ATOM     20  C   UNL     1      43.402   4.785  10.923  0.00  0.00    +0.000 A 
ATOM     21  C   UNL     1      44.277   3.711  10.938  0.00  0.00    +0.000 A 
ATOM     22  N   UNL     1      45.227   3.534  11.883  0.00  0.00    +0.000 NA
BRANCH  21  23
ATOM     23  O   UNL     1      44.154   2.788   9.911  0.00  0.00    +0.000 OA
BRANCH  23  24
ATOM     24  C   UNL     1      45.159   2.741   8.968  0.00  0.00    +0.000 A 
ATOM     25  C   UNL     1      45.536   3.847   8.208  0.00  0.00    +0.000 A 
ATOM     26  C   UNL     1      46.535   3.699   7.250  0.00  0.00    +0.000 A 
ATOM     27  C   UNL     1      47.097   2.447   7.049  0.00  0.00    +0.000 A 
ATOM     28  C   UNL     1      46.630   1.391   7.814  0.00  0.00    +0.000 A 
ATOM     29  N   UNL     1      45.670   1.506   8.757  0.00  0.00    +0.000 NA
ENDBRANCH  23  24
ENDBRANCH  21  23
ENDBRANCH  16  17
ENDBRANCH   3  16
TORSDOF 5
ENDMDL
MODEL 7
REMARK VINA RESULT:    -7.478      3.242      7.953
REMARK INTER + INTRA:         -10.780
REMARK INTER:                 -10.026
REMARK INTRA:                  -0.754
REMARK UNBOUND:                -1.116
REMARK  Name = 
REMARK  5 active torsions:
REMARK  status: ('A' for Active; 'I' for Inactive)
REMARK    1  A    between atoms: C_2  and  C_18
REMARK    2  A    between atoms: N_3  and  C_4
REMARK    3  A    between atoms: C_4  and  C_5
REMARK    4  A    between atoms: C_9  and  O_10
REMARK    5  A    between atoms: O_10  and  C_11
REMARK                            x       y       z     vdW  Elec       q    Type
REMARK                         _______ _______ _______ _____ _____    ______ ____
ROOT
ATOM      1  O   UNL     1      48.866   6.101  12.967  0.00  0.00    +0.000 OA
ATOM      2  C   UNL     1      47.777   6.293  13.500  0.00  0.00    +0.000 C 
ATOM      3  N   UNL     1      47.658   6.615  14.823  0.00  0.00    +0.000 N 
ATOM      4  H   UNL     1      46.748   6.793  15.231  0.00  0.00    +0.000 HD
ENDROOT
BRANCH   2   5
ATOM      5  C   UNL     1      46.521   6.146  12.761  0.00  0.00    +0.000 A 
ATOM      6  C   UNL     1      45.915   7.256  12.190  0.00  0.00    +0.000 A 
ATOM      7  S   UNL     1      44.476   6.886  11.348  0.00  0.00    +0.000 S 
ATOM      8  C   UNL     1      44.599   5.236  11.746  0.00  0.00    +0.000 A 
ATOM      9  N   UNL     1      43.661   4.343  11.329  0.00  0.00    +0.000 NA
ATOM     10  C   UNL     1      43.869   3.131  11.725  0.00  0.00    +0.000 A 
ATOM     11  N   UNL     1      44.921   2.732  12.505  0.00  0.00    +0.000 N 
ATOM     12  C   UNL     1      45.900   3.593  12.940  0.00  0.00    +0.000 A 
ATOM     13  O   UNL     1      46.844   3.192  13.610  0.00  0.00    +0.000 OA
ATOM     14  C   UNL     1      45.721   4.969  12.513  0.00  0.00    +0.000 A 
ATOM     15  H   UNL     1      45.031   1.764  12.777  0.00  0.00    +0.000 HD
ENDBRANCH   2   5
BRANCH   3  16
ATOM     16  C   UNL     1      48.795   6.853  15.675  0.00  0.00    +0.000 C 
BRANCH  16  17
ATOM     17  C   UNL     1      48.865   5.880  16.824  0.00  0.00    +0.000 A 
ATOM     18  C   UNL     1      48.385   6.226  18.082  0.00  0.00    +0.000 A 
ATOM     19  C   UNL     1      48.448   5.289  19.109  0.00  0.00    +0.000 A 
ATOM     20  C   UNL     1      48.981   4.030  18.853  0.00  0.00    +0.000 A 
ATOM     21  C   UNL     1      49.428   3.760  17.569  0.00  0.00    +0.000 A 
ATOM     22  N   UNL     1      49.410   4.665  16.565  0.00  0.00    +0.000 NA
BRANCH  21  23
ATOM     23  O   UNL     1      49.905   2.481  17.329  0.00  0.00    +0.000 OA
BRANCH  23  24
ATOM     24  C   UNL     1      51.237   2.235  17.586  0.00  0.00    +0.000 A 
ATOM     25  C   UNL     1      52.163   3.250  17.823  0.00  0.00    +0.000 A 
ATOM     26  C   UNL     1      53.496   2.913  18.036  0.00  0.00    +0.000 A 
ATOM     27  C   UNL     1      53.875   1.580  17.964  0.00  0.00    +0.000 A 
ATOM     28  C   UNL     1      52.900   0.639  17.676  0.00  0.00    +0.000 A 
ATOM     29  N   UNL     1      51.598   0.935  17.476  0.00  0.00    +0.000 NA
ENDBRANCH  23  24
ENDBRANCH  21  23
ENDBRANCH  16  17
ENDBRANCH   3  16
TORSDOF 5
ENDMDL
MODEL 8
REMARK VINA RESULT:    -7.242      3.095      4.821
REMARK INTER + INTRA:         -10.475
REMARK INTER:                  -9.546
REMARK INTRA:                  -0.928
REMARK UNBOUND:                -1.116
REMARK  Name = 
REMARK  5 active torsions:
REMARK  status: ('A' for Active; 'I' for Inactive)
REMARK    1  A    between atoms: C_2  and  C_18
REMARK    2  A    between atoms: N_3  and  C_4
REMARK    3  A    between atoms: C_4  and  C_5
REMARK    4  A    between atoms: C_9  and  O_10
REMARK    5  A    between atoms: O_10  and  C_11
REMARK                            x       y       z     vdW  Elec       q    Type
REMARK                         _______ _______ _______ _____ _____    ______ ____
ROOT
ATOM      1  O   UNL     1      47.634   6.602  10.991  0.00  0.00    +0.000 OA
ATOM      2  C   UNL     1      47.430   7.269  12.000  0.00  0.00    +0.000 C 
ATOM      3  N   UNL     1      46.850   6.744  13.120  0.00  0.00    +0.000 N 
ATOM      4  H   UNL     1      46.716   7.311  13.948  0.00  0.00    +0.000 HD
ENDROOT
BRANCH   2   5
ATOM      5  C   UNL     1      47.758   8.696  12.059  0.00  0.00    +0.000 A 
ATOM      6  C   UNL     1      49.080   9.104  12.171  0.00  0.00    +0.000 A 
ATOM      7  S   UNL     1      49.267  10.800  12.198  0.00  0.00    +0.000 S 
ATOM      8  C   UNL     1      47.587  11.046  12.092  0.00  0.00    +0.000 A 
ATOM      9  N   UNL     1      47.062  12.301  12.074  0.00  0.00    +0.000 NA
ATOM     10  C   UNL     1      45.771  12.336  12.016  0.00  0.00    +0.000 A 
ATOM     11  N   UNL     1      44.959  11.235  11.983  0.00  0.00    +0.000 N 
ATOM     12  C   UNL     1      45.443   9.947  11.986  0.00  0.00    +0.000 A 
ATOM     13  O   UNL     1      44.684   8.987  11.923  0.00  0.00    +0.000 OA
ATOM     14  C   UNL     1      46.890   9.850  12.040  0.00  0.00    +0.000 A 
ATOM     15  H   UNL     1      43.954  11.329  11.931  0.00  0.00    +0.000 HD
ENDBRANCH   2   5
BRANCH   3  16
ATOM     16  C   UNL     1      46.520   5.347  13.247  0.00  0.00    +0.000 C 
BRANCH  16  17
ATOM     17  C   UNL     1      45.187   5.013  12.626  0.00  0.00    +0.000 A 
ATOM     18  C   UNL     1      44.044   5.728  12.963  0.00  0.00    +0.000 A 
ATOM     19  C   UNL     1      42.838   5.402  12.350  0.00  0.00    +0.000 A 
ATOM     20  C   UNL     1      42.806   4.376  11.411  0.00  0.00    +0.000 A 
ATOM     21  C   UNL     1      43.991   3.718  11.122  0.00  0.00    +0.000 A 
ATOM     22  N   UNL     1      45.167   3.994  11.731  0.00  0.00    +0.000 NA
BRANCH  21  23
ATOM     23  O   UNL     1      43.941   2.737  10.145  0.00  0.00    +0.000 OA
BRANCH  23  24
ATOM     24  C   UNL     1      44.876   2.792   9.133  0.00  0.00    +0.000 A 
ATOM     25  C   UNL     1      45.621   1.685   8.730  0.00  0.00    +0.000 A 
ATOM     26  C   UNL     1      46.572   1.840   7.726  0.00  0.00    +0.000 A 
ATOM     27  C   UNL     1      46.782   3.100   7.184  0.00  0.00    +0.000 A 
ATOM     28  C   UNL     1      46.032   4.155   7.676  0.00  0.00    +0.000 A 
ATOM     29  N   UNL     1      45.095   4.033   8.641  0.00  0.00    +0.000 NA
ENDBRANCH  23  24
ENDBRANCH  21  23
ENDBRANCH  16  17
ENDBRANCH   3  16
TORSDOF 5
ENDMDL
MODEL 9
REMARK VINA RESULT:    -7.064      1.763      2.687
REMARK INTER + INTRA:         -10.245
REMARK INTER:                  -9.495
REMARK INTRA:                  -0.750
REMARK UNBOUND:                -1.116
REMARK  Name = 
REMARK  5 active torsions:
REMARK  status: ('A' for Active; 'I' for Inactive)
REMARK    1  A    between atoms: C_2  and  C_18
REMARK    2  A    between atoms: N_3  and  C_4
REMARK    3  A    between atoms: C_4  and  C_5
REMARK    4  A    between atoms: C_9  and  O_10
REMARK    5  A    between atoms: O_10  and  C_11
REMARK                            x       y       z     vdW  Elec       q    Type
REMARK                         _______ _______ _______ _____ _____    ______ ____
ROOT
ATOM      1  O   UNL     1      48.054   6.531  12.356  0.00  0.00    +0.000 OA
ATOM      2  C   UNL     1      47.519   6.635  13.456  0.00  0.00    +0.000 C 
ATOM      3  N   UNL     1      46.195   6.939  13.600  0.00  0.00    +0.000 N 
ATOM      4  H   UNL     1      45.774   6.994  14.519  0.00  0.00    +0.000 HD
ENDROOT
BRANCH   2   5
ATOM      5  C   UNL     1      48.279   6.483  14.699  0.00  0.00    +0.000 A 
ATOM      6  C   UNL     1      47.979   5.452  15.577  0.00  0.00    +0.000 A 
ATOM      7  S   UNL     1      48.986   5.418  16.955  0.00  0.00    +0.000 S 
ATOM      8  C   UNL     1      49.837   6.798  16.439  0.00  0.00    +0.000 A 
ATOM      9  N   UNL     1      50.853   7.314  17.182  0.00  0.00    +0.000 NA
ATOM     10  C   UNL     1      51.391   8.376  16.680  0.00  0.00    +0.000 A 
ATOM     11  N   UNL     1      51.003   8.973  15.511  0.00  0.00    +0.000 N 
ATOM     12  C   UNL     1      49.992   8.483  14.720  0.00  0.00    +0.000 A 
ATOM     13  O   UNL     1      49.694   9.028  13.663  0.00  0.00    +0.000 OA
ATOM     14  C   UNL     1      49.358   7.282  15.232  0.00  0.00    +0.000 A 
ATOM     15  H   UNL     1      51.470   9.802  15.168  0.00  0.00    +0.000 HD
ENDBRANCH   2   5
BRANCH   3  16
ATOM     16  C   UNL     1      45.296   7.065  12.481  0.00  0.00    +0.000 C 
BRANCH  16  17
ATOM     17  C   UNL     1      44.710   5.740  12.063  0.00  0.00    +0.000 A 
ATOM     18  C   UNL     1      44.220   4.846  13.009  0.00  0.00    +0.000 A 
ATOM     19  C   UNL     1      43.666   3.645  12.578  0.00  0.00    +0.000 A 
ATOM     20  C   UNL     1      43.609   3.369  11.217  0.00  0.00    +0.000 A 
ATOM     21  C   UNL     1      44.108   4.316  10.337  0.00  0.00    +0.000 A 
ATOM     22  N   UNL     1      44.683   5.474  10.733  0.00  0.00    +0.000 NA
BRANCH  21  23
ATOM     23  O   UNL     1      43.990   4.039   8.984  0.00  0.00    +0.000 OA
BRANCH  23  24
ATOM     24  C   UNL     1      45.033   3.375   8.373  0.00  0.00    +0.000 A 
ATOM     25  C   UNL     1      45.283   2.018   8.566  0.00  0.00    +0.000 A 
ATOM     26  C   UNL     1      46.382   1.437   7.940  0.00  0.00    +0.000 A 
ATOM     27  C   UNL     1      47.222   2.234   7.175  0.00  0.00    +0.000 A 
ATOM     28  C   UNL     1      46.927   3.584   7.075  0.00  0.00    +0.000 A 
ATOM     29  N   UNL     1      45.863   4.173   7.662  0.00  0.00    +0.000 NA
ENDBRANCH  23  24
ENDBRANCH  21  23
ENDBRANCH  16  17
ENDBRANCH   3  16
TORSDOF 5
ENDMDL
