MODEL 1
REMARK VINA RESULT:    -7.799      0.000      0.000
REMARK INTER + INTRA:         -10.251
REMARK INTER:                  -9.623
REMARK INTRA:                  -0.629
REMARK UNBOUND:                -0.629
REMARK  Name = 
REMARK  4 active torsions:
REMARK  status: ('A' for Active; 'I' for Inactive)
REMARK    1  A    between atoms: C_4  and  C_5
REMARK    2  A    between atoms: C_12  and  C_13
REMARK    3  A    between atoms: C_13  and  O_14
REMARK    4  A    between atoms: O_14  and  C_15
REMARK                            x       y       z     vdW  Elec       q    Type
REMARK                         _______ _______ _______ _____ _____    ______ ____
ROOT
ATOM      1  F   UNL     1      47.354   3.357  14.430  0.00  0.00    +0.000 F 
ATOM      2  C   UNL     1      46.888   4.287  13.585  0.00  0.00    +0.000 A 
ATOM      3  C   UNL     1      47.646   5.429  13.347  0.00  0.00    +0.000 A 
ATOM      4  C   UNL     1      47.188   6.370  12.428  0.00  0.00    +0.000 A 
ATOM      5  C   UNL     1      45.908   6.171  11.849  0.00  0.00    +0.000 A 
ATOM      6  C   UNL     1      45.128   5.016  12.065  0.00  0.00    +0.000 A 
ATOM      7  C   UNL     1      45.675   4.066  12.934  0.00  0.00    +0.000 A 
ENDROOT
BRANCH   4   8
ATOM      8  C   UNL     1      48.059   7.493  11.876  0.00  0.00    +0.000 C 
ATOM      9  C   UNL     1      49.520   7.236  12.301  0.00  0.00    +0.000 C 
ATOM     10  C   UNL     1      49.862   7.871  13.646  0.00  0.00    +0.000 C 
ATOM     11  N   UNL     1      49.639   9.315  13.595  0.00  0.00    +0.000 NA
ATOM     12  C   UNL     1      48.219   9.598  13.403  0.00  0.00    +0.000 C 
ATOM     13  C   UNL     1      47.635   8.952  12.143  0.00  0.00    +0.000 C 
ATOM     14  H   UNL     1      50.175   9.709  12.821  0.00  0.00    +0.000 HD
ENDBRANCH   4   8
BRANCH   6  15
ATOM     15  C   UNL     1      43.770   4.798  11.382  0.00  0.00    +0.000 C 
ATOM     16  C   UNL     1      42.873   5.964  11.022  0.00  0.00    +0.000 C 
ATOM     17  C   UNL     1      42.525   5.141  12.212  0.00  0.00    +0.000 C 
BRANCH  15  18
ATOM     18  O   UNL     1      43.581   3.571  10.627  0.00  0.00    +0.000 OA
BRANCH  18  19
ATOM     19  C   UNL     1      44.451   3.336   9.574  0.00  0.00    +0.000 A 
ATOM     20  C   UNL     1      44.863   2.022   9.395  0.00  0.00    +0.000 A 
ATOM     21  C   UNL     1      45.840   1.751   8.436  0.00  0.00    +0.000 A 
ATOM     22  C   UNL     1      46.365   2.800   7.692  0.00  0.00    +0.000 A 
ATOM     23 CL   UNL     1      47.632   2.535   6.567  0.00  0.00    +0.000 Cl
ATOM     24  C   UNL     1      45.855   4.071   7.900  0.00  0.00    +0.000 A 
ATOM     25  N   UNL     1      44.899   4.360   8.816  0.00  0.00    +0.000 NA
ENDBRANCH  18  19
ENDBRANCH  15  18
ENDBRANCH   6  15
TORSDOF 4
ENDMDL
MODEL 2
REMARK VINA RESULT:    -6.759      2.621      3.462
REMARK INTER + INTRA:          -8.968
REMARK INTER:                  -9.353
REMARK INTRA:                   0.385
REMARK UNBOUND:                -0.629
REMARK  Name = 
REMARK  4 active torsions:
REMARK  status: ('A' for Active; 'I' for Inactive)
REMARK    1  A    between atoms: C_4  and  C_5
REMARK    2  A    between atoms: C_12  and  C_13
REMARK    3  A    between atoms: C_13  and  O_14
REMARK    4  A    between atoms: O_14  and  C_15
REMARK                            x       y       z     vdW  Elec       q    Type
REMARK                         _______ _______ _______ _____ _____    ______ ____
ROOT
ATOM      1  F   UNL     1      48.714   7.184  11.643  0.00  0.00    +0.000 F 
ATOM      2  C   UNL     1      47.381   7.292  11.727  0.00  0.00    +0.000 A 
ATOM      3  C   UNL     1      46.816   8.536  11.985  0.00  0.00    +0.000 A 
ATOM      4  C   UNL     1      45.429   8.660  12.019  0.00  0.00    +0.000 A 
ATOM      5  C   UNL     1      44.649   7.481  11.891  0.00  0.00    +0.000 A 
ATOM      6  C   UNL     1      45.199   6.211  11.615  0.00  0.00    +0.000 A 
ATOM      7  C   UNL     1      46.593   6.162  11.510  0.00  0.00    +0.000 A 
ENDROOT
BRANCH   4   8
ATOM      8  C   UNL     1      44.707  10.003  11.999  0.00  0.00    +0.000 C 
ATOM      9  C   UNL     1      43.518   9.908  11.020  0.00  0.00    +0.000 C 
ATOM     10  C   UNL     1      43.900  10.291   9.594  0.00  0.00    +0.000 C 
ATOM     11  N   UNL     1      44.423  11.656   9.559  0.00  0.00    +0.000 NA
ATOM     12  C   UNL     1      45.675  11.733  10.309  0.00  0.00    +0.000 C 
ATOM     13  C   UNL     1      45.539  11.281  11.766  0.00  0.00    +0.000 C 
ATOM     14  H   UNL     1      43.738  12.289   9.971  0.00  0.00    +0.000 HD
ENDBRANCH   4   8
BRANCH   6  15
ATOM     15  C   UNL     1      44.330   4.960  11.425  0.00  0.00    +0.000 C 
ATOM     16  C   UNL     1      43.549   4.361  12.576  0.00  0.00    +0.000 C 
ATOM     17  C   UNL     1      44.802   3.686  12.138  0.00  0.00    +0.000 C 
BRANCH  15  18
ATOM     18  O   UNL     1      43.847   4.669  10.086  0.00  0.00    +0.000 OA
BRANCH  18  19
ATOM     19  C   UNL     1      44.691   3.957   9.248  0.00  0.00    +0.000 A 
ATOM     20  C   UNL     1      44.643   2.573   9.352  0.00  0.00    +0.000 A 
ATOM     21  C   UNL     1      45.565   1.815   8.629  0.00  0.00    +0.000 A 
ATOM     22  C   UNL     1      46.496   2.466   7.830  0.00  0.00    +0.000 A 
ATOM     23 CL   UNL     1      47.709   1.587   6.995  0.00  0.00    +0.000 Cl
ATOM     24  C   UNL     1      46.435   3.847   7.744  0.00  0.00    +0.000 A 
ATOM     25  N   UNL     1      45.543   4.607   8.425  0.00  0.00    +0.000 NA
ENDBRANCH  18  19
ENDBRANCH  15  18
ENDBRANCH   6  15
TORSDOF 4
ENDMDL
MODEL 3
REMARK VINA RESULT:    -6.646      2.624      3.663
REMARK INTER + INTRA:          -8.828
REMARK INTER:                  -8.806
REMARK INTRA:                  -0.022
REMARK UNBOUND:                -0.629
REMARK  Name = 
REMARK  4 active torsions:
REMARK  status: ('A' for Active; 'I' for Inactive)
REMARK    1  A    between atoms: C_4  and  C_5
REMARK    2  A    between atoms: C_12  and  C_13
REMARK    3  A    between atoms: C_13  and  O_14
REMARK    4  A    between atoms: O_14  and  C_15
REMARK                            x       y       z     vdW  Elec       q    Type
REMARK                         _______ _______ _______ _____ _____    ______ ____
ROOT
ATOM      1  F   UNL     1      48.531   7.408  13.181  0.00  0.00    +0.000 F 
ATOM      2  C   UNL     1      47.716   6.407  13.543  0.00  0.00    +0.000 A 
ATOM      3  C   UNL     1      48.022   5.659  14.674  0.00  0.00    +0.000 A 
ATOM      4  C   UNL     1      47.149   4.654  15.082  0.00  0.00    +0.000 A 
ATOM      5  C   UNL     1      46.029   4.367  14.260  0.00  0.00    +0.000 A 
ATOM      6  C   UNL     1      45.691   5.120  13.116  0.00  0.00    +0.000 A 
ATOM      7  C   UNL     1      46.560   6.170  12.800  0.00  0.00    +0.000 A 
ENDROOT
BRANCH   4   8
ATOM      8  C   UNL     1      47.228   3.980  16.448  0.00  0.00    +0.000 C 
ATOM      9  C   UNL     1      47.554   5.053  17.508  0.00  0.00    +0.000 C 
ATOM     10  C   UNL     1      49.054   5.243  17.711  0.00  0.00    +0.000 C 
ATOM     11  N   UNL     1      49.672   3.983  18.119  0.00  0.00    +0.000 NA
ATOM     12  C   UNL     1      49.566   3.000  17.044  0.00  0.00    +0.000 C 
ATOM     13  C   UNL     1      48.125   2.734  16.603  0.00  0.00    +0.000 C 
ATOM     14  H   UNL     1      49.200   3.632  18.952  0.00  0.00    +0.000 HD
ENDBRANCH   4   8
BRANCH   6  15
ATOM     15  C   UNL     1      44.442   4.824  12.273  0.00  0.00    +0.000 C 
ATOM     16  C   UNL     1      43.568   5.941  11.742  0.00  0.00    +0.000 C 
ATOM     17  C   UNL     1      43.089   5.159  12.915  0.00  0.00    +0.000 C 
BRANCH  15  18
ATOM     18  O   UNL     1      44.391   3.559  11.559  0.00  0.00    +0.000 OA
BRANCH  18  19
ATOM     19  C   UNL     1      44.826   3.557  10.242  0.00  0.00    +0.000 A 
ATOM     20  C   UNL     1      44.764   2.342   9.574  0.00  0.00    +0.000 A 
ATOM     21  C   UNL     1      45.312   2.254   8.293  0.00  0.00    +0.000 A 
ATOM     22  C   UNL     1      45.896   3.381   7.730  0.00  0.00    +0.000 A 
ATOM     23 CL   UNL     1      46.665   3.302   6.199  0.00  0.00    +0.000 Cl
ATOM     24  C   UNL     1      45.864   4.564   8.448  0.00  0.00    +0.000 A 
ATOM     25  N   UNL     1      45.328   4.681   9.688  0.00  0.00    +0.000 NA
ENDBRANCH  18  19
ENDBRANCH  15  18
ENDBRANCH   6  15
TORSDOF 4
ENDMDL
MODEL 4
REMARK VINA RESULT:    -6.611      4.326      7.754
REMARK INTER + INTRA:          -8.786
REMARK INTER:                  -8.182
REMARK INTRA:                  -0.604
REMARK UNBOUND:                -0.629
REMARK  Name = 
REMARK  4 active torsions:
REMARK  status: ('A' for Active; 'I' for Inactive)
REMARK    1  A    between atoms: C_4  and  C_5
REMARK    2  A    between atoms: C_12  and  C_13
REMARK    3  A    between atoms: C_13  and  O_14
REMARK    4  A    between atoms: O_14  and  C_15
REMARK                            x       y       z     vdW  Elec       q    Type
REMARK                         _______ _______ _______ _____ _____    ______ ____
ROOT
ATOM      1  F   UNL     1      44.760   9.447  12.875  0.00  0.00    +0.000 F 
ATOM      2  C   UNL     1      45.576   8.384  12.892  0.00  0.00    +0.000 A 
ATOM      3  C   UNL     1      45.099   7.156  12.447  0.00  0.00    +0.000 A 
ATOM      4  C   UNL     1      45.961   6.062  12.413  0.00  0.00    +0.000 A 
ATOM      5  C   UNL     1      47.269   6.227  12.936  0.00  0.00    +0.000 A 
ATOM      6  C   UNL     1      47.779   7.464  13.381  0.00  0.00    +0.000 A 
ATOM      7  C   UNL     1      46.895   8.546  13.314  0.00  0.00    +0.000 A 
ENDROOT
BRANCH   4   8
ATOM      8  C   UNL     1      45.638   4.765  11.680  0.00  0.00    +0.000 C 
ATOM      9  C   UNL     1      44.693   5.087  10.503  0.00  0.00    +0.000 C 
ATOM     10  C   UNL     1      43.221   5.023  10.897  0.00  0.00    +0.000 C 
ATOM     11  N   UNL     1      42.891   3.695  11.409  0.00  0.00    +0.000 NA
ATOM     12  C   UNL     1      43.617   3.439  12.650  0.00  0.00    +0.000 C 
ATOM     13  C   UNL     1      45.136   3.560  12.503  0.00  0.00    +0.000 C 
ATOM     14  H   UNL     1      43.146   2.994  10.712  0.00  0.00    +0.000 HD
ENDBRANCH   4   8
BRANCH   6  15
ATOM     15  C   UNL     1      49.218   7.628  13.891  0.00  0.00    +0.000 C 
ATOM     16  C   UNL     1      49.897   8.982  13.913  0.00  0.00    +0.000 C 
ATOM     17  C   UNL     1      50.274   8.016  12.846  0.00  0.00    +0.000 C 
BRANCH  15  18
ATOM     18  O   UNL     1      49.728   6.627  14.812  0.00  0.00    +0.000 OA
BRANCH  18  19
ATOM     19  C   UNL     1      49.043   6.458  16.006  0.00  0.00    +0.000 A 
ATOM     20  C   UNL     1      49.019   7.549  16.864  0.00  0.00    +0.000 A 
ATOM     21  C   UNL     1      48.459   7.390  18.133  0.00  0.00    +0.000 A 
ATOM     22  C   UNL     1      47.944   6.152  18.493  0.00  0.00    +0.000 A 
ATOM     23 CL   UNL     1      47.329   5.879  20.071  0.00  0.00    +0.000 Cl
ATOM     24  C   UNL     1      47.961   5.136  17.553  0.00  0.00    +0.000 A 
ATOM     25  N   UNL     1      48.488   5.266  16.311  0.00  0.00    +0.000 NA
ENDBRANCH  18  19
ENDBRANCH  15  18
ENDBRANCH   6  15
TORSDOF 4
ENDMDL
MODEL 5
REMARK VINA RESULT:    -6.367      3.255      6.813
REMARK INTER + INTRA:          -8.484
REMARK INTER:                  -7.711
REMARK INTRA:                  -0.774
REMARK UNBOUND:                -0.629
REMARK  Name = 
REMARK  4 active torsions:
REMARK  status: ('A' for Active; 'I' for Inactive)
REMARK    1  A    between atoms: C_4  and  C_5
REMARK    2  A    between atoms: C_12  and  C_13
REMARK    3  A    between atoms: C_13  and  O_14
REMARK    4  A    between atoms: O_14  and  C_15
REMARK                            x       y       z     vdW  Elec       q    Type
REMARK                         _______ _______ _______ _____ _____    ______ ____
ROOT
ATOM      1  F   UNL     1      43.457   3.236  13.305  0.00  0.00    +0.000 F 
ATOM      2  C   UNL     1      44.140   3.894  12.357  0.00  0.00    +0.000 A 
ATOM      3  C   UNL     1      44.241   3.340  11.086  0.00  0.00    +0.000 A 
ATOM      4  C   UNL     1      44.904   4.047  10.086  0.00  0.00    +0.000 A 
ATOM      5  C   UNL     1      45.541   5.265  10.439  0.00  0.00    +0.000 A 
ATOM      6  C   UNL     1      45.442   5.852  11.718  0.00  0.00    +0.000 A 
ATOM      7  C   UNL     1      44.694   5.137  12.659  0.00  0.00    +0.000 A 
ENDROOT
BRANCH   4   8
ATOM      8  C   UNL     1      44.822   3.682   8.607  0.00  0.00    +0.000 C 
ATOM      9  C   UNL     1      44.608   2.158   8.488  0.00  0.00    +0.000 C 
ATOM     10  C   UNL     1      45.920   1.383   8.426  0.00  0.00    +0.000 C 
ATOM     11  N   UNL     1      46.718   1.831   7.286  0.00  0.00    +0.000 NA
ATOM     12  C   UNL     1      47.121   3.223   7.471  0.00  0.00    +0.000 C 
ATOM     13  C   UNL     1      45.939   4.177   7.665  0.00  0.00    +0.000 C 
ATOM     14  H   UNL     1      46.165   1.744   6.434  0.00  0.00    +0.000 HD
ENDBRANCH   4   8
BRANCH   6  15
ATOM     15  C   UNL     1      46.095   7.199  12.060  0.00  0.00    +0.000 C 
ATOM     16  C   UNL     1      45.361   8.248  12.869  0.00  0.00    +0.000 C 
ATOM     17  C   UNL     1      45.485   8.442  11.398  0.00  0.00    +0.000 C 
BRANCH  15  18
ATOM     18  O   UNL     1      47.547   7.264  12.071  0.00  0.00    +0.000 OA
BRANCH  18  19
ATOM     19  C   UNL     1      48.172   7.240  13.308  0.00  0.00    +0.000 A 
ATOM     20  C   UNL     1      49.006   8.311  13.599  0.00  0.00    +0.000 A 
ATOM     21  C   UNL     1      49.762   8.271  14.772  0.00  0.00    +0.000 A 
ATOM     22  C   UNL     1      49.654   7.167  15.608  0.00  0.00    +0.000 A 
ATOM     23 CL   UNL     1      50.629   7.027  17.012  0.00  0.00    +0.000 Cl
ATOM     24  C   UNL     1      48.755   6.171  15.265  0.00  0.00    +0.000 A 
ATOM     25  N   UNL     1      48.001   6.190  14.139  0.00  0.00    +0.000 NA
ENDBRANCH  18  19
ENDBRANCH  15  18
ENDBRANCH   6  15
TORSDOF 4
ENDMDL
MODEL 6
REMARK VINA RESULT:    -6.284      3.342      6.866
REMARK INTER + INTRA:          -8.382
REMARK INTER:                  -8.034
REMARK INTRA:                  -0.348
REMARK UNBOUND:                -0.629
REMARK  Name = 
REMARK  4 active torsions:
REMARK  status: ('A' for Active; 'I' for Inactive)
REMARK    1  A    between atoms: C_4  and  C_5
REMARK    2  A    between atoms: C_12  and  C_13
REMARK    3  A    between atoms: C_13  and  O_14
REMARK    4  A    between atoms: O_14  and  C_15
REMARK                            x       y       z     vdW  Elec       q    Type
REMARK                         _______ _______ _______ _____ _____    ______ ____
ROOT
ATOM      1  F   UNL     1      47.158   4.304  15.421  0.00  0.00    +0.000 F 
ATOM      2  C   UNL     1      46.988   4.957  14.263  0.00  0.00    +0.000 A 
ATOM      3  C   UNL     1      46.044   4.492  13.353  0.00  0.00    +0.000 A 
ATOM      4  C   UNL     1      45.829   5.201  12.174  0.00  0.00    +0.000 A 
ATOM      5  C   UNL     1      46.663   6.316  11.902  0.00  0.00    +0.000 A 
ATOM      6  C   UNL     1      47.618   6.813  12.814  0.00  0.00    +0.000 A 
ATOM      7  C   UNL     1      47.732   6.111  14.018  0.00  0.00    +0.000 A 
ENDROOT
BRANCH   4   8
ATOM      8  C   UNL     1      44.634   4.957  11.257  0.00  0.00    +0.000 C 
ATOM      9  C   UNL     1      43.507   4.303  12.083  0.00  0.00    +0.000 C 
ATOM     10  C   UNL     1      43.590   2.779  12.086  0.00  0.00    +0.000 C 
ATOM     11  N   UNL     1      43.524   2.266  10.720  0.00  0.00    +0.000 NA
ATOM     12  C   UNL     1      44.697   2.698   9.964  0.00  0.00    +0.000 C 
ATOM     13  C   UNL     1      44.869   4.219   9.924  0.00  0.00    +0.000 C 
ATOM     14  H   UNL     1      42.678   2.617  10.270  0.00  0.00    +0.000 HD
ENDBRANCH   4   8
BRANCH   6  15
ATOM     15  C   UNL     1      48.470   8.056  12.520  0.00  0.00    +0.000 C 
ATOM     16  C   UNL     1      49.445   8.087  11.361  0.00  0.00    +0.000 C 
ATOM     17  C   UNL     1      49.982   7.915  12.738  0.00  0.00    +0.000 C 
BRANCH  15  18
ATOM     18  O   UNL     1      47.983   9.339  12.998  0.00  0.00    +0.000 OA
BRANCH  18  19
ATOM     19  C   UNL     1      47.058  10.001  12.205  0.00  0.00    +0.000 A 
ATOM     20  C   UNL     1      47.557  10.997  11.375  0.00  0.00    +0.000 A 
ATOM     21  C   UNL     1      46.655  11.783  10.656  0.00  0.00    +0.000 A 
ATOM     22  C   UNL     1      45.293  11.543  10.792  0.00  0.00    +0.000 A 
ATOM     23 CL   UNL     1      44.141  12.539  10.004  0.00  0.00    +0.000 Cl
ATOM     24  C   UNL     1      44.890  10.494  11.600  0.00  0.00    +0.000 A 
ATOM     25  N   UNL     1      45.744   9.708  12.299  0.00  0.00    +0.000 NA
ENDBRANCH  18  19
ENDBRANCH  15  18
ENDBRANCH   6  15
TORSDOF 4
ENDMDL
MODEL 7
REMARK VINA RESULT:    -5.952      3.844      5.732
REMARK INTER + INTRA:          -7.972
REMARK INTER:                  -7.118
REMARK INTRA:                  -0.855
REMARK UNBOUND:                -0.629
REMARK  Name = 
REMARK  4 active torsions:
REMARK  status: ('A' for Active; 'I' for Inactive)
REMARK    1  A    between atoms: C_4  and  C_5
REMARK    2  A    between atoms: C_12  and  C_13
REMARK    3  A    between atoms: C_13  and  O_14
REMARK    4  A    between atoms: O_14  and  C_15
REMARK                            x       y       z     vdW  Elec       q    Type
REMARK                         _______ _______ _______ _____ _____    ______ ____
ROOT
ATOM      1  F   UNL     1      48.163  10.400  16.887  0.00  0.00    +0.000 F 
ATOM      2  C   UNL     1      48.358   9.230  16.262  0.00  0.00    +0.000 A 
ATOM      3  C   UNL     1      48.816   8.139  16.992  0.00  0.00    +0.000 A 
ATOM      4  C   UNL     1      48.967   6.909  16.356  0.00  0.00    +0.000 A 
ATOM      5  C   UNL     1      48.746   6.850  14.956  0.00  0.00    +0.000 A 
ATOM      6  C   UNL     1      48.270   7.940  14.197  0.00  0.00    +0.000 A 
ATOM      7  C   UNL     1      48.056   9.127  14.905  0.00  0.00    +0.000 A 
ENDROOT
BRANCH   4   8
ATOM      8  C   UNL     1      49.173   5.598  17.106  0.00  0.00    +0.000 C 
ATOM      9  C   UNL     1      48.459   4.470  16.331  0.00  0.00    +0.000 C 
ATOM     10  C   UNL     1      47.008   4.287  16.765  0.00  0.00    +0.000 C 
ATOM     11  N   UNL     1      46.941   3.983  18.193  0.00  0.00    +0.000 NA
ATOM     12  C   UNL     1      47.417   5.124  18.972  0.00  0.00    +0.000 C 
ATOM     13  C   UNL     1      48.843   5.553  18.613  0.00  0.00    +0.000 C 
ATOM     14  H   UNL     1      47.522   3.168  18.391  0.00  0.00    +0.000 HD
ENDBRANCH   4   8
BRANCH   6  15
ATOM     15  C   UNL     1      47.984   7.835  12.691  0.00  0.00    +0.000 C 
ATOM     16  C   UNL     1      49.003   7.249  11.735  0.00  0.00    +0.000 C 
ATOM     17  C   UNL     1      48.829   8.727  11.772  0.00  0.00    +0.000 C 
BRANCH  15  18
ATOM     18  O   UNL     1      46.595   7.801  12.266  0.00  0.00    +0.000 OA
BRANCH  18  19
ATOM     19  C   UNL     1      45.980   6.560  12.209  0.00  0.00    +0.000 A 
ATOM     20  C   UNL     1      45.598   6.118  10.949  0.00  0.00    +0.000 A 
ATOM     21  C   UNL     1      44.857   4.939  10.850  0.00  0.00    +0.000 A 
ATOM     22  C   UNL     1      44.530   4.248  12.009  0.00  0.00    +0.000 A 
ATOM     23 CL   UNL     1      43.543   2.846  11.950  0.00  0.00    +0.000 Cl
ATOM     24  C   UNL     1      45.000   4.735  13.217  0.00  0.00    +0.000 A 
ATOM     25  N   UNL     1      45.730   5.869  13.342  0.00  0.00    +0.000 NA
ENDBRANCH  18  19
ENDBRANCH  15  18
ENDBRANCH   6  15
TORSDOF 4
ENDMDL
MODEL 8
REMARK VINA RESULT:    -5.846      3.074      6.656
REMARK INTER + INTRA:          -7.841
REMARK INTER:                  -7.215
REMARK INTRA:                  -0.626
REMARK UNBOUND:                -0.629
REMARK  Name = 
REMARK  4 active torsions:
REMARK  status: ('A' for Active; 'I' for Inactive)
REMARK    1  A    between atoms: C_4  and  C_5
REMARK    2  A    between atoms: C_12  and  C_13
REMARK    3  A    between atoms: C_13  and  O_14
REMARK    4  A    between atoms: O_14  and  C_15
REMARK                            x       y       z     vdW  Elec       q    Type
REMARK                         _______ _______ _______ _____ _____    ______ ____
ROOT
ATOM      1  F   UNL     1      47.120   3.836  15.360  0.00  0.00    +0.000 F 
ATOM      2  C   UNL     1      47.059   4.714  14.349  0.00  0.00    +0.000 A 
ATOM      3  C   UNL     1      46.273   4.418  13.240  0.00  0.00    +0.000 A 
ATOM      4  C   UNL     1      46.165   5.353  12.213  0.00  0.00    +0.000 A 
ATOM      5  C   UNL     1      46.952   6.531  12.297  0.00  0.00    +0.000 A 
ATOM      6  C   UNL     1      47.745   6.858  13.416  0.00  0.00    +0.000 A 
ATOM      7  C   UNL     1      47.750   5.920  14.454  0.00  0.00    +0.000 A 
ENDROOT
BRANCH   4   8
ATOM      8  C   UNL     1      45.118   5.265  11.108  0.00  0.00    +0.000 C 
ATOM      9  C   UNL     1      43.873   6.066  11.546  0.00  0.00    +0.000 C 
ATOM     10  C   UNL     1      42.871   5.217  12.321  0.00  0.00    +0.000 C 
ATOM     11  N   UNL     1      42.433   4.084  11.508  0.00  0.00    +0.000 NA
ATOM     12  C   UNL     1      43.556   3.186  11.251  0.00  0.00    +0.000 C 
ATOM     13  C   UNL     1      44.739   3.873  10.563  0.00  0.00    +0.000 C 
ATOM     14  H   UNL     1      42.061   4.429  10.624  0.00  0.00    +0.000 HD
ENDBRANCH   4   8
BRANCH   6  15
ATOM     15  C   UNL     1      48.544   8.167  13.506  0.00  0.00    +0.000 C 
ATOM     16  C   UNL     1      49.532   8.410  14.628  0.00  0.00    +0.000 C 
ATOM     17  C   UNL     1      48.209   9.091  14.684  0.00  0.00    +0.000 C 
BRANCH  15  18
ATOM     18  O   UNL     1      48.748   8.921  12.281  0.00  0.00    +0.000 OA
BRANCH  18  19
ATOM     19  C   UNL     1      49.975   8.787  11.651  0.00  0.00    +0.000 A 
ATOM     20  C   UNL     1      50.661   9.963  11.377  0.00  0.00    +0.000 A 
ATOM     21  C   UNL     1      51.835   9.893  10.626  0.00  0.00    +0.000 A 
ATOM     22  C   UNL     1      52.280   8.655  10.182  0.00  0.00    +0.000 A 
ATOM     23 CL   UNL     1      53.665   8.524   9.179  0.00  0.00    +0.000 Cl
ATOM     24  C   UNL     1      51.562   7.530  10.550  0.00  0.00    +0.000 A 
ATOM     25  N   UNL     1      50.425   7.567  11.287  0.00  0.00    +0.000 NA
ENDBRANCH  18  19
ENDBRANCH  15  18
ENDBRANCH   6  15
TORSDOF 4
ENDMDL
MODEL 9
REMARK VINA RESULT:    -5.776      5.426      8.487
REMARK INTER + INTRA:          -7.755
REMARK INTER:                  -7.082
REMARK INTRA:                  -0.673
REMARK UNBOUND:                -0.629
REMARK  Name = 
REMARK  4 active torsions:
REMARK  status: ('A' for Active; 'I' for Inactive)
REMARK    1  A    between atoms: C_4  and  C_5
REMARK    2  A    between atoms: C_12  and  C_13
REMARK    3  A    between atoms: C_13  and  O_14
REMARK    4  A    between atoms: O_14  and  C_15
REMARK                            x       y       z     vdW  Elec       q    Type
REMARK                         _______ _______ _______ _____ _____    ______ ____
ROOT
ATOM      1  F   UNL     1      49.121   7.807  13.574  0.00  0.00    +0.000 F 
ATOM      2  C   UNL     1      48.300   6.808  13.928  0.00  0.00    +0.000 A 
ATOM      3  C   UNL     1      47.259   6.451  13.078  0.00  0.00    +0.000 A 
ATOM      4  C   UNL     1      46.438   5.379  13.420  0.00  0.00    +0.000 A 
ATOM      5  C   UNL     1      46.638   4.760  14.680  0.00  0.00    +0.000 A 
ATOM      6  C   UNL     1      47.694   5.096  15.554  0.00  0.00    +0.000 A 
ATOM      7  C   UNL     1      48.537   6.125  15.121  0.00  0.00    +0.000 A 
ENDROOT
BRANCH   4   8
ATOM      8  C   UNL     1      45.470   4.721  12.442  0.00  0.00    +0.000 C 
ATOM      9  C   UNL     1      45.233   5.687  11.261  0.00  0.00    +0.000 C 
ATOM     10  C   UNL     1      44.064   6.637  11.505  0.00  0.00    +0.000 C 
ATOM     11  N   UNL     1      42.837   5.879  11.740  0.00  0.00    +0.000 NA
ATOM     12  C   UNL     1      42.951   5.110  12.977  0.00  0.00    +0.000 C 
ATOM     13  C   UNL     1      44.146   4.152  12.989  0.00  0.00    +0.000 C 
ATOM     14  H   UNL     1      42.678   5.246  10.957  0.00  0.00    +0.000 HD
ENDBRANCH   4   8
BRANCH   6  15
ATOM     15  C   UNL     1      47.922   4.373  16.889  0.00  0.00    +0.000 C 
ATOM     16  C   UNL     1      49.246   3.712  17.210  0.00  0.00    +0.000 C 
ATOM     17  C   UNL     1      48.097   2.850  16.820  0.00  0.00    +0.000 C 
BRANCH  15  18
ATOM     18  O   UNL     1      47.094   4.760  18.019  0.00  0.00    +0.000 OA
BRANCH  18  19
ATOM     19  C   UNL     1      47.659   5.613  18.955  0.00  0.00    +0.000 A 
ATOM     20  C   UNL     1      47.722   6.956  18.609  0.00  0.00    +0.000 A 
ATOM     21  C   UNL     1      48.399   7.834  19.456  0.00  0.00    +0.000 A 
ATOM     22  C   UNL     1      48.984   7.339  20.614  0.00  0.00    +0.000 A 
ATOM     23 CL   UNL     1      49.906   8.358  21.640  0.00  0.00    +0.000 Cl
ATOM     24  C   UNL     1      48.823   5.995  20.907  0.00  0.00    +0.000 A 
ATOM     25  N   UNL     1      48.161   5.123  20.109  0.00  0.00    +0.000 NA
ENDBRANCH  18  19
ENDBRANCH  15  18
ENDBRANCH   6  15
TORSDOF 4
ENDMDL
