MODEL 1
REMARK VINA RESULT:    -6.575      0.000      0.000
REMARK INTER + INTRA:         -11.360
REMARK INTER:                  -9.650
REMARK INTRA:                  -1.710
REMARK UNBOUND:                -1.710
REMARK  Name = 
REMARK  9 active torsions:
REMARK  status: ('A' for Active; 'I' for Inactive)
REMARK    1  A    between atoms: C_1  and  C_2
REMARK    2  A    between atoms: C_2  and  C_3
REMARK    3  A    between atoms: C_3  and  C_4
REMARK    4  A    between atoms: C_4  and  O_5
REMARK    5  A    between atoms: O_5  and  C_6
REMARK    6  A    between atoms: C_8  and  C_9
REMARK    7  A    between atoms: C_9  and  N_10
REMARK    8  A    between atoms: C_15  and  C_16
REMARK    9  A    between atoms: C_23  and  C_24
REMARK                            x       y       z     vdW  Elec       q    Type
REMARK                         _______ _______ _______ _____ _____    ______ ____
ROOT
ATOM      1  C   UNL     1      47.750   6.167  14.424  0.00  0.00    +0.000 A 
ATOM      2  C   UNL     1      46.669   6.136  13.534  0.00  0.00    +0.000 A 
ATOM      3  C   UNL     1      46.173   7.287  12.934  0.00  0.00    +0.000 A 
ATOM      4  C   UNL     1      46.801   8.505  13.222  0.00  0.00    +0.000 A 
ATOM      5  C   UNL     1      47.898   8.536  14.079  0.00  0.00    +0.000 A 
ATOM      6  F   UNL     1      48.453   9.743  14.297  0.00  0.00    +0.000 F 
ATOM      7  C   UNL     1      48.411   7.390  14.707  0.00  0.00    +0.000 A 
ENDROOT
BRANCH   7   8
ATOM      8  C   UNL     1      49.552   7.492  15.640  0.00  0.00    +0.000 A 
ATOM      9  C   UNL     1      49.351   7.801  17.000  0.00  0.00    +0.000 A 
ATOM     10  C   UNL     1      50.420   7.917  17.884  0.00  0.00    +0.000 A 
ATOM     11  C   UNL     1      51.714   7.702  17.430  0.00  0.00    +0.000 A 
ATOM     12  C   UNL     1      51.938   7.389  16.091  0.00  0.00    +0.000 A 
ATOM     13 CL   UNL     1      53.544   7.129  15.528  0.00  0.00    +0.000 Cl
ATOM     14  C   UNL     1      50.876   7.300  15.204  0.00  0.00    +0.000 A 
ENDBRANCH   7   8
BRANCH   1  15
ATOM     15  O   UNL     1      48.174   5.041  15.084  0.00  0.00    +0.000 OA
BRANCH  15  16
ATOM     16  C   UNL     1      47.171   4.241  15.700  0.00  0.00    +0.000 C 
BRANCH  16  17
ATOM     17  C   UNL     1      47.514   4.072  17.172  0.00  0.00    +0.000 C 
BRANCH  17  19
ATOM     18  C   UNL     1      49.636   2.727  17.347  0.00  0.00    +0.000 C 
ATOM     19  C   UNL     1      49.019   4.115  17.399  0.00  0.00    +0.000 C 
ENDBRANCH  17  19
ENDBRANCH  16  17
ENDBRANCH  15  16
ENDBRANCH   1  15
BRANCH   3  20
ATOM     20  C   UNL     1      44.975   7.204  12.012  0.00  0.00    +0.000 C 
BRANCH  20  21
ATOM     21  N   UNL     1      44.047   6.141  12.449  0.00  0.00    +0.000 N 
ATOM     22  C   UNL     1      44.079   4.999  11.623  0.00  0.00    +0.000 A 
ATOM     23  C   UNL     1      43.255   3.885  11.895  0.00  0.00    +0.000 A 
ATOM     24  N   UNL     1      43.220   2.793  11.102  0.00  0.00    +0.000 NA
ATOM     25  C   UNL     1      44.051   2.816  10.025  0.00  0.00    +0.000 A 
ATOM     26  C   UNL     1      44.879   3.915   9.748  0.00  0.00    +0.000 A 
ATOM     27  N   UNL     1      44.898   5.000  10.548  0.00  0.00    +0.000 NA
ATOM     28  H   UNL     1      43.093   6.468  12.437  0.00  0.00    +0.000 HD
BRANCH  26  29
ATOM     29  C   UNL     1      45.776   3.931   8.557  0.00  0.00    +0.000 C 
ATOM     30  N   UNL     1      46.087   2.734   7.949  0.00  0.00    +0.000 N 
ATOM     31  O   UNL     1      46.234   4.972   8.109  0.00  0.00    +0.000 OA
ATOM     32  H   UNL     1      45.728   1.831   8.242  0.00  0.00    +0.000 HD
ATOM     33  H   UNL     1      46.689   2.782   7.144  0.00  0.00    +0.000 HD
ENDBRANCH  26  29
ENDBRANCH  20  21
ENDBRANCH   3  20
TORSDOF 8
ENDMDL
MODEL 2
REMARK VINA RESULT:    -6.503      3.271      4.714
REMARK INTER + INTRA:         -11.254
REMARK INTER:                  -9.535
REMARK INTRA:                  -1.720
REMARK UNBOUND:                -1.710
REMARK  Name = 
REMARK  9 active torsions:
REMARK  status: ('A' for Active; 'I' for Inactive)
REMARK    1  A    between atoms: C_1  and  C_2
REMARK    2  A    between atoms: C_2  and  C_3
REMARK    3  A    between atoms: C_3  and  C_4
REMARK    4  A    between atoms: C_4  and  O_5
REMARK    5  A    between atoms: O_5  and  C_6
REMARK    6  A    between atoms: C_8  and  C_9
REMARK    7  A    between atoms: C_9  and  N_10
REMARK    8  A    between atoms: C_15  and  C_16
REMARK    9  A    between atoms: C_23  and  C_24
REMARK                            x       y       z     vdW  Elec       q    Type
REMARK                         _______ _______ _______ _____ _____    ______ ____
ROOT
ATOM      1  C   UNL     1      48.890   5.800  17.434  0.00  0.00    +0.000 A 
ATOM      2  C   UNL     1      48.216   5.637  16.216  0.00  0.00    +0.000 A 
ATOM      3  C   UNL     1      47.575   4.450  15.881  0.00  0.00    +0.000 A 
ATOM      4  C   UNL     1      47.593   3.404  16.810  0.00  0.00    +0.000 A 
ATOM      5  C   UNL     1      48.232   3.574  18.036  0.00  0.00    +0.000 A 
ATOM      6  F   UNL     1      48.196   2.524  18.880  0.00  0.00    +0.000 F 
ATOM      7  C   UNL     1      48.896   4.756  18.395  0.00  0.00    +0.000 A 
ENDROOT
BRANCH   7   8
ATOM      8  C   UNL     1      49.592   4.863  19.695  0.00  0.00    +0.000 A 
ATOM      9  C   UNL     1      48.874   5.090  20.885  0.00  0.00    +0.000 A 
ATOM     10  C   UNL     1      49.520   5.211  22.112  0.00  0.00    +0.000 A 
ATOM     11  C   UNL     1      50.900   5.080  22.177  0.00  0.00    +0.000 A 
ATOM     12  C   UNL     1      51.632   4.849  21.015  0.00  0.00    +0.000 A 
ATOM     13 CL   UNL     1      53.345   4.694  21.096  0.00  0.00    +0.000 Cl
ATOM     14  C   UNL     1      50.992   4.756  19.789  0.00  0.00    +0.000 A 
ENDBRANCH   7   8
BRANCH   1  15
ATOM     15  O   UNL     1      49.600   6.940  17.720  0.00  0.00    +0.000 OA
BRANCH  15  16
ATOM     16  C   UNL     1      48.931   8.180  17.517  0.00  0.00    +0.000 C 
BRANCH  16  17
ATOM     17  C   UNL     1      47.853   8.333  18.579  0.00  0.00    +0.000 C 
BRANCH  17  19
ATOM     18  C   UNL     1      47.439   8.497  21.058  0.00  0.00    +0.000 C 
ATOM     19  C   UNL     1      48.457   8.651  19.941  0.00  0.00    +0.000 C 
ENDBRANCH  17  19
ENDBRANCH  16  17
ENDBRANCH  15  16
ENDBRANCH   1  15
BRANCH   3  20
ATOM     20  C   UNL     1      46.898   4.311  14.534  0.00  0.00    +0.000 C 
BRANCH  20  21
ATOM     21  N   UNL     1      46.415   5.620  14.050  0.00  0.00    +0.000 N 
ATOM     22  C   UNL     1      45.451   5.514  13.027  0.00  0.00    +0.000 A 
ATOM     23  C   UNL     1      44.880   6.669  12.448  0.00  0.00    +0.000 A 
ATOM     24  N   UNL     1      43.990   6.612  11.433  0.00  0.00    +0.000 NA
ATOM     25  C   UNL     1      43.653   5.363  11.011  0.00  0.00    +0.000 A 
ATOM     26  C   UNL     1      44.209   4.209  11.582  0.00  0.00    +0.000 A 
ATOM     27  N   UNL     1      45.100   4.283  12.592  0.00  0.00    +0.000 NA
ATOM     28  H   UNL     1      47.171   6.165  13.665  0.00  0.00    +0.000 HD
BRANCH  26  29
ATOM     29  C   UNL     1      43.839   2.847  11.101  0.00  0.00    +0.000 C 
ATOM     30  N   UNL     1      44.541   2.307  10.045  0.00  0.00    +0.000 N 
ATOM     31  O   UNL     1      42.939   2.203  11.618  0.00  0.00    +0.000 OA
ATOM     32  H   UNL     1      45.318   2.765   9.577  0.00  0.00    +0.000 HD
ATOM     33  H   UNL     1      44.270   1.385   9.749  0.00  0.00    +0.000 HD
ENDBRANCH  26  29
ENDBRANCH  20  21
ENDBRANCH   3  20
TORSDOF 8
ENDMDL
MODEL 3
REMARK VINA RESULT:    -6.426      1.364      2.069
REMARK INTER + INTRA:         -11.141
REMARK INTER:                  -9.386
REMARK INTRA:                  -1.755
REMARK UNBOUND:                -1.710
REMARK  Name = 
REMARK  9 active torsions:
REMARK  status: ('A' for Active; 'I' for Inactive)
REMARK    1  A    between atoms: C_1  and  C_2
REMARK    2  A    between atoms: C_2  and  C_3
REMARK    3  A    between atoms: C_3  and  C_4
REMARK    4  A    between atoms: C_4  and  O_5
REMARK    5  A    between atoms: O_5  and  C_6
REMARK    6  A    between atoms: C_8  and  C_9
REMARK    7  A    between atoms: C_9  and  N_10
REMARK    8  A    between atoms: C_15  and  C_16
REMARK    9  A    between atoms: C_23  and  C_24
REMARK                            x       y       z     vdW  Elec       q    Type
REMARK                         _______ _______ _______ _____ _____    ______ ____
ROOT
ATOM      1  C   UNL     1      47.720   6.170  14.201  0.00  0.00    +0.000 A 
ATOM      2  C   UNL     1      46.703   6.109  13.239  0.00  0.00    +0.000 A 
ATOM      3  C   UNL     1      46.249   7.241  12.573  0.00  0.00    +0.000 A 
ATOM      4  C   UNL     1      46.853   8.469  12.868  0.00  0.00    +0.000 A 
ATOM      5  C   UNL     1      47.887   8.529  13.798  0.00  0.00    +0.000 A 
ATOM      6  F   UNL     1      48.423   9.744  14.019  0.00  0.00    +0.000 F 
ATOM      7  C   UNL     1      48.357   7.404  14.493  0.00  0.00    +0.000 A 
ENDROOT
BRANCH   7   8
ATOM      8  C   UNL     1      49.430   7.537  15.501  0.00  0.00    +0.000 A 
ATOM      9  C   UNL     1      49.133   7.869  16.837  0.00  0.00    +0.000 A 
ATOM     10  C   UNL     1      50.137   8.015  17.790  0.00  0.00    +0.000 A 
ATOM     11  C   UNL     1      51.461   7.806  17.431  0.00  0.00    +0.000 A 
ATOM     12  C   UNL     1      51.780   7.471  16.117  0.00  0.00    +0.000 A 
ATOM     13 CL   UNL     1      53.424   7.218  15.670  0.00  0.00    +0.000 Cl
ATOM     14  C   UNL     1      50.783   7.352  15.161  0.00  0.00    +0.000 A 
ENDBRANCH   7   8
BRANCH   1  15
ATOM     15  O   UNL     1      48.099   5.065  14.922  0.00  0.00    +0.000 OA
BRANCH  15  16
ATOM     16  C   UNL     1      47.057   4.225  15.405  0.00  0.00    +0.000 C 
BRANCH  16  17
ATOM     17  C   UNL     1      47.531   3.539  16.676  0.00  0.00    +0.000 C 
BRANCH  17  19
ATOM     18  C   UNL     1      49.919   3.194  17.399  0.00  0.00    +0.000 C 
ATOM     19  C   UNL     1      48.791   4.196  17.224  0.00  0.00    +0.000 C 
ENDBRANCH  17  19
ENDBRANCH  16  17
ENDBRANCH  15  16
ENDBRANCH   1  15
BRANCH   3  20
ATOM     20  C   UNL     1      45.118   7.127  11.572  0.00  0.00    +0.000 C 
BRANCH  20  21
ATOM     21  N   UNL     1      45.611   6.615  10.277  0.00  0.00    +0.000 N 
ATOM     22  C   UNL     1      45.243   5.276  10.031  0.00  0.00    +0.000 A 
ATOM     23  C   UNL     1      45.631   4.626   8.839  0.00  0.00    +0.000 A 
ATOM     24  N   UNL     1      45.341   3.332   8.587  0.00  0.00    +0.000 NA
ATOM     25  C   UNL     1      44.626   2.686   9.548  0.00  0.00    +0.000 A 
ATOM     26  C   UNL     1      44.231   3.323  10.734  0.00  0.00    +0.000 A 
ATOM     27  N   UNL     1      44.532   4.616  10.972  0.00  0.00    +0.000 NA
ATOM     28  H   UNL     1      46.619   6.639  10.239  0.00  0.00    +0.000 HD
BRANCH  26  29
ATOM     29  C   UNL     1      43.458   2.600  11.785  0.00  0.00    +0.000 C 
ATOM     30  N   UNL     1      43.545   3.040  13.088  0.00  0.00    +0.000 N 
ATOM     31  O   UNL     1      42.752   1.639  11.519  0.00  0.00    +0.000 OA
ATOM     32  H   UNL     1      44.087   3.844  13.388  0.00  0.00    +0.000 HD
ATOM     33  H   UNL     1      43.006   2.534  13.770  0.00  0.00    +0.000 HD
ENDBRANCH  26  29
ENDBRANCH  20  21
ENDBRANCH   3  20
TORSDOF 8
ENDMDL
MODEL 4
REMARK VINA RESULT:    -6.233      1.888      2.414
REMARK INTER + INTRA:         -10.858
REMARK INTER:                  -9.102
REMARK INTRA:                  -1.755
REMARK UNBOUND:                -1.710
REMARK  Name = 
REMARK  9 active torsions:
REMARK  status: ('A' for Active; 'I' for Inactive)
REMARK    1  A    between atoms: C_1  and  C_2
REMARK    2  A    between atoms: C_2  and  C_3
REMARK    3  A    between atoms: C_3  and  C_4
REMARK    4  A    between atoms: C_4  and  O_5
REMARK    5  A    between atoms: O_5  and  C_6
REMARK    6  A    between atoms: C_8  and  C_9
REMARK    7  A    between atoms: C_9  and  N_10
REMARK    8  A    between atoms: C_15  and  C_16
REMARK    9  A    between atoms: C_23  and  C_24
REMARK                            x       y       z     vdW  Elec       q    Type
REMARK                         _______ _______ _______ _____ _____    ______ ____
ROOT
ATOM      1  C   UNL     1      48.626   5.681  16.026  0.00  0.00    +0.000 A 
ATOM      2  C   UNL     1      47.735   5.816  14.952  0.00  0.00    +0.000 A 
ATOM      3  C   UNL     1      47.951   6.726  13.924  0.00  0.00    +0.000 A 
ATOM      4  C   UNL     1      49.112   7.507  13.966  0.00  0.00    +0.000 A 
ATOM      5  C   UNL     1      50.018   7.351  15.012  0.00  0.00    +0.000 A 
ATOM      6  F   UNL     1      51.115   8.131  14.975  0.00  0.00    +0.000 F 
ATOM      7  C   UNL     1      49.818   6.449  16.068  0.00  0.00    +0.000 A 
ENDROOT
BRANCH   7   8
ATOM      8  C   UNL     1      50.795   6.358  17.174  0.00  0.00    +0.000 A 
ATOM      9  C   UNL     1      51.987   5.622  17.029  0.00  0.00    +0.000 A 
ATOM     10  C   UNL     1      52.906   5.514  18.069  0.00  0.00    +0.000 A 
ATOM     11  C   UNL     1      52.662   6.163  19.271  0.00  0.00    +0.000 A 
ATOM     12  C   UNL     1      51.493   6.902  19.437  0.00  0.00    +0.000 A 
ATOM     13 CL   UNL     1      51.187   7.701  20.931  0.00  0.00    +0.000 Cl
ATOM     14  C   UNL     1      50.564   6.987  18.411  0.00  0.00    +0.000 A 
ENDBRANCH   7   8
BRANCH   1  15
ATOM     15  O   UNL     1      48.360   4.849  17.084  0.00  0.00    +0.000 OA
BRANCH  15  16
ATOM     16  C   UNL     1      47.632   3.659  16.798  0.00  0.00    +0.000 C 
BRANCH  16  17
ATOM     17  C   UNL     1      48.602   2.490  16.757  0.00  0.00    +0.000 C 
BRANCH  17  19
ATOM     18  C   UNL     1      51.017   1.940  17.218  0.00  0.00    +0.000 C 
ATOM     19  C   UNL     1      49.799   2.729  17.668  0.00  0.00    +0.000 C 
ENDBRANCH  17  19
ENDBRANCH  16  17
ENDBRANCH  15  16
ENDBRANCH   1  15
BRANCH   3  20
ATOM     20  C   UNL     1      46.936   6.863  12.809  0.00  0.00    +0.000 C 
BRANCH  20  21
ATOM     21  N   UNL     1      45.576   6.553  13.295  0.00  0.00    +0.000 N 
ATOM     22  C   UNL     1      44.804   5.826  12.366  0.00  0.00    +0.000 A 
ATOM     23  C   UNL     1      43.478   5.445  12.667  0.00  0.00    +0.000 A 
ATOM     24  N   UNL     1      42.690   4.791  11.786  0.00  0.00    +0.000 NA
ATOM     25  C   UNL     1      43.260   4.497  10.586  0.00  0.00    +0.000 A 
ATOM     26  C   UNL     1      44.578   4.865  10.278  0.00  0.00    +0.000 A 
ATOM     27  N   UNL     1      45.350   5.522  11.167  0.00  0.00    +0.000 NA
ATOM     28  H   UNL     1      45.059   7.398  13.487  0.00  0.00    +0.000 HD
BRANCH  26  29
ATOM     29  C   UNL     1      45.185   4.546   8.954  0.00  0.00    +0.000 C 
ATOM     30  N   UNL     1      44.588   3.583   8.170  0.00  0.00    +0.000 N 
ATOM     31  O   UNL     1      46.188   5.116   8.551  0.00  0.00    +0.000 OA
ATOM     32  H   UNL     1      43.741   3.083   8.420  0.00  0.00    +0.000 HD
ATOM     33  H   UNL     1      45.020   3.397   7.280  0.00  0.00    +0.000 HD
ENDBRANCH  26  29
ENDBRANCH  20  21
ENDBRANCH   3  20
TORSDOF 8
ENDMDL
MODEL 5
REMARK VINA RESULT:    -6.153      3.170      4.726
REMARK INTER + INTRA:         -10.740
REMARK INTER:                  -8.566
REMARK INTRA:                  -2.174
REMARK UNBOUND:                -1.710
REMARK  Name = 
REMARK  9 active torsions:
REMARK  status: ('A' for Active; 'I' for Inactive)
REMARK    1  A    between atoms: C_1  and  C_2
REMARK    2  A    between atoms: C_2  and  C_3
REMARK    3  A    between atoms: C_3  and  C_4
REMARK    4  A    between atoms: C_4  and  O_5
REMARK    5  A    between atoms: O_5  and  C_6
REMARK    6  A    between atoms: C_8  and  C_9
REMARK    7  A    between atoms: C_9  and  N_10
REMARK    8  A    between atoms: C_15  and  C_16
REMARK    9  A    between atoms: C_23  and  C_24
REMARK                            x       y       z     vdW  Elec       q    Type
REMARK                         _______ _______ _______ _____ _____    ______ ____
ROOT
ATOM      1  C   UNL     1      48.468   6.185  17.024  0.00  0.00    +0.000 A 
ATOM      2  C   UNL     1      48.191   6.008  15.662  0.00  0.00    +0.000 A 
ATOM      3  C   UNL     1      47.607   4.846  15.172  0.00  0.00    +0.000 A 
ATOM      4  C   UNL     1      47.270   3.840  16.085  0.00  0.00    +0.000 A 
ATOM      5  C   UNL     1      47.511   4.026  17.444  0.00  0.00    +0.000 A 
ATOM      6  F   UNL     1      47.148   3.017  18.259  0.00  0.00    +0.000 F 
ATOM      7  C   UNL     1      48.109   5.184  17.964  0.00  0.00    +0.000 A 
ENDROOT
BRANCH   7   8
ATOM      8  C   UNL     1      48.378   5.306  19.412  0.00  0.00    +0.000 A 
ATOM      9  C   UNL     1      47.397   5.806  20.291  0.00  0.00    +0.000 A 
ATOM     10  C   UNL     1      47.645   5.942  21.654  0.00  0.00    +0.000 A 
ATOM     11  C   UNL     1      48.874   5.556  22.171  0.00  0.00    +0.000 A 
ATOM     12  C   UNL     1      49.858   5.053  21.323  0.00  0.00    +0.000 A 
ATOM     13 CL   UNL     1      51.385   4.581  21.963  0.00  0.00    +0.000 Cl
ATOM     14  C   UNL     1      49.621   4.943  19.961  0.00  0.00    +0.000 A 
ENDBRANCH   7   8
BRANCH   1  15
ATOM     15  O   UNL     1      49.128   7.294  17.489  0.00  0.00    +0.000 OA
BRANCH  15  16
ATOM     16  C   UNL     1      48.353   8.474  17.670  0.00  0.00    +0.000 C 
BRANCH  16  17
ATOM     17  C   UNL     1      48.872   9.218  18.891  0.00  0.00    +0.000 C 
BRANCH  17  19
ATOM     18  C   UNL     1      50.209   8.765  20.977  0.00  0.00    +0.000 C 
ATOM     19  C   UNL     1      50.097   8.530  19.480  0.00  0.00    +0.000 C 
ENDBRANCH  17  19
ENDBRANCH  16  17
ENDBRANCH  15  16
ENDBRANCH   1  15
BRANCH   3  20
ATOM     20  C   UNL     1      47.369   4.689  13.685  0.00  0.00    +0.000 C 
BRANCH  20  21
ATOM     21  N   UNL     1      46.391   3.615  13.420  0.00  0.00    +0.000 N 
ATOM     22  C   UNL     1      45.256   4.058  12.709  0.00  0.00    +0.000 A 
ATOM     23  C   UNL     1      44.219   3.161  12.370  0.00  0.00    +0.000 A 
ATOM     24  N   UNL     1      43.095   3.554  11.733  0.00  0.00    +0.000 NA
ATOM     25  C   UNL     1      43.027   4.875  11.413  0.00  0.00    +0.000 A 
ATOM     26  C   UNL     1      44.053   5.774  11.740  0.00  0.00    +0.000 A 
ATOM     27  N   UNL     1      45.168   5.365  12.380  0.00  0.00    +0.000 NA
ATOM     28  H   UNL     1      46.044   3.220  14.281  0.00  0.00    +0.000 HD
BRANCH  26  29
ATOM     29  C   UNL     1      43.959   7.221  11.393  0.00  0.00    +0.000 C 
ATOM     30  N   UNL     1      42.733   7.733  11.028  0.00  0.00    +0.000 N 
ATOM     31  O   UNL     1      44.934   7.957  11.428  0.00  0.00    +0.000 OA
ATOM     32  H   UNL     1      41.872   7.196  10.998  0.00  0.00    +0.000 HD
ATOM     33  H   UNL     1      42.704   8.714  10.806  0.00  0.00    +0.000 HD
ENDBRANCH  26  29
ENDBRANCH  20  21
ENDBRANCH   3  20
TORSDOF 8
ENDMDL
MODEL 6
REMARK VINA RESULT:    -6.011      3.081      4.541
REMARK INTER + INTRA:         -10.532
REMARK INTER:                  -8.674
REMARK INTRA:                  -1.858
REMARK UNBOUND:                -1.710
REMARK  Name = 
REMARK  9 active torsions:
REMARK  status: ('A' for Active; 'I' for Inactive)
REMARK    1  A    between atoms: C_1  and  C_2
REMARK    2  A    between atoms: C_2  and  C_3
REMARK    3  A    between atoms: C_3  and  C_4
REMARK    4  A    between atoms: C_4  and  O_5
REMARK    5  A    between atoms: O_5  and  C_6
REMARK    6  A    between atoms: C_8  and  C_9
REMARK    7  A    between atoms: C_9  and  N_10
REMARK    8  A    between atoms: C_15  and  C_16
REMARK    9  A    between atoms: C_23  and  C_24
REMARK                            x       y       z     vdW  Elec       q    Type
REMARK                         _______ _______ _______ _____ _____    ______ ____
ROOT
ATOM      1  C   UNL     1      48.849   6.616  16.346  0.00  0.00    +0.000 A 
ATOM      2  C   UNL     1      48.502   6.669  14.989  0.00  0.00    +0.000 A 
ATOM      3  C   UNL     1      47.784   5.652  14.371  0.00  0.00    +0.000 A 
ATOM      4  C   UNL     1      47.384   4.559  15.148  0.00  0.00    +0.000 A 
ATOM      5  C   UNL     1      47.696   4.519  16.504  0.00  0.00    +0.000 A 
ATOM      6  F   UNL     1      47.266   3.439  17.185  0.00  0.00    +0.000 F 
ATOM      7  C   UNL     1      48.429   5.526  17.151  0.00  0.00    +0.000 A 
ENDROOT
BRANCH   7   8
ATOM      8  C   UNL     1      48.766   5.407  18.585  0.00  0.00    +0.000 A 
ATOM      9  C   UNL     1      50.066   5.055  18.997  0.00  0.00    +0.000 A 
ATOM     10  C   UNL     1      50.391   4.922  20.344  0.00  0.00    +0.000 A 
ATOM     11  C   UNL     1      49.424   5.164  21.311  0.00  0.00    +0.000 A 
ATOM     12  C   UNL     1      48.133   5.519  20.929  0.00  0.00    +0.000 A 
ATOM     13 CL   UNL     1      46.933   5.813  22.128  0.00  0.00    +0.000 Cl
ATOM     14  C   UNL     1      47.802   5.625  19.586  0.00  0.00    +0.000 A 
ENDBRANCH   7   8
BRANCH   1  15
ATOM     15  O   UNL     1      49.636   7.578  16.928  0.00  0.00    +0.000 OA
BRANCH  15  16
ATOM     16  C   UNL     1      49.041   8.853  17.142  0.00  0.00    +0.000 C 
BRANCH  16  17
ATOM     17  C   UNL     1      48.916   9.089  18.639  0.00  0.00    +0.000 C 
BRANCH  17  19
ATOM     18  C   UNL     1      47.285   9.163  20.557  0.00  0.00    +0.000 C 
ATOM     19  C   UNL     1      47.462   9.274  19.052  0.00  0.00    +0.000 C 
ENDBRANCH  17  19
ENDBRANCH  16  17
ENDBRANCH  15  16
ENDBRANCH   1  15
BRANCH   3  20
ATOM     20  C   UNL     1      47.472   5.739  12.892  0.00  0.00    +0.000 C 
BRANCH  20  21
ATOM     21  N   UNL     1      46.465   6.787  12.627  0.00  0.00    +0.000 N 
ATOM     22  C   UNL     1      45.242   6.275  12.147  0.00  0.00    +0.000 A 
ATOM     23  C   UNL     1      44.166   7.138  11.842  0.00  0.00    +0.000 A 
ATOM     24  N   UNL     1      42.996   6.693  11.336  0.00  0.00    +0.000 NA
ATOM     25  C   UNL     1      42.902   5.348  11.155  0.00  0.00    +0.000 A 
ATOM     26  C   UNL     1      43.962   4.480  11.461  0.00  0.00    +0.000 A 
ATOM     27  N   UNL     1      45.125   4.941  11.962  0.00  0.00    +0.000 NA
ATOM     28  H   UNL     1      46.792   7.432  11.924  0.00  0.00    +0.000 HD
BRANCH  26  29
ATOM     29  C   UNL     1      43.848   3.009  11.247  0.00  0.00    +0.000 C 
ATOM     30  N   UNL     1      43.709   2.191  12.347  0.00  0.00    +0.000 N 
ATOM     31  O   UNL     1      43.871   2.516  10.129  0.00  0.00    +0.000 OA
ATOM     32  H   UNL     1      43.655   2.522  13.306  0.00  0.00    +0.000 HD
ATOM     33  H   UNL     1      43.629   1.205  12.167  0.00  0.00    +0.000 HD
ENDBRANCH  26  29
ENDBRANCH  20  21
ENDBRANCH   3  20
TORSDOF 8
ENDMDL
MODEL 7
REMARK VINA RESULT:    -5.833      4.461      8.482
REMARK INTER + INTRA:         -10.271
REMARK INTER:                  -8.806
REMARK INTRA:                  -1.465
REMARK UNBOUND:                -1.710
REMARK  Name = 
REMARK  9 active torsions:
REMARK  status: ('A' for Active; 'I' for Inactive)
REMARK    1  A    between atoms: C_1  and  C_2
REMARK    2  A    between atoms: C_2  and  C_3
REMARK    3  A    between atoms: C_3  and  C_4
REMARK    4  A    between atoms: C_4  and  O_5
REMARK    5  A    between atoms: O_5  and  C_6
REMARK    6  A    between atoms: C_8  and  C_9
REMARK    7  A    between atoms: C_9  and  N_10
REMARK    8  A    between atoms: C_15  and  C_16
REMARK    9  A    between atoms: C_23  and  C_24
REMARK                            x       y       z     vdW  Elec       q    Type
REMARK                         _______ _______ _______ _____ _____    ______ ____
ROOT
ATOM      1  C   UNL     1      46.828   7.447  12.956  0.00  0.00    +0.000 A 
ATOM      2  C   UNL     1      47.847   7.895  13.807  0.00  0.00    +0.000 A 
ATOM      3  C   UNL     1      48.424   7.070  14.765  0.00  0.00    +0.000 A 
ATOM      4  C   UNL     1      47.978   5.746  14.852  0.00  0.00    +0.000 A 
ATOM      5  C   UNL     1      46.991   5.286  13.985  0.00  0.00    +0.000 A 
ATOM      6  F   UNL     1      46.624   3.998  14.124  0.00  0.00    +0.000 F 
ATOM      7  C   UNL     1      46.383   6.101  13.017  0.00  0.00    +0.000 A 
ENDROOT
BRANCH   7   8
ATOM      8  C   UNL     1      45.310   5.568  12.152  0.00  0.00    +0.000 A 
ATOM      9  C   UNL     1      43.988   5.452  12.625  0.00  0.00    +0.000 A 
ATOM     10  C   UNL     1      42.972   4.935  11.826  0.00  0.00    +0.000 A 
ATOM     11  C   UNL     1      43.254   4.543  10.524  0.00  0.00    +0.000 A 
ATOM     12  C   UNL     1      44.552   4.653  10.032  0.00  0.00    +0.000 A 
ATOM     13 CL   UNL     1      44.903   4.162   8.419  0.00  0.00    +0.000 Cl
ATOM     14  C   UNL     1      45.570   5.143  10.836  0.00  0.00    +0.000 A 
ENDBRANCH   7   8
BRANCH   1  15
ATOM     15  O   UNL     1      46.197   8.292  12.077  0.00  0.00    +0.000 OA
BRANCH  15  16
ATOM     16  C   UNL     1      46.117   9.663  12.450  0.00  0.00    +0.000 C 
BRANCH  16  17
ATOM     17  C   UNL     1      44.820  10.242  11.909  0.00  0.00    +0.000 C 
BRANCH  17  19
ATOM     18  C   UNL     1      42.759   9.783  10.536  0.00  0.00    +0.000 C 
ATOM     19  C   UNL     1      44.086   9.235  11.033  0.00  0.00    +0.000 C 
ENDBRANCH  17  19
ENDBRANCH  16  17
ENDBRANCH  15  16
ENDBRANCH   1  15
BRANCH   3  20
ATOM     20  C   UNL     1      49.492   7.616  15.689  0.00  0.00    +0.000 C 
BRANCH  20  21
ATOM     21  N   UNL     1      48.896   8.474  16.733  0.00  0.00    +0.000 N 
ATOM     22  C   UNL     1      48.668   7.797  17.948  0.00  0.00    +0.000 A 
ATOM     23  C   UNL     1      48.104   8.467  19.055  0.00  0.00    +0.000 A 
ATOM     24  N   UNL     1      47.825   7.843  20.220  0.00  0.00    +0.000 NA
ATOM     25  C   UNL     1      48.144   6.522  20.276  0.00  0.00    +0.000 A 
ATOM     26  C   UNL     1      48.711   5.847  19.184  0.00  0.00    +0.000 A 
ATOM     27  N   UNL     1      48.979   6.484  18.026  0.00  0.00    +0.000 NA
ATOM     28  H   UNL     1      47.999   8.830  16.439  0.00  0.00    +0.000 HD
BRANCH  26  29
ATOM     29  C   UNL     1      49.045   4.396  19.256  0.00  0.00    +0.000 C 
ATOM     30  N   UNL     1      48.534   3.651  20.297  0.00  0.00    +0.000 N 
ATOM     31  O   UNL     1      49.751   3.854  18.418  0.00  0.00    +0.000 OA
ATOM     32  H   UNL     1      47.920   4.018  21.018  0.00  0.00    +0.000 HD
ATOM     33  H   UNL     1      48.774   2.674  20.311  0.00  0.00    +0.000 HD
ENDBRANCH  26  29
ENDBRANCH  20  21
ENDBRANCH   3  20
TORSDOF 8
ENDMDL
MODEL 8
REMARK VINA RESULT:    -5.717      2.470      3.260
REMARK INTER + INTRA:         -10.101
REMARK INTER:                  -8.399
REMARK INTRA:                  -1.701
REMARK UNBOUND:                -1.710
REMARK  Name = 
REMARK  9 active torsions:
REMARK  status: ('A' for Active; 'I' for Inactive)
REMARK    1  A    between atoms: C_1  and  C_2
REMARK    2  A    between atoms: C_2  and  C_3
REMARK    3  A    between atoms: C_3  and  C_4
REMARK    4  A    between atoms: C_4  and  O_5
REMARK    5  A    between atoms: O_5  and  C_6
REMARK    6  A    between atoms: C_8  and  C_9
REMARK    7  A    between atoms: C_9  and  N_10
REMARK    8  A    between atoms: C_15  and  C_16
REMARK    9  A    between atoms: C_23  and  C_24
REMARK                            x       y       z     vdW  Elec       q    Type
REMARK                         _______ _______ _______ _____ _____    ______ ____
ROOT
ATOM      1  C   UNL     1      48.184   5.824  16.153  0.00  0.00    +0.000 A 
ATOM      2  C   UNL     1      47.908   5.750  14.781  0.00  0.00    +0.000 A 
ATOM      3  C   UNL     1      48.198   6.795  13.912  0.00  0.00    +0.000 A 
ATOM      4  C   UNL     1      48.806   7.942  14.437  0.00  0.00    +0.000 A 
ATOM      5  C   UNL     1      49.114   8.006  15.793  0.00  0.00    +0.000 A 
ATOM      6  F   UNL     1      49.707   9.138  16.219  0.00  0.00    +0.000 F 
ATOM      7  C   UNL     1      48.822   6.970  16.694  0.00  0.00    +0.000 A 
ENDROOT
BRANCH   7   8
ATOM      8  C   UNL     1      49.135   7.114  18.131  0.00  0.00    +0.000 A 
ATOM      9  C   UNL     1      50.400   6.754  18.636  0.00  0.00    +0.000 A 
ATOM     10  C   UNL     1      50.701   6.868  19.991  0.00  0.00    +0.000 A 
ATOM     11  C   UNL     1      49.747   7.368  20.867  0.00  0.00    +0.000 A 
ATOM     12  C   UNL     1      48.491   7.736  20.390  0.00  0.00    +0.000 A 
ATOM     13 CL   UNL     1      47.306   8.350  21.478  0.00  0.00    +0.000 Cl
ATOM     14  C   UNL     1      48.182   7.597  19.046  0.00  0.00    +0.000 A 
ENDBRANCH   7   8
BRANCH   1  15
ATOM     15  O   UNL     1      47.811   4.828  17.019  0.00  0.00    +0.000 OA
BRANCH  15  16
ATOM     16  C   UNL     1      47.756   3.506  16.493  0.00  0.00    +0.000 C 
BRANCH  16  17
ATOM     17  C   UNL     1      48.506   2.574  17.431  0.00  0.00    +0.000 C 
BRANCH  17  19
ATOM     18  C   UNL     1      50.925   3.260  17.579  0.00  0.00    +0.000 C 
ATOM     19  C   UNL     1      49.923   2.314  16.939  0.00  0.00    +0.000 C 
ENDBRANCH  17  19
ENDBRANCH  16  17
ENDBRANCH  15  16
ENDBRANCH   1  15
BRANCH   3  20
ATOM     20  C   UNL     1      47.840   6.681  12.445  0.00  0.00    +0.000 C 
BRANCH  20  21
ATOM     21  N   UNL     1      46.661   7.511  12.125  0.00  0.00    +0.000 N 
ATOM     22  C   UNL     1      45.521   6.753  11.786  0.00  0.00    +0.000 A 
ATOM     23  C   UNL     1      44.304   7.386  11.451  0.00  0.00    +0.000 A 
ATOM     24  N   UNL     1      43.205   6.698  11.074  0.00  0.00    +0.000 NA
ATOM     25  C   UNL     1      43.330   5.343  11.056  0.00  0.00    +0.000 A 
ATOM     26  C   UNL     1      44.532   4.704  11.392  0.00  0.00    +0.000 A 
ATOM     27  N   UNL     1      45.623   5.405  11.763  0.00  0.00    +0.000 NA
ATOM     28  H   UNL     1      46.844   8.109  11.333  0.00  0.00    +0.000 HD
BRANCH  26  29
ATOM     29  C   UNL     1      44.659   3.218  11.357  0.00  0.00    +0.000 C 
ATOM     30  N   UNL     1      44.219   2.493  12.443  0.00  0.00    +0.000 N 
ATOM     31  O   UNL     1      45.135   2.634  10.395  0.00  0.00    +0.000 OA
ATOM     32  H   UNL     1      43.788   2.899  13.269  0.00  0.00    +0.000 HD
ATOM     33  H   UNL     1      44.313   1.493  12.384  0.00  0.00    +0.000 HD
ENDBRANCH  26  29
ENDBRANCH  20  21
ENDBRANCH   3  20
TORSDOF 8
ENDMDL
MODEL 9
REMARK VINA RESULT:    -5.704      2.731      4.146
REMARK INTER + INTRA:         -10.082
REMARK INTER:                  -8.707
REMARK INTRA:                  -1.375
REMARK UNBOUND:                -1.710
REMARK  Name = 
REMARK  9 active torsions:
REMARK  status: ('A' for Active; 'I' for Inactive)
REMARK    1  A    between atoms: C_1  and  C_2
REMARK    2  A    between atoms: C_2  and  C_3
REMARK    3  A    between atoms: C_3  and  C_4
REMARK    4  A    between atoms: C_4  and  O_5
REMARK    5  A    between atoms: O_5  and  C_6
REMARK    6  A    between atoms: C_8  and  C_9
REMARK    7  A    between atoms: C_9  and  N_10
REMARK    8  A    between atoms: C_15  and  C_16
REMARK    9  A    between atoms: C_23  and  C_24
REMARK                            x       y       z     vdW  Elec       q    Type
REMARK                         _______ _______ _______ _____ _____    ______ ____
ROOT
ATOM      1  C   UNL     1      49.002   5.849  16.683  0.00  0.00    +0.000 A 
ATOM      2  C   UNL     1      48.255   5.694  15.507  0.00  0.00    +0.000 A 
ATOM      3  C   UNL     1      47.473   4.570  15.274  0.00  0.00    +0.000 A 
ATOM      4  C   UNL     1      47.422   3.582  16.264  0.00  0.00    +0.000 A 
ATOM      5  C   UNL     1      48.135   3.748  17.448  0.00  0.00    +0.000 A 
ATOM      6  F   UNL     1      48.027   2.759  18.356  0.00  0.00    +0.000 F 
ATOM      7  C   UNL     1      48.942   4.867  17.705  0.00  0.00    +0.000 A 
ENDROOT
BRANCH   7   8
ATOM      8  C   UNL     1      49.709   4.968  18.964  0.00  0.00    +0.000 A 
ATOM      9  C   UNL     1      49.118   5.488  20.133  0.00  0.00    +0.000 A 
ATOM     10  C   UNL     1      49.836   5.604  21.320  0.00  0.00    +0.000 A 
ATOM     11  C   UNL     1      51.157   5.179  21.369  0.00  0.00    +0.000 A 
ATOM     12  C   UNL     1      51.761   4.657  20.228  0.00  0.00    +0.000 A 
ATOM     13 CL   UNL     1      53.401   4.136  20.288  0.00  0.00    +0.000 Cl
ATOM     14  C   UNL     1      51.055   4.566  19.039  0.00  0.00    +0.000 A 
ENDBRANCH   7   8
BRANCH   1  15
ATOM     15  O   UNL     1      49.845   6.917  16.867  0.00  0.00    +0.000 OA
BRANCH  15  16
ATOM     16  C   UNL     1      51.043   6.929  16.099  0.00  0.00    +0.000 C 
BRANCH  16  17
ATOM     17  C   UNL     1      51.246   8.324  15.530  0.00  0.00    +0.000 C 
BRANCH  17  19
ATOM     18  C   UNL     1      50.128   8.016  13.294  0.00  0.00    +0.000 C 
ATOM     19  C   UNL     1      50.084   8.732  14.633  0.00  0.00    +0.000 C 
ENDBRANCH  17  19
ENDBRANCH  16  17
ENDBRANCH  15  16
ENDBRANCH   1  15
BRANCH   3  20
ATOM     20  C   UNL     1      46.718   4.432  13.968  0.00  0.00    +0.000 C 
BRANCH  20  21
ATOM     21  N   UNL     1      45.285   4.734  14.154  0.00  0.00    +0.000 N 
ATOM     22  C   UNL     1      44.572   4.820  12.940  0.00  0.00    +0.000 A 
ATOM     23  C   UNL     1      43.188   5.103  12.932  0.00  0.00    +0.000 A 
ATOM     24  N   UNL     1      42.479   5.241  11.791  0.00  0.00    +0.000 NA
ATOM     25  C   UNL     1      43.177   5.068  10.635  0.00  0.00    +0.000 A 
ATOM     26  C   UNL     1      44.550   4.781  10.632  0.00  0.00    +0.000 A 
ATOM     27  N   UNL     1      45.244   4.651  11.780  0.00  0.00    +0.000 NA
ATOM     28  H   UNL     1      45.160   5.623  14.614  0.00  0.00    +0.000 HD
BRANCH  26  29
ATOM     29  C   UNL     1      45.304   4.606   9.357  0.00  0.00    +0.000 C 
ATOM     30  N   UNL     1      45.098   3.459   8.622  0.00  0.00    +0.000 N 
ATOM     31  O   UNL     1      46.089   5.450   8.951  0.00  0.00    +0.000 OA
ATOM     32  H   UNL     1      44.446   2.723   8.875  0.00  0.00    +0.000 HD
ATOM     33  H   UNL     1      45.618   3.375   7.764  0.00  0.00    +0.000 HD
ENDBRANCH  26  29
ENDBRANCH  20  21
ENDBRANCH   3  20
TORSDOF 8
ENDMDL
