MODEL 1
REMARK VINA RESULT:    -7.805      0.000      0.000
REMARK INTER + INTRA:         -11.578
REMARK INTER:                 -10.542
REMARK INTRA:                  -1.036
REMARK UNBOUND:                -1.036
REMARK  Name = 
REMARK  7 active torsions:
REMARK  status: ('A' for Active; 'I' for Inactive)
REMARK    1  A    between atoms: C_1  and  N_2
REMARK    2  A    between atoms: N_2  and  C_3
REMARK    3  A    between atoms: C_3  and  C_4
REMARK    4  A    between atoms: C_7  and  C_8
REMARK    5  A    between atoms: C_8  and  N_9
REMARK    6  A    between atoms: N_9  and  C_10
REMARK    7  A    between atoms: C_18  and  C_20
REMARK                            x       y       z     vdW  Elec       q    Type
REMARK                         _______ _______ _______ _____ _____    ______ ____
ROOT
ATOM      1  C   UNL     1      47.311   6.231  12.435  0.00  0.00    +0.000 C 
ENDROOT
BRANCH   1   2
ATOM      2  C   UNL     1      47.553   5.855  13.863  0.00  0.00    +0.000 A 
ATOM      3  C   UNL     1      46.976   4.694  14.397  0.00  0.00    +0.000 A 
ATOM      4  C   UNL     1      47.259   4.303  15.698  0.00  0.00    +0.000 A 
ATOM      5  C   UNL     1      48.134   5.068  16.488  0.00  0.00    +0.000 A 
ATOM      6  C   UNL     1      48.679   6.250  15.969  0.00  0.00    +0.000 A 
ATOM      7  C   UNL     1      48.385   6.645  14.669  0.00  0.00    +0.000 A 
BRANCH   5   8
ATOM      8  C   UNL     1      48.477   4.616  17.880  0.00  0.00    +0.000 C 
BRANCH   8   9
ATOM      9  N   UNL     1      49.901   4.820  18.145  0.00  0.00    +0.000 NA
ATOM     10  H   UNL     1      50.041   4.824  19.155  0.00  0.00    +0.000 HD
BRANCH   9  11
ATOM     11  C   UNL     1      50.752   3.788  17.535  0.00  0.00    +0.000 C 
ATOM     12  C   UNL     1      52.044   3.580  18.340  0.00  0.00    +0.000 C 
ATOM     13  C   UNL     1      52.831   2.383  17.821  0.00  0.00    +0.000 C 
ATOM     14  C   UNL     1      51.961   1.135  17.760  0.00  0.00    +0.000 C 
ATOM     15  N   UNL     1      50.781   1.353  16.922  0.00  0.00    +0.000 NA
ATOM     16  C   UNL     1      49.966   2.456  17.447  0.00  0.00    +0.000 C 
ATOM     17  H   UNL     1      50.219   0.503  16.912  0.00  0.00    +0.000 HD
ENDBRANCH   9  11
ENDBRANCH   8   9
ENDBRANCH   5   8
ENDBRANCH   1   2
BRANCH   1  19
ATOM     18  C   UNL     1      46.541   8.639  12.199  0.00  0.00    +0.000 C 
ATOM     19  N   UNL     1      46.264   7.208  12.143  0.00  0.00    +0.000 N 
ATOM     20  C   UNL     1      44.991   6.848  11.665  0.00  0.00    +0.000 C 
ATOM     21  O   UNL     1      44.180   7.706  11.321  0.00  0.00    +0.000 OA
BRANCH  20  22
ATOM     22  C   UNL     1      44.612   5.427  11.610  0.00  0.00    +0.000 A 
ATOM     23  C   UNL     1      43.878   4.765  12.582  0.00  0.00    +0.000 A 
ATOM     24  S   UNL     1      43.544   3.135  12.202  0.00  0.00    +0.000 S 
ATOM     25  C   UNL     1      44.228   3.303  10.657  0.00  0.00    +0.000 A 
ATOM     26  N   UNL     1      44.170   2.291   9.751  0.00  0.00    +0.000 NA
ATOM     27  C   UNL     1      44.670   2.583   8.599  0.00  0.00    +0.000 A 
ATOM     28  N   UNL     1      45.262   3.782   8.284  0.00  0.00    +0.000 N 
ATOM     29  C   UNL     1      45.470   4.781   9.208  0.00  0.00    +0.000 A 
ATOM     30  O   UNL     1      46.212   5.725   8.964  0.00  0.00    +0.000 OA
ATOM     31  C   UNL     1      44.804   4.549  10.479  0.00  0.00    +0.000 A 
ATOM     32  H   UNL     1      45.703   3.917   7.387  0.00  0.00    +0.000 HD
ENDBRANCH  20  22
ENDBRANCH   1  19
TORSDOF 6
ENDMDL
MODEL 2
REMARK VINA RESULT:    -7.590      3.549      8.512
REMARK INTER + INTRA:         -11.288
REMARK INTER:                 -10.170
REMARK INTRA:                  -1.118
REMARK UNBOUND:                -1.036
REMARK  Name = 
REMARK  7 active torsions:
REMARK  status: ('A' for Active; 'I' for Inactive)
REMARK    1  A    between atoms: C_1  and  N_2
REMARK    2  A    between atoms: N_2  and  C_3
REMARK    3  A    between atoms: C_3  and  C_4
REMARK    4  A    between atoms: C_7  and  C_8
REMARK    5  A    between atoms: C_8  and  N_9
REMARK    6  A    between atoms: N_9  and  C_10
REMARK    7  A    between atoms: C_18  and  C_20
REMARK                            x       y       z     vdW  Elec       q    Type
REMARK                         _______ _______ _______ _____ _____    ______ ____
ROOT
ATOM      1  C   UNL     1      47.401   7.222  13.925  0.00  0.00    +0.000 C 
ENDROOT
BRANCH   1   2
ATOM      2  C   UNL     1      46.687   6.313  12.974  0.00  0.00    +0.000 A 
ATOM      3  C   UNL     1      46.258   5.047  13.394  0.00  0.00    +0.000 A 
ATOM      4  C   UNL     1      45.529   4.232  12.537  0.00  0.00    +0.000 A 
ATOM      5  C   UNL     1      45.213   4.678  11.243  0.00  0.00    +0.000 A 
ATOM      6  C   UNL     1      45.676   5.927  10.809  0.00  0.00    +0.000 A 
ATOM      7  C   UNL     1      46.414   6.736  11.666  0.00  0.00    +0.000 A 
BRANCH   5   8
ATOM      8  C   UNL     1      44.382   3.814  10.335  0.00  0.00    +0.000 C 
BRANCH   8   9
ATOM      9  N   UNL     1      44.524   4.251   8.947  0.00  0.00    +0.000 NA
ATOM     10  H   UNL     1      45.150   5.056   8.927  0.00  0.00    +0.000 HD
BRANCH   9  11
ATOM     11  C   UNL     1      45.050   3.199   8.064  0.00  0.00    +0.000 C 
ATOM     12  C   UNL     1      46.198   3.724   7.189  0.00  0.00    +0.000 C 
ATOM     13  C   UNL     1      46.867   2.592   6.419  0.00  0.00    +0.000 C 
ATOM     14  C   UNL     1      47.297   1.468   7.353  0.00  0.00    +0.000 C 
ATOM     15  N   UNL     1      46.159   0.947   8.111  0.00  0.00    +0.000 NA
ATOM     16  C   UNL     1      45.543   2.007   8.921  0.00  0.00    +0.000 C 
ATOM     17  H   UNL     1      46.485   0.206   8.731  0.00  0.00    +0.000 HD
ENDBRANCH   9  11
ENDBRANCH   8   9
ENDBRANCH   5   8
ENDBRANCH   1   2
BRANCH   1  19
ATOM     18  C   UNL     1      49.674   7.549  12.843  0.00  0.00    +0.000 C 
ATOM     19  N   UNL     1      48.860   7.154  13.987  0.00  0.00    +0.000 N 
ATOM     20  C   UNL     1      49.564   6.845  15.164  0.00  0.00    +0.000 C 
ATOM     21  O   UNL     1      50.791   6.912  15.202  0.00  0.00    +0.000 OA
BRANCH  20  22
ATOM     22  C   UNL     1      48.825   6.399  16.356  0.00  0.00    +0.000 A 
ATOM     23  C   UNL     1      48.490   5.083  16.635  0.00  0.00    +0.000 A 
ATOM     24  S   UNL     1      47.685   4.878  18.126  0.00  0.00    +0.000 S 
ATOM     25  C   UNL     1      47.901   6.515  18.523  0.00  0.00    +0.000 A 
ATOM     26  N   UNL     1      47.537   6.993  19.743  0.00  0.00    +0.000 NA
ATOM     27  C   UNL     1      47.820   8.238  19.929  0.00  0.00    +0.000 A 
ATOM     28  N   UNL     1      48.396   9.057  18.991  0.00  0.00    +0.000 N 
ATOM     29  C   UNL     1      48.652   8.655  17.699  0.00  0.00    +0.000 A 
ATOM     30  O   UNL     1      48.931   9.468  16.826  0.00  0.00    +0.000 OA
ATOM     31  C   UNL     1      48.473   7.229  17.486  0.00  0.00    +0.000 A 
ATOM     32  H   UNL     1      48.520  10.042  19.175  0.00  0.00    +0.000 HD
ENDBRANCH  20  22
ENDBRANCH   1  19
TORSDOF 6
ENDMDL
MODEL 3
REMARK VINA RESULT:    -7.553      3.619      8.338
REMARK INTER + INTRA:         -11.238
REMARK INTER:                 -10.128
REMARK INTRA:                  -1.110
REMARK UNBOUND:                -1.036
REMARK  Name = 
REMARK  7 active torsions:
REMARK  status: ('A' for Active; 'I' for Inactive)
REMARK    1  A    between atoms: C_1  and  N_2
REMARK    2  A    between atoms: N_2  and  C_3
REMARK    3  A    between atoms: C_3  and  C_4
REMARK    4  A    between atoms: C_7  and  C_8
REMARK    5  A    between atoms: C_8  and  N_9
REMARK    6  A    between atoms: N_9  and  C_10
REMARK    7  A    between atoms: C_18  and  C_20
REMARK                            x       y       z     vdW  Elec       q    Type
REMARK                         _______ _______ _______ _____ _____    ______ ____
ROOT
ATOM      1  C   UNL     1      47.281   7.566  13.763  0.00  0.00    +0.000 C 
ENDROOT
BRANCH   1   2
ATOM      2  C   UNL     1      46.430   6.615  12.980  0.00  0.00    +0.000 A 
ATOM      3  C   UNL     1      45.797   7.038  11.804  0.00  0.00    +0.000 A 
ATOM      4  C   UNL     1      45.069   6.138  11.036  0.00  0.00    +0.000 A 
ATOM      5  C   UNL     1      44.970   4.794  11.432  0.00  0.00    +0.000 A 
ATOM      6  C   UNL     1      45.569   4.380  12.629  0.00  0.00    +0.000 A 
ATOM      7  C   UNL     1      46.289   5.286  13.401  0.00  0.00    +0.000 A 
BRANCH   5   8
ATOM      8  C   UNL     1      44.223   3.812  10.573  0.00  0.00    +0.000 C 
BRANCH   8   9
ATOM      9  N   UNL     1      44.202   4.267   9.183  0.00  0.00    +0.000 NA
ATOM     10  H   UNL     1      44.705   5.152   9.128  0.00  0.00    +0.000 HD
BRANCH   9  11
ATOM     11  C   UNL     1      44.805   3.300   8.254  0.00  0.00    +0.000 C 
ATOM     12  C   UNL     1      45.965   3.929   7.467  0.00  0.00    +0.000 C 
ATOM     13  C   UNL     1      46.710   2.881   6.650  0.00  0.00    +0.000 C 
ATOM     14  C   UNL     1      47.148   1.711   7.522  0.00  0.00    +0.000 C 
ATOM     15  N   UNL     1      46.003   1.094   8.193  0.00  0.00    +0.000 NA
ATOM     16  C   UNL     1      45.312   2.070   9.047  0.00  0.00    +0.000 C 
ATOM     17  H   UNL     1      46.333   0.324   8.773  0.00  0.00    +0.000 HD
ENDBRANCH   9  11
ENDBRANCH   8   9
ENDBRANCH   5   8
ENDBRANCH   1   2
BRANCH   1  19
ATOM     18  C   UNL     1      49.374   7.061  12.418  0.00  0.00    +0.000 C 
ATOM     19  N   UNL     1      48.734   7.430  13.675  0.00  0.00    +0.000 N 
ATOM     20  C   UNL     1      49.600   7.771  14.728  0.00  0.00    +0.000 C 
ATOM     21  O   UNL     1      50.820   7.752  14.574  0.00  0.00    +0.000 OA
BRANCH  20  22
ATOM     22  C   UNL     1      49.041   8.120  16.045  0.00  0.00    +0.000 A 
ATOM     23  C   UNL     1      48.728   9.406  16.457  0.00  0.00    +0.000 A 
ATOM     24  S   UNL     1      48.037   9.481  18.016  0.00  0.00    +0.000 S 
ATOM     25  C   UNL     1      47.985   7.787  18.127  0.00  0.00    +0.000 A 
ATOM     26  N   UNL     1      47.391   7.173  19.186  0.00  0.00    +0.000 NA
ATOM     27  C   UNL     1      47.366   5.886  19.104  0.00  0.00    +0.000 A 
ATOM     28  N   UNL     1      47.919   5.156  18.081  0.00  0.00    +0.000 N 
ATOM     29  C   UNL     1      48.651   5.726  17.064  0.00  0.00    +0.000 A 
ATOM     30  O   UNL     1      49.332   5.039  16.312  0.00  0.00    +0.000 OA
ATOM     31  C   UNL     1      48.590   7.178  17.043  0.00  0.00    +0.000 A 
ATOM     32  H   UNL     1      47.932   4.148  18.118  0.00  0.00    +0.000 HD
ENDBRANCH  20  22
ENDBRANCH   1  19
TORSDOF 6
ENDMDL
MODEL 4
REMARK VINA RESULT:    -7.405      1.875      2.852
REMARK INTER + INTRA:         -11.038
REMARK INTER:                  -9.854
REMARK INTRA:                  -1.185
REMARK UNBOUND:                -1.036
REMARK  Name = 
REMARK  7 active torsions:
REMARK  status: ('A' for Active; 'I' for Inactive)
REMARK    1  A    between atoms: C_1  and  N_2
REMARK    2  A    between atoms: N_2  and  C_3
REMARK    3  A    between atoms: C_3  and  C_4
REMARK    4  A    between atoms: C_7  and  C_8
REMARK    5  A    between atoms: C_8  and  N_9
REMARK    6  A    between atoms: N_9  and  C_10
REMARK    7  A    between atoms: C_18  and  C_20
REMARK                            x       y       z     vdW  Elec       q    Type
REMARK                         _______ _______ _______ _____ _____    ______ ____
ROOT
ATOM      1  C   UNL     1      47.153   6.100  12.424  0.00  0.00    +0.000 C 
ENDROOT
BRANCH   1   2
ATOM      2  C   UNL     1      47.511   5.825  13.851  0.00  0.00    +0.000 A 
ATOM      3  C   UNL     1      46.970   4.715  14.514  0.00  0.00    +0.000 A 
ATOM      4  C   UNL     1      47.358   4.415  15.813  0.00  0.00    +0.000 A 
ATOM      5  C   UNL     1      48.303   5.222  16.469  0.00  0.00    +0.000 A 
ATOM      6  C   UNL     1      48.813   6.355  15.821  0.00  0.00    +0.000 A 
ATOM      7  C   UNL     1      48.415   6.659  14.524  0.00  0.00    +0.000 A 
BRANCH   5   8
ATOM      8  C   UNL     1      48.758   4.866  17.858  0.00  0.00    +0.000 C 
BRANCH   8   9
ATOM      9  N   UNL     1      49.319   6.040  18.525  0.00  0.00    +0.000 NA
ATOM     10  H   UNL     1      48.937   6.874  18.080  0.00  0.00    +0.000 HD
BRANCH   9  11
ATOM     11  C   UNL     1      49.028   6.075  19.966  0.00  0.00    +0.000 C 
ATOM     12  C   UNL     1      47.958   7.126  20.296  0.00  0.00    +0.000 C 
ATOM     13  C   UNL     1      47.519   7.029  21.752  0.00  0.00    +0.000 C 
ATOM     14  C   UNL     1      47.090   5.611  22.105  0.00  0.00    +0.000 C 
ATOM     15  N   UNL     1      48.166   4.654  21.847  0.00  0.00    +0.000 NA
ATOM     16  C   UNL     1      48.554   4.675  20.430  0.00  0.00    +0.000 C 
ATOM     17  H   UNL     1      47.841   3.717  22.085  0.00  0.00    +0.000 HD
ENDBRANCH   9  11
ENDBRANCH   8   9
ENDBRANCH   5   8
ENDBRANCH   1   2
BRANCH   1  19
ATOM     18  C   UNL     1      46.340   8.500  12.263  0.00  0.00    +0.000 C 
ATOM     19  N   UNL     1      46.092   7.067  12.149  0.00  0.00    +0.000 N 
ATOM     20  C   UNL     1      44.836   6.701  11.635  0.00  0.00    +0.000 C 
ATOM     21  O   UNL     1      44.014   7.555  11.308  0.00  0.00    +0.000 OA
BRANCH  20  22
ATOM     22  C   UNL     1      44.485   5.276  11.521  0.00  0.00    +0.000 A 
ATOM     23  C   UNL     1      43.736   4.568  12.448  0.00  0.00    +0.000 A 
ATOM     24  S   UNL     1      43.444   2.946  12.004  0.00  0.00    +0.000 S 
ATOM     25  C   UNL     1      44.171   3.180  10.486  0.00  0.00    +0.000 A 
ATOM     26  N   UNL     1      44.158   2.198   9.545  0.00  0.00    +0.000 NA
ATOM     27  C   UNL     1      44.686   2.539   8.419  0.00  0.00    +0.000 A 
ATOM     28  N   UNL     1      45.263   3.757   8.162  0.00  0.00    +0.000 N 
ATOM     29  C   UNL     1      45.425   4.728   9.125  0.00  0.00    +0.000 A 
ATOM     30  O   UNL     1      46.155   5.693   8.935  0.00  0.00    +0.000 OA
ATOM     31  C   UNL     1      44.727   4.441  10.367  0.00  0.00    +0.000 A 
ATOM     32  H   UNL     1      45.728   3.931   7.284  0.00  0.00    +0.000 HD
ENDBRANCH  20  22
ENDBRANCH   1  19
TORSDOF 6
ENDMDL
MODEL 5
REMARK VINA RESULT:    -7.182      3.059      8.145
REMARK INTER + INTRA:         -10.736
REMARK INTER:                  -9.500
REMARK INTRA:                  -1.237
REMARK UNBOUND:                -1.036
REMARK  Name = 
REMARK  7 active torsions:
REMARK  status: ('A' for Active; 'I' for Inactive)
REMARK    1  A    between atoms: C_1  and  N_2
REMARK    2  A    between atoms: N_2  and  C_3
REMARK    3  A    between atoms: C_3  and  C_4
REMARK    4  A    between atoms: C_7  and  C_8
REMARK    5  A    between atoms: C_8  and  N_9
REMARK    6  A    between atoms: N_9  and  C_10
REMARK    7  A    between atoms: C_18  and  C_20
REMARK                            x       y       z     vdW  Elec       q    Type
REMARK                         _______ _______ _______ _____ _____    ______ ____
ROOT
ATOM      1  C   UNL     1      49.207   6.921  15.282  0.00  0.00    +0.000 C 
ENDROOT
BRANCH   1   2
ATOM      2  C   UNL     1      48.147   6.827  14.229  0.00  0.00    +0.000 A 
ATOM      3  C   UNL     1      47.771   7.963  13.501  0.00  0.00    +0.000 A 
ATOM      4  C   UNL     1      46.843   7.864  12.473  0.00  0.00    +0.000 A 
ATOM      5  C   UNL     1      46.280   6.617  12.153  0.00  0.00    +0.000 A 
ATOM      6  C   UNL     1      46.625   5.488  12.906  0.00  0.00    +0.000 A 
ATOM      7  C   UNL     1      47.547   5.593  13.942  0.00  0.00    +0.000 A 
BRANCH   5   8
ATOM      8  C   UNL     1      45.312   6.504  11.007  0.00  0.00    +0.000 C 
BRANCH   8   9
ATOM      9  N   UNL     1      44.240   5.567  11.338  0.00  0.00    +0.000 NA
ATOM     10  H   UNL     1      43.373   6.095  11.437  0.00  0.00    +0.000 HD
BRANCH   9  11
ATOM     11  C   UNL     1      44.061   4.517  10.324  0.00  0.00    +0.000 C 
ATOM     12  C   UNL     1      45.144   4.598   9.237  0.00  0.00    +0.000 C 
ATOM     13  C   UNL     1      45.074   3.400   8.299  0.00  0.00    +0.000 C 
ATOM     14  C   UNL     1      45.106   2.089   9.074  0.00  0.00    +0.000 C 
ATOM     15  N   UNL     1      44.012   2.023  10.044  0.00  0.00    +0.000 NA
ATOM     16  C   UNL     1      44.103   3.128  11.007  0.00  0.00    +0.000 C 
ATOM     17  H   UNL     1      44.070   1.139  10.549  0.00  0.00    +0.000 HD
ENDBRANCH   9  11
ENDBRANCH   8   9
ENDBRANCH   5   8
ENDBRANCH   1   2
BRANCH   1  19
ATOM     18  C   UNL     1      48.827   8.973  16.728  0.00  0.00    +0.000 C 
ATOM     19  N   UNL     1      48.856   7.524  16.567  0.00  0.00    +0.000 N 
ATOM     20  C   UNL     1      48.400   6.775  17.666  0.00  0.00    +0.000 C 
ATOM     21  O   UNL     1      48.005   7.331  18.689  0.00  0.00    +0.000 OA
BRANCH  20  22
ATOM     22  C   UNL     1      48.430   5.305  17.605  0.00  0.00    +0.000 A 
ATOM     23  C   UNL     1      47.338   4.502  17.314  0.00  0.00    +0.000 A 
ATOM     24  S   UNL     1      47.704   2.835  17.257  0.00  0.00    +0.000 S 
ATOM     25  C   UNL     1      49.362   3.143  17.459  0.00  0.00    +0.000 A 
ATOM     26  N   UNL     1      50.275   2.137  17.387  0.00  0.00    +0.000 NA
ATOM     27  C   UNL     1      51.500   2.526  17.492  0.00  0.00    +0.000 A 
ATOM     28  N   UNL     1      51.893   3.824  17.704  0.00  0.00    +0.000 N 
ATOM     29  C   UNL     1      51.002   4.851  17.923  0.00  0.00    +0.000 A 
ATOM     30  O   UNL     1      51.379   5.935  18.350  0.00  0.00    +0.000 OA
ATOM     31  C   UNL     1      49.617   4.484  17.681  0.00  0.00    +0.000 A 
ATOM     32  H   UNL     1      52.865   4.049  17.853  0.00  0.00    +0.000 HD
ENDBRANCH  20  22
ENDBRANCH   1  19
TORSDOF 6
ENDMDL
MODEL 6
REMARK VINA RESULT:    -6.797      3.354      8.278
REMARK INTER + INTRA:         -10.217
REMARK INTER:                  -9.081
REMARK INTRA:                  -1.136
REMARK UNBOUND:                -1.036
REMARK  Name = 
REMARK  7 active torsions:
REMARK  status: ('A' for Active; 'I' for Inactive)
REMARK    1  A    between atoms: C_1  and  N_2
REMARK    2  A    between atoms: N_2  and  C_3
REMARK    3  A    between atoms: C_3  and  C_4
REMARK    4  A    between atoms: C_7  and  C_8
REMARK    5  A    between atoms: C_8  and  N_9
REMARK    6  A    between atoms: N_9  and  C_10
REMARK    7  A    between atoms: C_18  and  C_20
REMARK                            x       y       z     vdW  Elec       q    Type
REMARK                         _______ _______ _______ _____ _____    ______ ____
ROOT
ATOM      1  C   UNL     1      49.939   7.706  15.238  0.00  0.00    +0.000 C 
ENDROOT
BRANCH   1   2
ATOM      2  C   UNL     1      49.043   7.301  14.110  0.00  0.00    +0.000 A 
ATOM      3  C   UNL     1      48.047   6.336  14.309  0.00  0.00    +0.000 A 
ATOM      4  C   UNL     1      47.166   6.014  13.285  0.00  0.00    +0.000 A 
ATOM      5  C   UNL     1      47.265   6.662  12.042  0.00  0.00    +0.000 A 
ATOM      6  C   UNL     1      48.285   7.598  11.830  0.00  0.00    +0.000 A 
ATOM      7  C   UNL     1      49.173   7.910  12.854  0.00  0.00    +0.000 A 
BRANCH   5   8
ATOM      8  C   UNL     1      46.278   6.346  10.952  0.00  0.00    +0.000 C 
BRANCH   8   9
ATOM      9  N   UNL     1      45.139   5.609  11.495  0.00  0.00    +0.000 NA
ATOM     10  H   UNL     1      44.422   6.281  11.767  0.00  0.00    +0.000 HD
BRANCH   9  11
ATOM     11  C   UNL     1      44.571   4.645  10.541  0.00  0.00    +0.000 C 
ATOM     12  C   UNL     1      45.348   4.644   9.216  0.00  0.00    +0.000 C 
ATOM     13  C   UNL     1      44.882   3.516   8.304  0.00  0.00    +0.000 C 
ATOM     14  C   UNL     1      44.927   2.173   9.020  0.00  0.00    +0.000 C 
ATOM     15  N   UNL     1      44.113   2.196  10.236  0.00  0.00    +0.000 NA
ATOM     16  C   UNL     1      44.591   3.228  11.165  0.00  0.00    +0.000 C 
ATOM     17  H   UNL     1      44.174   1.286  10.693  0.00  0.00    +0.000 HD
ENDBRANCH   9  11
ENDBRANCH   8   9
ENDBRANCH   5   8
ENDBRANCH   1   2
BRANCH   1  19
ATOM     18  C   UNL     1      48.332   9.006  16.712  0.00  0.00    +0.000 C 
ATOM     19  N   UNL     1      49.336   7.962  16.545  0.00  0.00    +0.000 N 
ATOM     20  C   UNL     1      49.570   7.151  17.669  0.00  0.00    +0.000 C 
ATOM     21  O   UNL     1      48.953   7.331  18.718  0.00  0.00    +0.000 OA
BRANCH  20  22
ATOM     22  C   UNL     1      50.594   6.095  17.603  0.00  0.00    +0.000 A 
ATOM     23  C   UNL     1      51.946   6.287  17.843  0.00  0.00    +0.000 A 
ATOM     24  S   UNL     1      52.872   4.856  17.750  0.00  0.00    +0.000 S 
ATOM     25  C   UNL     1      51.477   3.909  17.544  0.00  0.00    +0.000 A 
ATOM     26  N   UNL     1      51.551   2.551  17.512  0.00  0.00    +0.000 NA
ATOM     27  C   UNL     1      50.408   1.962  17.418  0.00  0.00    +0.000 A 
ATOM     28  N   UNL     1      49.201   2.607  17.312  0.00  0.00    +0.000 N 
ATOM     29  C   UNL     1      49.090   3.975  17.198  0.00  0.00    +0.000 A 
ATOM     30  O   UNL     1      48.035   4.499  16.860  0.00  0.00    +0.000 OA
ATOM     31  C   UNL     1      50.337   4.684  17.434  0.00  0.00    +0.000 A 
ATOM     32  H   UNL     1      48.351   2.086  17.164  0.00  0.00    +0.000 HD
ENDBRANCH  20  22
ENDBRANCH   1  19
TORSDOF 6
ENDMDL
MODEL 7
REMARK VINA RESULT:    -6.765      3.714      5.424
REMARK INTER + INTRA:         -10.174
REMARK INTER:                  -8.983
REMARK INTRA:                  -1.190
REMARK UNBOUND:                -1.036
REMARK  Name = 
REMARK  7 active torsions:
REMARK  status: ('A' for Active; 'I' for Inactive)
REMARK    1  A    between atoms: C_1  and  N_2
REMARK    2  A    between atoms: N_2  and  C_3
REMARK    3  A    between atoms: C_3  and  C_4
REMARK    4  A    between atoms: C_7  and  C_8
REMARK    5  A    between atoms: C_8  and  N_9
REMARK    6  A    between atoms: N_9  and  C_10
REMARK    7  A    between atoms: C_18  and  C_20
REMARK                            x       y       z     vdW  Elec       q    Type
REMARK                         _______ _______ _______ _____ _____    ______ ____
ROOT
ATOM      1  C   UNL     1      46.532   6.298  12.839  0.00  0.00    +0.000 C 
ENDROOT
BRANCH   1   2
ATOM      2  C   UNL     1      47.910   6.877  12.755  0.00  0.00    +0.000 A 
ATOM      3  C   UNL     1      48.413   7.329  11.528  0.00  0.00    +0.000 A 
ATOM      4  C   UNL     1      49.660   7.936  11.460  0.00  0.00    +0.000 A 
ATOM      5  C   UNL     1      50.423   8.107  12.627  0.00  0.00    +0.000 A 
ATOM      6  C   UNL     1      49.938   7.620  13.848  0.00  0.00    +0.000 A 
ATOM      7  C   UNL     1      48.694   7.004  13.911  0.00  0.00    +0.000 A 
BRANCH   5   8
ATOM      8  C   UNL     1      51.751   8.809  12.558  0.00  0.00    +0.000 C 
BRANCH   8   9
ATOM      9  N   UNL     1      52.827   7.842  12.347  0.00  0.00    +0.000 NA
ATOM     10  H   UNL     1      52.450   6.906  12.498  0.00  0.00    +0.000 HD
BRANCH   9  11
ATOM     11  C   UNL     1      53.417   7.922  11.002  0.00  0.00    +0.000 C 
ATOM     12  C   UNL     1      52.820   6.862  10.065  0.00  0.00    +0.000 C 
ATOM     13  C   UNL     1      53.286   7.069   8.630  0.00  0.00    +0.000 C 
ATOM     14  C   UNL     1      53.020   8.494   8.163  0.00  0.00    +0.000 C 
ATOM     15  N   UNL     1      53.670   9.468   9.040  0.00  0.00    +0.000 NA
ATOM     16  C   UNL     1      53.178   9.337  10.418  0.00  0.00    +0.000 C 
ATOM     17  H   UNL     1      53.462  10.408   8.704  0.00  0.00    +0.000 HD
ENDBRANCH   9  11
ENDBRANCH   8   9
ENDBRANCH   5   8
ENDBRANCH   1   2
BRANCH   1  19
ATOM     18  C   UNL     1      45.424   8.562  12.541  0.00  0.00    +0.000 C 
ATOM     19  N   UNL     1      45.408   7.113  12.382  0.00  0.00    +0.000 N 
ATOM     20  C   UNL     1      44.328   6.587  11.652  0.00  0.00    +0.000 C 
ATOM     21  O   UNL     1      43.462   7.325  11.186  0.00  0.00    +0.000 OA
BRANCH  20  22
ATOM     22  C   UNL     1      44.212   5.130  11.475  0.00  0.00    +0.000 A 
ATOM     23  C   UNL     1      43.466   4.290  12.287  0.00  0.00    +0.000 A 
ATOM     24  S   UNL     1      43.479   2.658  11.787  0.00  0.00    +0.000 S 
ATOM     25  C   UNL     1      44.348   3.045  10.381  0.00  0.00    +0.000 A 
ATOM     26  N   UNL     1      44.602   2.103   9.433  0.00  0.00    +0.000 NA
ATOM     27  C   UNL     1      45.211   2.554   8.389  0.00  0.00    +0.000 A 
ATOM     28  N   UNL     1      45.627   3.852   8.226  0.00  0.00    +0.000 N 
ATOM     29  C   UNL     1      45.519   4.804   9.215  0.00  0.00    +0.000 A 
ATOM     30  O   UNL     1      46.115   5.871   9.134  0.00  0.00    +0.000 OA
ATOM     31  C   UNL     1      44.720   4.377  10.352  0.00  0.00    +0.000 A 
ATOM     32  H   UNL     1      46.168   4.120   7.418  0.00  0.00    +0.000 HD
ENDBRANCH  20  22
ENDBRANCH   1  19
TORSDOF 6
ENDMDL
MODEL 8
REMARK VINA RESULT:    -6.510      3.896      8.658
REMARK INTER + INTRA:          -9.829
REMARK INTER:                  -9.463
REMARK INTRA:                  -0.366
REMARK UNBOUND:                -1.036
REMARK  Name = 
REMARK  7 active torsions:
REMARK  status: ('A' for Active; 'I' for Inactive)
REMARK    1  A    between atoms: C_1  and  N_2
REMARK    2  A    between atoms: N_2  and  C_3
REMARK    3  A    between atoms: C_3  and  C_4
REMARK    4  A    between atoms: C_7  and  C_8
REMARK    5  A    between atoms: C_8  and  N_9
REMARK    6  A    between atoms: N_9  and  C_10
REMARK    7  A    between atoms: C_18  and  C_20
REMARK                            x       y       z     vdW  Elec       q    Type
REMARK                         _______ _______ _______ _____ _____    ______ ____
ROOT
ATOM      1  C   UNL     1      47.837   5.910  14.538  0.00  0.00    +0.000 C 
ENDROOT
BRANCH   1   2
ATOM      2  C   UNL     1      46.792   5.172  13.761  0.00  0.00    +0.000 A 
ATOM      3  C   UNL     1      46.935   3.801  13.509  0.00  0.00    +0.000 A 
ATOM      4  C   UNL     1      45.933   3.098  12.855  0.00  0.00    +0.000 A 
ATOM      5  C   UNL     1      44.762   3.759  12.446  0.00  0.00    +0.000 A 
ATOM      6  C   UNL     1      44.636   5.138  12.661  0.00  0.00    +0.000 A 
ATOM      7  C   UNL     1      45.646   5.841  13.308  0.00  0.00    +0.000 A 
BRANCH   5   8
ATOM      8  C   UNL     1      43.658   2.985  11.781  0.00  0.00    +0.000 C 
BRANCH   8   9
ATOM      9  N   UNL     1      43.566   3.343  10.366  0.00  0.00    +0.000 NA
ATOM     10  H   UNL     1      43.224   4.302  10.300  0.00  0.00    +0.000 HD
BRANCH   9  11
ATOM     11  C   UNL     1      44.852   3.231   9.661  0.00  0.00    +0.000 C 
ATOM     12  C   UNL     1      45.005   1.858   8.990  0.00  0.00    +0.000 C 
ATOM     13  C   UNL     1      46.243   1.812   8.104  0.00  0.00    +0.000 C 
ATOM     14  C   UNL     1      46.253   2.966   7.109  0.00  0.00    +0.000 C 
ATOM     15  N   UNL     1      46.183   4.256   7.796  0.00  0.00    +0.000 NA
ATOM     16  C   UNL     1      44.957   4.353   8.598  0.00  0.00    +0.000 C 
ATOM     17  H   UNL     1      46.182   5.002   7.101  0.00  0.00    +0.000 HD
ENDBRANCH   9  11
ENDBRANCH   8   9
ENDBRANCH   5   8
ENDBRANCH   1   2
BRANCH   1  19
ATOM     18  C   UNL     1      47.369   4.386  16.514  0.00  0.00    +0.000 C 
ATOM     19  N   UNL     1      48.064   5.528  15.931  0.00  0.00    +0.000 N 
ATOM     20  C   UNL     1      49.044   6.129  16.740  0.00  0.00    +0.000 C 
ATOM     21  O   UNL     1      49.282   5.700  17.867  0.00  0.00    +0.000 OA
BRANCH  20  22
ATOM     22  C   UNL     1      49.769   7.311  16.246  0.00  0.00    +0.000 A 
ATOM     23  C   UNL     1      50.861   7.271  15.393  0.00  0.00    +0.000 A 
ATOM     24  S   UNL     1      51.446   8.812  14.949  0.00  0.00    +0.000 S 
ATOM     25  C   UNL     1      50.162   9.583  15.750  0.00  0.00    +0.000 A 
ATOM     26  N   UNL     1      49.994  10.931  15.669  0.00  0.00    +0.000 NA
ATOM     27  C   UNL     1      48.941  11.370  16.270  0.00  0.00    +0.000 A 
ATOM     28  N   UNL     1      48.064  10.589  16.982  0.00  0.00    +0.000 N 
ATOM     29  C   UNL     1      48.270   9.247  17.210  0.00  0.00    +0.000 A 
ATOM     30  O   UNL     1      47.611   8.638  18.044  0.00  0.00    +0.000 OA
ATOM     31  C   UNL     1      49.368   8.685  16.441  0.00  0.00    +0.000 A 
ATOM     32  H   UNL     1      47.302  11.007  17.493  0.00  0.00    +0.000 HD
ENDBRANCH  20  22
ENDBRANCH   1  19
TORSDOF 6
ENDMDL
MODEL 9
REMARK VINA RESULT:    -6.303      3.717      7.967
REMARK INTER + INTRA:          -9.550
REMARK INTER:                  -7.929
REMARK INTRA:                  -1.621
REMARK UNBOUND:                -1.036
REMARK  Name = 
REMARK  7 active torsions:
REMARK  status: ('A' for Active; 'I' for Inactive)
REMARK    1  A    between atoms: C_1  and  N_2
REMARK    2  A    between atoms: N_2  and  C_3
REMARK    3  A    between atoms: C_3  and  C_4
REMARK    4  A    between atoms: C_7  and  C_8
REMARK    5  A    between atoms: C_8  and  N_9
REMARK    6  A    between atoms: N_9  and  C_10
REMARK    7  A    between atoms: C_18  and  C_20
REMARK                            x       y       z     vdW  Elec       q    Type
REMARK                         _______ _______ _______ _____ _____    ______ ____
ROOT
ATOM      1  C   UNL     1      50.863   7.652  18.147  0.00  0.00    +0.000 C 
ENDROOT
BRANCH   1   2
ATOM      2  C   UNL     1      50.026   7.826  16.919  0.00  0.00    +0.000 A 
ATOM      3  C   UNL     1      50.144   6.929  15.849  0.00  0.00    +0.000 A 
ATOM      4  C   UNL     1      49.316   7.043  14.741  0.00  0.00    +0.000 A 
ATOM      5  C   UNL     1      48.346   8.059  14.690  0.00  0.00    +0.000 A 
ATOM      6  C   UNL     1      48.254   8.981  15.741  0.00  0.00    +0.000 A 
ATOM      7  C   UNL     1      49.092   8.870  16.845  0.00  0.00    +0.000 A 
BRANCH   5   8
ATOM      8  C   UNL     1      47.418   8.150  13.510  0.00  0.00    +0.000 C 
BRANCH   8   9
ATOM      9  N   UNL     1      47.537   6.955  12.676  0.00  0.00    +0.000 NA
ATOM     10  H   UNL     1      48.309   6.392  13.032  0.00  0.00    +0.000 HD
BRANCH   9  11
ATOM     11  C   UNL     1      46.310   6.146  12.653  0.00  0.00    +0.000 C 
ATOM     12  C   UNL     1      45.836   5.887  11.215  0.00  0.00    +0.000 C 
ATOM     13  C   UNL     1      44.682   4.893  11.184  0.00  0.00    +0.000 C 
ATOM     14  C   UNL     1      45.034   3.615  11.934  0.00  0.00    +0.000 C 
ATOM     15  N   UNL     1      45.405   3.901  13.320  0.00  0.00    +0.000 NA
ATOM     16  C   UNL     1      46.566   4.799  13.374  0.00  0.00    +0.000 C 
ATOM     17  H   UNL     1      45.643   3.026  13.787  0.00  0.00    +0.000 HD
ENDBRANCH   9  11
ENDBRANCH   8   9
ENDBRANCH   5   8
ENDBRANCH   1   2
BRANCH   1  19
ATOM     18  C   UNL     1      49.648   8.281  20.286  0.00  0.00    +0.000 C 
ATOM     19  N   UNL     1      50.198   7.269  19.392  0.00  0.00    +0.000 N 
ATOM     20  C   UNL     1      49.925   5.933  19.735  0.00  0.00    +0.000 C 
ATOM     21  O   UNL     1      49.261   5.660  20.733  0.00  0.00    +0.000 OA
BRANCH  20  22
ATOM     22  C   UNL     1      50.473   4.845  18.909  0.00  0.00    +0.000 A 
ATOM     23  C   UNL     1      51.758   4.337  19.019  0.00  0.00    +0.000 A 
ATOM     24  S   UNL     1      52.078   3.034  17.963  0.00  0.00    +0.000 S 
ATOM     25  C   UNL     1      50.463   3.000  17.438  0.00  0.00    +0.000 A 
ATOM     26  N   UNL     1      50.020   2.028  16.596  0.00  0.00    +0.000 NA
ATOM     27  C   UNL     1      48.758   2.088  16.337  0.00  0.00    +0.000 A 
ATOM     28  N   UNL     1      47.907   3.056  16.809  0.00  0.00    +0.000 N 
ATOM     29  C   UNL     1      48.337   4.137  17.546  0.00  0.00    +0.000 A 
ATOM     30  O   UNL     1      47.607   5.102  17.740  0.00  0.00    +0.000 OA
ATOM     31  C   UNL     1      49.722   4.039  17.974  0.00  0.00    +0.000 A 
ATOM     32  H   UNL     1      46.946   3.089  16.504  0.00  0.00    +0.000 HD
ENDBRANCH  20  22
ENDBRANCH   1  19
TORSDOF 6
ENDMDL
