MODEL 1
REMARK VINA RESULT:    -7.204      0.000      0.000
REMARK INTER + INTRA:         -10.856
REMARK INTER:                 -10.151
REMARK INTRA:                  -0.705
REMARK UNBOUND:                -0.705
REMARK  Name = 
REMARK  9 active torsions:
REMARK  status: ('A' for Active; 'I' for Inactive)
REMARK    1  A    between atoms: C_1  and  N_2
REMARK    2  A    between atoms: N_2  and  C_3
REMARK    3  A    between atoms: N_2  and  C_4
REMARK    4  A    between atoms: C_4  and  C_5
REMARK    5  A    between atoms: C_4  and  C_18
REMARK    6  A    between atoms: C_5  and  O_6
REMARK    7  A    between atoms: O_6  and  C_7
REMARK    8  A    between atoms: C_11  and  O_12
REMARK    9  A    between atoms: O_12  and  C_13
REMARK                            x       y       z     vdW  Elec       q    Type
REMARK                         _______ _______ _______ _____ _____    ______ ____
ROOT
ATOM      1  O   UNL     1      45.245   6.343  11.040  0.00  0.00    +0.000 OA
ENDROOT
BRANCH   1   2
ATOM      2  C   UNL     1      45.051   5.154  10.401  0.00  0.00    +0.000 A 
ATOM      3  C   UNL     1      44.302   4.089  10.882  0.00  0.00    +0.000 A 
ATOM      4  C   UNL     1      44.162   2.935  10.106  0.00  0.00    +0.000 A 
ATOM      5  C   UNL     1      44.783   2.848   8.855  0.00  0.00    +0.000 A 
ATOM      6  C   UNL     1      45.557   3.904   8.385  0.00  0.00    +0.000 A 
ATOM      7  C   UNL     1      45.687   5.055   9.160  0.00  0.00    +0.000 A 
BRANCH   6   8
ATOM      8  O   UNL     1      46.196   3.930   7.172  0.00  0.00    +0.000 OA
BRANCH   8   9
ATOM      9  C   UNL     1      46.583   2.676   6.566  0.00  0.00    +0.000 C 
ATOM     10  C   UNL     1      47.931   2.059   6.996  0.00  0.00    +0.000 C 
ATOM     11  N   UNL     1      48.316   1.894   5.585  0.00  0.00    +0.000 NA
ATOM     12  C   UNL     1      47.228   2.796   5.171  0.00  0.00    +0.000 C 
ATOM     13  H   UNL     1      48.219   0.941   5.236  0.00  0.00    +0.000 HD
ENDBRANCH   8   9
ENDBRANCH   6   8
ENDBRANCH   1   2
BRANCH   1  14
ATOM     14  C   UNL     1      45.715   6.327  12.388  0.00  0.00    +0.000 C 
BRANCH  14  15
ATOM     15  C   UNL     1      47.264   6.132  12.416  0.00  0.00    +0.000 C 
BRANCH  15  16
ATOM     16  C   UNL     1      48.061   7.420  12.125  0.00  0.00    +0.000 A 
ATOM     17  C   UNL     1      49.421   7.413  11.764  0.00  0.00    +0.000 A 
ATOM     18  C   UNL     1      50.101   8.592  11.454  0.00  0.00    +0.000 A 
ATOM     19  C   UNL     1      49.437   9.812  11.517  0.00  0.00    +0.000 A 
ATOM     20  C   UNL     1      48.101   9.846  11.904  0.00  0.00    +0.000 A 
ATOM     21 CL   UNL     1      47.288  11.360  11.999  0.00  0.00    +0.000 Cl
ATOM     22  C   UNL     1      47.415   8.667  12.209  0.00  0.00    +0.000 A 
ENDBRANCH  15  16
BRANCH  15  24
ATOM     23  C   UNL     1      48.108   6.246  14.747  0.00  0.00    +0.000 C 
ATOM     24  N   UNL     1      47.812   5.393  13.594  0.00  0.00    +0.000 NA
ATOM     25  C   UNL     1      46.949   4.287  14.012  0.00  0.00    +0.000 C 
ENDBRANCH  15  24
ENDBRANCH  14  15
ENDBRANCH   1  14
TORSDOF 7
ENDMDL
MODEL 2
REMARK VINA RESULT:    -6.797      3.421      7.221
REMARK INTER + INTRA:         -10.283
REMARK INTER:                  -9.594
REMARK INTRA:                  -0.689
REMARK UNBOUND:                -0.705
REMARK  Name = 
REMARK  9 active torsions:
REMARK  status: ('A' for Active; 'I' for Inactive)
REMARK    1  A    between atoms: C_1  and  N_2
REMARK    2  A    between atoms: N_2  and  C_3
REMARK    3  A    between atoms: N_2  and  C_4
REMARK    4  A    between atoms: C_4  and  C_5
REMARK    5  A    between atoms: C_4  and  C_18
REMARK    6  A    between atoms: C_5  and  O_6
REMARK    7  A    between atoms: O_6  and  C_7
REMARK    8  A    between atoms: C_11  and  O_12
REMARK    9  A    between atoms: O_12  and  C_13
REMARK                            x       y       z     vdW  Elec       q    Type
REMARK                         _______ _______ _______ _____ _____    ______ ____
ROOT
ATOM      1  O   UNL     1      44.438   6.143  10.992  0.00  0.00    +0.000 OA
ENDROOT
BRANCH   1   2
ATOM      2  C   UNL     1      44.731   7.427  11.344  0.00  0.00    +0.000 A 
ATOM      3  C   UNL     1      43.953   8.542  11.062  0.00  0.00    +0.000 A 
ATOM      4  C   UNL     1      44.361   9.801  11.511  0.00  0.00    +0.000 A 
ATOM      5  C   UNL     1      45.551   9.941  12.233  0.00  0.00    +0.000 A 
ATOM      6  C   UNL     1      46.345   8.828  12.491  0.00  0.00    +0.000 A 
ATOM      7  C   UNL     1      45.930   7.573  12.047  0.00  0.00    +0.000 A 
BRANCH   6   8
ATOM      8  O   UNL     1      47.519   8.849  13.198  0.00  0.00    +0.000 OA
BRANCH   8   9
ATOM      9  C   UNL     1      48.101   7.592  13.613  0.00  0.00    +0.000 C 
ATOM     10  C   UNL     1      48.677   7.508  15.042  0.00  0.00    +0.000 C 
ATOM     11  N   UNL     1      49.933   6.950  14.513  0.00  0.00    +0.000 NA
ATOM     12  C   UNL     1      49.553   7.360  13.151  0.00  0.00    +0.000 C 
ATOM     13  H   UNL     1      50.023   5.941  14.632  0.00  0.00    +0.000 HD
ENDBRANCH   8   9
ENDBRANCH   6   8
ENDBRANCH   1   2
BRANCH   1  14
ATOM     14  C   UNL     1      45.430   5.378  10.306  0.00  0.00    +0.000 C 
BRANCH  14  15
ATOM     15  C   UNL     1      44.864   3.969   9.938  0.00  0.00    +0.000 C 
BRANCH  15  16
ATOM     16  C   UNL     1      45.580   3.300   8.748  0.00  0.00    +0.000 A 
ATOM     17  C   UNL     1      46.089   4.025   7.654  0.00  0.00    +0.000 A 
ATOM     18  C   UNL     1      46.780   3.396   6.617  0.00  0.00    +0.000 A 
ATOM     19  C   UNL     1      46.963   2.018   6.642  0.00  0.00    +0.000 A 
ATOM     20  C   UNL     1      46.440   1.276   7.697  0.00  0.00    +0.000 A 
ATOM     21 CL   UNL     1      46.652  -0.432   7.714  0.00  0.00    +0.000 Cl
ATOM     22  C   UNL     1      45.752   1.903   8.740  0.00  0.00    +0.000 A 
ENDBRANCH  15  16
BRANCH  15  24
ATOM     23  C   UNL     1      45.482   3.336  12.257  0.00  0.00    +0.000 C 
ATOM     24  N   UNL     1      44.672   3.021  11.077  0.00  0.00    +0.000 NA
ATOM     25  C   UNL     1      43.268   2.890  11.468  0.00  0.00    +0.000 C 
ENDBRANCH  15  24
ENDBRANCH  14  15
ENDBRANCH   1  14
TORSDOF 7
ENDMDL
MODEL 3
REMARK VINA RESULT:    -6.589      3.286      7.562
REMARK INTER + INTRA:          -9.991
REMARK INTER:                  -9.725
REMARK INTRA:                  -0.265
REMARK UNBOUND:                -0.705
REMARK  Name = 
REMARK  9 active torsions:
REMARK  status: ('A' for Active; 'I' for Inactive)
REMARK    1  A    between atoms: C_1  and  N_2
REMARK    2  A    between atoms: N_2  and  C_3
REMARK    3  A    between atoms: N_2  and  C_4
REMARK    4  A    between atoms: C_4  and  C_5
REMARK    5  A    between atoms: C_4  and  C_18
REMARK    6  A    between atoms: C_5  and  O_6
REMARK    7  A    between atoms: O_6  and  C_7
REMARK    8  A    between atoms: C_11  and  O_12
REMARK    9  A    between atoms: O_12  and  C_13
REMARK                            x       y       z     vdW  Elec       q    Type
REMARK                         _______ _______ _______ _____ _____    ______ ____
ROOT
ATOM      1  O   UNL     1      46.236   5.394  11.847  0.00  0.00    +0.000 OA
ENDROOT
BRANCH   1   2
ATOM      2  C   UNL     1      47.160   6.068  12.589  0.00  0.00    +0.000 A 
ATOM      3  C   UNL     1      47.823   7.225  12.201  0.00  0.00    +0.000 A 
ATOM      4  C   UNL     1      48.728   7.831  13.077  0.00  0.00    +0.000 A 
ATOM      5  C   UNL     1      48.972   7.271  14.336  0.00  0.00    +0.000 A 
ATOM      6  C   UNL     1      48.329   6.097  14.715  0.00  0.00    +0.000 A 
ATOM      7  C   UNL     1      47.422   5.500  13.839  0.00  0.00    +0.000 A 
BRANCH   6   8
ATOM      8  O   UNL     1      48.483   5.473  15.925  0.00  0.00    +0.000 OA
BRANCH   8   9
ATOM      9  C   UNL     1      47.427   4.608  16.399  0.00  0.00    +0.000 C 
ATOM     10  C   UNL     1      47.093   4.645  17.905  0.00  0.00    +0.000 C 
ATOM     11  N   UNL     1      47.177   3.176  17.969  0.00  0.00    +0.000 NA
ATOM     12  C   UNL     1      47.845   3.146  16.657  0.00  0.00    +0.000 C 
ATOM     13  H   UNL     1      46.272   2.707  17.983  0.00  0.00    +0.000 HD
ENDBRANCH   8   9
ENDBRANCH   6   8
ENDBRANCH   1   2
BRANCH   1  14
ATOM     14  C   UNL     1      45.262   6.144  11.120  0.00  0.00    +0.000 C 
BRANCH  14  15
ATOM     15  C   UNL     1      44.165   5.191  10.548  0.00  0.00    +0.000 C 
BRANCH  15  16
ATOM     16  C   UNL     1      44.724   4.042   9.685  0.00  0.00    +0.000 A 
ATOM     17  C   UNL     1      44.487   2.684   9.970  0.00  0.00    +0.000 A 
ATOM     18  C   UNL     1      44.961   1.669   9.138  0.00  0.00    +0.000 A 
ATOM     19  C   UNL     1      45.702   1.989   8.006  0.00  0.00    +0.000 A 
ATOM     20  C   UNL     1      45.976   3.324   7.721  0.00  0.00    +0.000 A 
ATOM     21 CL   UNL     1      46.909   3.715   6.329  0.00  0.00    +0.000 Cl
ATOM     22  C   UNL     1      45.498   4.344   8.549  0.00  0.00    +0.000 A 
ENDBRANCH  15  16
BRANCH  15  24
ATOM     23  C   UNL     1      43.704   4.254  12.800  0.00  0.00    +0.000 C 
ATOM     24  N   UNL     1      43.142   4.707  11.524  0.00  0.00    +0.000 NA
ATOM     25  C   UNL     1      42.094   5.697  11.776  0.00  0.00    +0.000 C 
ENDBRANCH  15  24
ENDBRANCH  14  15
ENDBRANCH   1  14
TORSDOF 7
ENDMDL
MODEL 4
REMARK VINA RESULT:    -6.534      3.413      7.490
REMARK INTER + INTRA:          -9.912
REMARK INTER:                  -9.347
REMARK INTRA:                  -0.565
REMARK UNBOUND:                -0.705
REMARK  Name = 
REMARK  9 active torsions:
REMARK  status: ('A' for Active; 'I' for Inactive)
REMARK    1  A    between atoms: C_1  and  N_2
REMARK    2  A    between atoms: N_2  and  C_3
REMARK    3  A    between atoms: N_2  and  C_4
REMARK    4  A    between atoms: C_4  and  C_5
REMARK    5  A    between atoms: C_4  and  C_18
REMARK    6  A    between atoms: C_5  and  O_6
REMARK    7  A    between atoms: O_6  and  C_7
REMARK    8  A    between atoms: C_11  and  O_12
REMARK    9  A    between atoms: O_12  and  C_13
REMARK                            x       y       z     vdW  Elec       q    Type
REMARK                         _______ _______ _______ _____ _____    ______ ____
ROOT
ATOM      1  O   UNL     1      46.252   6.344  11.651  0.00  0.00    +0.000 OA
ENDROOT
BRANCH   1   2
ATOM      2  C   UNL     1      47.331   6.704  12.404  0.00  0.00    +0.000 A 
ATOM      3  C   UNL     1      48.218   7.730  12.109  0.00  0.00    +0.000 A 
ATOM      4  C   UNL     1      49.268   8.011  12.988  0.00  0.00    +0.000 A 
ATOM      5  C   UNL     1      49.431   7.257  14.155  0.00  0.00    +0.000 A 
ATOM      6  C   UNL     1      48.559   6.210  14.437  0.00  0.00    +0.000 A 
ATOM      7  C   UNL     1      47.510   5.939  13.560  0.00  0.00    +0.000 A 
BRANCH   6   8
ATOM      8  O   UNL     1      48.619   5.419  15.555  0.00  0.00    +0.000 OA
BRANCH   8   9
ATOM      9  C   UNL     1      47.451   4.652  15.924  0.00  0.00    +0.000 C 
ATOM     10  C   UNL     1      47.041   4.646  17.412  0.00  0.00    +0.000 C 
ATOM     11  N   UNL     1      46.962   3.175  17.393  0.00  0.00    +0.000 NA
ATOM     12  C   UNL     1      47.693   3.142  16.115  0.00  0.00    +0.000 C 
ATOM     13  H   UNL     1      46.012   2.810  17.336  0.00  0.00    +0.000 HD
ENDBRANCH   8   9
ENDBRANCH   6   8
ENDBRANCH   1   2
BRANCH   1  14
ATOM     14  C   UNL     1      45.686   5.047  11.843  0.00  0.00    +0.000 C 
BRANCH  14  15
ATOM     15  C   UNL     1      44.683   4.721  10.692  0.00  0.00    +0.000 C 
BRANCH  15  16
ATOM     16  C   UNL     1      45.339   4.075   9.455  0.00  0.00    +0.000 A 
ATOM     17  C   UNL     1      45.939   4.825   8.427  0.00  0.00    +0.000 A 
ATOM     18  C   UNL     1      46.573   4.209   7.346  0.00  0.00    +0.000 A 
ATOM     19  C   UNL     1      46.605   2.821   7.261  0.00  0.00    +0.000 A 
ATOM     20  C   UNL     1      45.991   2.059   8.250  0.00  0.00    +0.000 A 
ATOM     21 CL   UNL     1      46.017   0.343   8.131  0.00  0.00    +0.000 Cl
ATOM     22  C   UNL     1      45.360   2.673   9.337  0.00  0.00    +0.000 A 
ENDBRANCH  15  16
BRANCH  15  24
ATOM     23  C   UNL     1      43.633   2.977  12.111  0.00  0.00    +0.000 C 
ATOM     24  N   UNL     1      43.431   4.011  11.093  0.00  0.00    +0.000 NA
ATOM     25  C   UNL     1      42.380   4.930  11.532  0.00  0.00    +0.000 C 
ENDBRANCH  15  24
ENDBRANCH  14  15
ENDBRANCH   1  14
TORSDOF 7
ENDMDL
MODEL 5
REMARK VINA RESULT:    -6.435      1.566      2.208
REMARK INTER + INTRA:          -9.774
REMARK INTER:                  -9.316
REMARK INTRA:                  -0.458
REMARK UNBOUND:                -0.705
REMARK  Name = 
REMARK  9 active torsions:
REMARK  status: ('A' for Active; 'I' for Inactive)
REMARK    1  A    between atoms: C_1  and  N_2
REMARK    2  A    between atoms: N_2  and  C_3
REMARK    3  A    between atoms: N_2  and  C_4
REMARK    4  A    between atoms: C_4  and  C_5
REMARK    5  A    between atoms: C_4  and  C_18
REMARK    6  A    between atoms: C_5  and  O_6
REMARK    7  A    between atoms: O_6  and  C_7
REMARK    8  A    between atoms: C_11  and  O_12
REMARK    9  A    between atoms: O_12  and  C_13
REMARK                            x       y       z     vdW  Elec       q    Type
REMARK                         _______ _______ _______ _____ _____    ______ ____
ROOT
ATOM      1  O   UNL     1      46.015   6.127  10.559  0.00  0.00    +0.000 OA
ENDROOT
BRANCH   1   2
ATOM      2  C   UNL     1      45.470   4.954  10.127  0.00  0.00    +0.000 A 
ATOM      3  C   UNL     1      44.649   4.119  10.874  0.00  0.00    +0.000 A 
ATOM      4  C   UNL     1      44.133   2.957  10.294  0.00  0.00    +0.000 A 
ATOM      5  C   UNL     1      44.450   2.629   8.972  0.00  0.00    +0.000 A 
ATOM      6  C   UNL     1      45.296   3.450   8.232  0.00  0.00    +0.000 A 
ATOM      7  C   UNL     1      45.801   4.612   8.813  0.00  0.00    +0.000 A 
BRANCH   6   8
ATOM      8  O   UNL     1      45.660   3.231   6.929  0.00  0.00    +0.000 OA
BRANCH   8   9
ATOM      9  C   UNL     1      47.065   3.127   6.610  0.00  0.00    +0.000 C 
ATOM     10  C   UNL     1      47.444   2.688   5.180  0.00  0.00    +0.000 C 
ATOM     11  N   UNL     1      48.353   1.665   5.724  0.00  0.00    +0.000 NA
ATOM     12  C   UNL     1      47.741   1.814   7.055  0.00  0.00    +0.000 C 
ATOM     13  H   UNL     1      49.339   1.925   5.691  0.00  0.00    +0.000 HD
ENDBRANCH   8   9
ENDBRANCH   6   8
ENDBRANCH   1   2
BRANCH   1  14
ATOM     14  C   UNL     1      45.969   6.431  11.953  0.00  0.00    +0.000 C 
BRANCH  14  15
ATOM     15  C   UNL     1      47.062   7.488  12.311  0.00  0.00    +0.000 C 
BRANCH  15  16
ATOM     16  C   UNL     1      46.617   8.947  12.087  0.00  0.00    +0.000 A 
ATOM     17  C   UNL     1      47.526  10.012  11.944  0.00  0.00    +0.000 A 
ATOM     18  C   UNL     1      47.094  11.314  11.689  0.00  0.00    +0.000 A 
ATOM     19  C   UNL     1      45.734  11.585  11.588  0.00  0.00    +0.000 A 
ATOM     20  C   UNL     1      44.815  10.554  11.758  0.00  0.00    +0.000 A 
ATOM     21 CL   UNL     1      43.132  10.898  11.652  0.00  0.00    +0.000 Cl
ATOM     22  C   UNL     1      45.245   9.247  12.009  0.00  0.00    +0.000 A 
ENDBRANCH  15  16
BRANCH  15  24
ATOM     23  C   UNL     1      47.539   5.988  14.230  0.00  0.00    +0.000 C 
ATOM     24  N   UNL     1      47.742   7.309  13.629  0.00  0.00    +0.000 NA
ATOM     25  C   UNL     1      49.175   7.602  13.565  0.00  0.00    +0.000 C 
ENDBRANCH  15  24
ENDBRANCH  14  15
ENDBRANCH   1  14
TORSDOF 7
ENDMDL
MODEL 6
REMARK VINA RESULT:    -6.337      3.073      4.851
REMARK INTER + INTRA:          -9.635
REMARK INTER:                  -9.225
REMARK INTRA:                  -0.411
REMARK UNBOUND:                -0.705
REMARK  Name = 
REMARK  9 active torsions:
REMARK  status: ('A' for Active; 'I' for Inactive)
REMARK    1  A    between atoms: C_1  and  N_2
REMARK    2  A    between atoms: N_2  and  C_3
REMARK    3  A    between atoms: N_2  and  C_4
REMARK    4  A    between atoms: C_4  and  C_5
REMARK    5  A    between atoms: C_4  and  C_18
REMARK    6  A    between atoms: C_5  and  O_6
REMARK    7  A    between atoms: O_6  and  C_7
REMARK    8  A    between atoms: C_11  and  O_12
REMARK    9  A    between atoms: O_12  and  C_13
REMARK                            x       y       z     vdW  Elec       q    Type
REMARK                         _______ _______ _______ _____ _____    ______ ____
ROOT
ATOM      1  O   UNL     1      45.469   4.541  14.028  0.00  0.00    +0.000 OA
ENDROOT
BRANCH   1   2
ATOM      2  C   UNL     1      44.669   4.723  12.939  0.00  0.00    +0.000 A 
ATOM      3  C   UNL     1      43.297   4.937  12.968  0.00  0.00    +0.000 A 
ATOM      4  C   UNL     1      42.603   5.138  11.772  0.00  0.00    +0.000 A 
ATOM      5  C   UNL     1      43.283   5.113  10.549  0.00  0.00    +0.000 A 
ATOM      6  C   UNL     1      44.653   4.871  10.518  0.00  0.00    +0.000 A 
ATOM      7  C   UNL     1      45.342   4.678  11.714  0.00  0.00    +0.000 A 
BRANCH   6   8
ATOM      8  O   UNL     1      45.418   4.839   9.381  0.00  0.00    +0.000 OA
BRANCH   8   9
ATOM      9  C   UNL     1      45.200   3.774   8.428  0.00  0.00    +0.000 C 
ATOM     10  C   UNL     1      45.479   2.329   8.893  0.00  0.00    +0.000 C 
ATOM     11  N   UNL     1      46.303   2.093   7.696  0.00  0.00    +0.000 NA
ATOM     12  C   UNL     1      46.352   3.541   7.432  0.00  0.00    +0.000 C 
ATOM     13  H   UNL     1      45.834   1.556   6.967  0.00  0.00    +0.000 HD
ENDBRANCH   8   9
ENDBRANCH   6   8
ENDBRANCH   1   2
BRANCH   1  14
ATOM     14  C   UNL     1      46.885   4.568  13.849  0.00  0.00    +0.000 C 
BRANCH  14  15
ATOM     15  C   UNL     1      47.543   5.521  14.898  0.00  0.00    +0.000 C 
BRANCH  15  16
ATOM     16  C   UNL     1      47.958   4.820  16.206  0.00  0.00    +0.000 A 
ATOM     17  C   UNL     1      47.329   3.655  16.683  0.00  0.00    +0.000 A 
ATOM     18  C   UNL     1      47.763   3.011  17.843  0.00  0.00    +0.000 A 
ATOM     19  C   UNL     1      48.830   3.533  18.567  0.00  0.00    +0.000 A 
ATOM     20  C   UNL     1      49.446   4.702  18.132  0.00  0.00    +0.000 A 
ATOM     21 CL   UNL     1      50.755   5.354  19.040  0.00  0.00    +0.000 Cl
ATOM     22  C   UNL     1      49.018   5.346  16.967  0.00  0.00    +0.000 A 
ENDBRANCH  15  16
BRANCH  15  24
ATOM     23  C   UNL     1      48.714   6.460  12.921  0.00  0.00    +0.000 C 
ATOM     24  N   UNL     1      48.619   6.422  14.383  0.00  0.00    +0.000 NA
ATOM     25  C   UNL     1      48.504   7.786  14.902  0.00  0.00    +0.000 C 
ENDBRANCH  15  24
ENDBRANCH  14  15
ENDBRANCH   1  14
TORSDOF 7
ENDMDL
MODEL 7
REMARK VINA RESULT:    -6.247      4.405      6.745
REMARK INTER + INTRA:          -9.508
REMARK INTER:                  -8.610
REMARK INTRA:                  -0.898
REMARK UNBOUND:                -0.705
REMARK  Name = 
REMARK  9 active torsions:
REMARK  status: ('A' for Active; 'I' for Inactive)
REMARK    1  A    between atoms: C_1  and  N_2
REMARK    2  A    between atoms: N_2  and  C_3
REMARK    3  A    between atoms: N_2  and  C_4
REMARK    4  A    between atoms: C_4  and  C_5
REMARK    5  A    between atoms: C_4  and  C_18
REMARK    6  A    between atoms: C_5  and  O_6
REMARK    7  A    between atoms: O_6  and  C_7
REMARK    8  A    between atoms: C_11  and  O_12
REMARK    9  A    between atoms: O_12  and  C_13
REMARK                            x       y       z     vdW  Elec       q    Type
REMARK                         _______ _______ _______ _____ _____    ______ ____
ROOT
ATOM      1  O   UNL     1      49.112   6.153  15.007  0.00  0.00    +0.000 OA
ENDROOT
BRANCH   1   2
ATOM      2  C   UNL     1      48.316   6.345  13.917  0.00  0.00    +0.000 A 
ATOM      3  C   UNL     1      48.623   7.139  12.820  0.00  0.00    +0.000 A 
ATOM      4  C   UNL     1      47.724   7.223  11.753  0.00  0.00    +0.000 A 
ATOM      5  C   UNL     1      46.515   6.519  11.793  0.00  0.00    +0.000 A 
ATOM      6  C   UNL     1      46.195   5.746  12.905  0.00  0.00    +0.000 A 
ATOM      7  C   UNL     1      47.098   5.660  13.963  0.00  0.00    +0.000 A 
BRANCH   6   8
ATOM      8  O   UNL     1      45.048   5.007  13.043  0.00  0.00    +0.000 OA
BRANCH   8   9
ATOM      9  C   UNL     1      44.677   4.099  11.982  0.00  0.00    +0.000 C 
ATOM     10  C   UNL     1      43.488   4.496  11.082  0.00  0.00    +0.000 C 
ATOM     11  N   UNL     1      42.878   3.171  11.287  0.00  0.00    +0.000 NA
ATOM     12  C   UNL     1      43.790   2.915  12.415  0.00  0.00    +0.000 C 
ATOM     13  H   UNL     1      43.000   2.531  10.503  0.00  0.00    +0.000 HD
ENDBRANCH   8   9
ENDBRANCH   6   8
ENDBRANCH   1   2
BRANCH   1  14
ATOM     14  C   UNL     1      48.875   6.941  16.175  0.00  0.00    +0.000 C 
BRANCH  14  15
ATOM     15  C   UNL     1      48.485   6.020  17.375  0.00  0.00    +0.000 C 
BRANCH  15  16
ATOM     16  C   UNL     1      49.100   4.608  17.305  0.00  0.00    +0.000 A 
ATOM     17  C   UNL     1      48.376   3.478  16.880  0.00  0.00    +0.000 A 
ATOM     18  C   UNL     1      48.975   2.222  16.776  0.00  0.00    +0.000 A 
ATOM     19  C   UNL     1      50.315   2.064  17.113  0.00  0.00    +0.000 A 
ATOM     20  C   UNL     1      51.042   3.160  17.566  0.00  0.00    +0.000 A 
ATOM     21 CL   UNL     1      52.695   2.955  18.000  0.00  0.00    +0.000 Cl
ATOM     22  C   UNL     1      50.446   4.421  17.666  0.00  0.00    +0.000 A 
ENDBRANCH  15  16
BRANCH  15  24
ATOM     23  C   UNL     1      48.653   8.087  18.739  0.00  0.00    +0.000 C 
ATOM     24  N   UNL     1      48.625   6.621  18.736  0.00  0.00    +0.000 NA
ATOM     25  C   UNL     1      47.599   6.149  19.666  0.00  0.00    +0.000 C 
ENDBRANCH  15  24
ENDBRANCH  14  15
ENDBRANCH   1  14
TORSDOF 7
ENDMDL
MODEL 8
REMARK VINA RESULT:    -5.989      3.652      7.295
REMARK INTER + INTRA:          -9.145
REMARK INTER:                  -8.773
REMARK INTRA:                  -0.372
REMARK UNBOUND:                -0.705
REMARK  Name = 
REMARK  9 active torsions:
REMARK  status: ('A' for Active; 'I' for Inactive)
REMARK    1  A    between atoms: C_1  and  N_2
REMARK    2  A    between atoms: N_2  and  C_3
REMARK    3  A    between atoms: N_2  and  C_4
REMARK    4  A    between atoms: C_4  and  C_5
REMARK    5  A    between atoms: C_4  and  C_18
REMARK    6  A    between atoms: C_5  and  O_6
REMARK    7  A    between atoms: O_6  and  C_7
REMARK    8  A    between atoms: C_11  and  O_12
REMARK    9  A    between atoms: O_12  and  C_13
REMARK                            x       y       z     vdW  Elec       q    Type
REMARK                         _______ _______ _______ _____ _____    ______ ____
ROOT
ATOM      1  O   UNL     1      45.411   4.022  13.242  0.00  0.00    +0.000 OA
ENDROOT
BRANCH   1   2
ATOM      2  C   UNL     1      46.364   4.726  13.916  0.00  0.00    +0.000 A 
ATOM      3  C   UNL     1      46.898   4.388  15.153  0.00  0.00    +0.000 A 
ATOM      4  C   UNL     1      47.895   5.187  15.718  0.00  0.00    +0.000 A 
ATOM      5  C   UNL     1      48.347   6.329  15.048  0.00  0.00    +0.000 A 
ATOM      6  C   UNL     1      47.792   6.684  13.822  0.00  0.00    +0.000 A 
ATOM      7  C   UNL     1      46.803   5.879  13.259  0.00  0.00    +0.000 A 
BRANCH   6   8
ATOM      8  O   UNL     1      48.168   7.771  13.075  0.00  0.00    +0.000 OA
BRANCH   8   9
ATOM      9  C   UNL     1      47.477   9.024  13.278  0.00  0.00    +0.000 C 
ATOM     10  C   UNL     1      45.947   9.038  13.074  0.00  0.00    +0.000 C 
ATOM     11  N   UNL     1      46.067  10.213  12.195  0.00  0.00    +0.000 NA
ATOM     12  C   UNL     1      47.519   9.994  12.082  0.00  0.00    +0.000 C 
ATOM     13  H   UNL     1      45.815  11.095  12.642  0.00  0.00    +0.000 HD
ENDBRANCH   8   9
ENDBRANCH   6   8
ENDBRANCH   1   2
BRANCH   1  14
ATOM     14  C   UNL     1      45.784   3.338  12.045  0.00  0.00    +0.000 C 
BRANCH  14  15
ATOM     15  C   UNL     1      44.930   3.852  10.843  0.00  0.00    +0.000 C 
BRANCH  15  16
ATOM     16  C   UNL     1      45.495   3.462   9.463  0.00  0.00    +0.000 A 
ATOM     17  C   UNL     1      45.768   4.403   8.453  0.00  0.00    +0.000 A 
ATOM     18  C   UNL     1      46.331   4.026   7.233  0.00  0.00    +0.000 A 
ATOM     19  C   UNL     1      46.617   2.687   6.987  0.00  0.00    +0.000 A 
ATOM     20  C   UNL     1      46.326   1.734   7.958  0.00  0.00    +0.000 A 
ATOM     21 CL   UNL     1      46.664   0.077   7.642  0.00  0.00    +0.000 Cl
ATOM     22  C   UNL     1      45.767   2.110   9.183  0.00  0.00    +0.000 A 
ENDBRANCH  15  16
BRANCH  15  24
ATOM     23  C   UNL     1      43.097   2.426  11.719  0.00  0.00    +0.000 C 
ATOM     24  N   UNL     1      43.458   3.608  10.931  0.00  0.00    +0.000 NA
ATOM     25  C   UNL     1      42.725   4.772  11.431  0.00  0.00    +0.000 C 
ENDBRANCH  15  24
ENDBRANCH  14  15
ENDBRANCH   1  14
TORSDOF 7
ENDMDL
MODEL 9
REMARK VINA RESULT:    -5.845      3.546      5.735
REMARK INTER + INTRA:          -8.942
REMARK INTER:                  -8.289
REMARK INTRA:                  -0.653
REMARK UNBOUND:                -0.705
REMARK  Name = 
REMARK  9 active torsions:
REMARK  status: ('A' for Active; 'I' for Inactive)
REMARK    1  A    between atoms: C_1  and  N_2
REMARK    2  A    between atoms: N_2  and  C_3
REMARK    3  A    between atoms: N_2  and  C_4
REMARK    4  A    between atoms: C_4  and  C_5
REMARK    5  A    between atoms: C_4  and  C_18
REMARK    6  A    between atoms: C_5  and  O_6
REMARK    7  A    between atoms: O_6  and  C_7
REMARK    8  A    between atoms: C_11  and  O_12
REMARK    9  A    between atoms: O_12  and  C_13
REMARK                            x       y       z     vdW  Elec       q    Type
REMARK                         _______ _______ _______ _____ _____    ______ ____
ROOT
ATOM      1  O   UNL     1      47.654   4.122  14.828  0.00  0.00    +0.000 OA
ENDROOT
BRANCH   1   2
ATOM      2  C   UNL     1      47.001   5.034  14.052  0.00  0.00    +0.000 A 
ATOM      3  C   UNL     1      47.538   6.220  13.570  0.00  0.00    +0.000 A 
ATOM      4  C   UNL     1      46.762   7.051  12.758  0.00  0.00    +0.000 A 
ATOM      5  C   UNL     1      45.446   6.697  12.440  0.00  0.00    +0.000 A 
ATOM      6  C   UNL     1      44.898   5.523  12.946  0.00  0.00    +0.000 A 
ATOM      7  C   UNL     1      45.679   4.694  13.750  0.00  0.00    +0.000 A 
BRANCH   6   8
ATOM      8  O   UNL     1      43.629   5.074  12.688  0.00  0.00    +0.000 OA
BRANCH   8   9
ATOM      9  C   UNL     1      43.399   4.294  11.494  0.00  0.00    +0.000 C 
ATOM     10  C   UNL     1      43.286   2.763  11.650  0.00  0.00    +0.000 C 
ATOM     11  N   UNL     1      44.271   2.570  10.572  0.00  0.00    +0.000 NA
ATOM     12  C   UNL     1      44.659   3.988  10.660  0.00  0.00    +0.000 C 
ATOM     13  H   UNL     1      43.861   2.309   9.676  0.00  0.00    +0.000 HD
ENDBRANCH   8   9
ENDBRANCH   6   8
ENDBRANCH   1   2
BRANCH   1  14
ATOM     14  C   UNL     1      47.516   4.207  16.247  0.00  0.00    +0.000 C 
BRANCH  14  15
ATOM     15  C   UNL     1      48.742   4.953  16.863  0.00  0.00    +0.000 C 
BRANCH  15  16
ATOM     16  C   UNL     1      48.378   6.267  17.582  0.00  0.00    +0.000 A 
ATOM     17  C   UNL     1      47.766   6.302  18.849  0.00  0.00    +0.000 A 
ATOM     18  C   UNL     1      47.497   7.508  19.498  0.00  0.00    +0.000 A 
ATOM     19  C   UNL     1      47.819   8.713  18.883  0.00  0.00    +0.000 A 
ATOM     20  C   UNL     1      48.396   8.703  17.617  0.00  0.00    +0.000 A 
ATOM     21 CL   UNL     1      48.776  10.197  16.851  0.00  0.00    +0.000 Cl
ATOM     22  C   UNL     1      48.672   7.497  16.966  0.00  0.00    +0.000 A 
ENDBRANCH  15  16
BRANCH  15  24
ATOM     23  C   UNL     1      49.600   2.683  17.384  0.00  0.00    +0.000 C 
ATOM     24  N   UNL     1      49.680   4.117  17.672  0.00  0.00    +0.000 NA
ATOM     25  C   UNL     1      51.070   4.562  17.557  0.00  0.00    +0.000 C 
ENDBRANCH  15  24
ENDBRANCH  14  15
ENDBRANCH   1  14
TORSDOF 7
ENDMDL
