MODEL 1
REMARK VINA RESULT:    -8.838      0.000      0.000
REMARK INTER + INTRA:         -13.295
REMARK INTER:                 -12.196
REMARK INTRA:                  -1.099
REMARK UNBOUND:                -1.099
REMARK  Name = 
REMARK  7 active torsions:
REMARK  status: ('A' for Active; 'I' for Inactive)
REMARK    1  A    between atoms: N_1  and  C_2
REMARK    2  A    between atoms: C_2  and  C_3
REMARK    3  A    between atoms: C_2  and  C_10
REMARK    4  A    between atoms: C_3  and  C_4
REMARK    5  A    between atoms: C_13  and  C_14
REMARK    6  A    between atoms: C_14  and  N_15
REMARK    7  A    between atoms: C_16  and  C_18
REMARK                            x       y       z     vdW  Elec       q    Type
REMARK                         _______ _______ _______ _____ _____    ______ ____
ROOT
ATOM      1  C   UNL     1      45.024   4.409  11.266  0.00  0.00    +0.000 A 
ATOM      2  C   UNL     1      45.684   5.397  10.512  0.00  0.00    +0.000 A 
ATOM      3  C   UNL     1      46.257   6.521  11.116  0.00  0.00    +0.000 A 
ATOM      4  C   UNL     1      46.167   6.703  12.497  0.00  0.00    +0.000 A 
ATOM      5  C   UNL     1      45.431   5.780  13.246  0.00  0.00    +0.000 A 
ATOM      6  C   UNL     1      44.869   4.648  12.641  0.00  0.00    +0.000 A 
ENDROOT
BRANCH   1   7
ATOM      7  C   UNL     1      44.464   3.165  10.565  0.00  0.00    +0.000 C 
BRANCH   7   8
ATOM      8  N   UNL     1      43.156   2.800  11.150  0.00  0.00    +0.000 NA
ATOM      9  H   UNL     1      43.257   1.939  11.687  0.00  0.00    +0.000 HD
ATOM     10  H   UNL     1      42.514   2.583  10.389  0.00  0.00    +0.000 HD
ENDBRANCH   7   8
BRANCH   7  11
ATOM     11  C   UNL     1      44.324   3.311   9.023  0.00  0.00    +0.000 C 
BRANCH  11  12
ATOM     12  C   UNL     1      45.458   2.735   8.198  0.00  0.00    +0.000 A 
ATOM     13  C   UNL     1      46.152   3.549   7.291  0.00  0.00    +0.000 A 
ATOM     14  C   UNL     1      47.237   3.047   6.570  0.00  0.00    +0.000 A 
ATOM     15  C   UNL     1      47.639   1.725   6.745  0.00  0.00    +0.000 A 
ATOM     16  C   UNL     1      46.952   0.902   7.636  0.00  0.00    +0.000 A 
ATOM     17  C   UNL     1      45.867   1.403   8.360  0.00  0.00    +0.000 A 
ENDBRANCH  11  12
ENDBRANCH   7  11
ENDBRANCH   1   7
BRANCH   4  18
ATOM     18  C   UNL     1      46.826   7.881  13.163  0.00  0.00    +0.000 C 
BRANCH  18  19
ATOM     19  N   UNL     1      47.391   7.514  14.433  0.00  0.00    +0.000 N 
ATOM     20  C   UNL     1      48.561   6.803  14.511  0.00  0.00    +0.000 C 
ATOM     21  O   UNL     1      49.200   6.481  13.513  0.00  0.00    +0.000 OA
ATOM     22  H   UNL     1      46.778   7.562  15.241  0.00  0.00    +0.000 HD
BRANCH  20  23
ATOM     23  C   UNL     1      49.048   6.501  15.864  0.00  0.00    +0.000 A 
ATOM     24  C   UNL     1      49.988   7.329  16.459  0.00  0.00    +0.000 A 
ATOM     25  S   UNL     1      50.405   6.860  18.045  0.00  0.00    +0.000 S 
ATOM     26  C   UNL     1      49.379   5.504  17.972  0.00  0.00    +0.000 A 
ATOM     27  N   UNL     1      49.285   4.641  19.021  0.00  0.00    +0.000 NA
ATOM     28  C   UNL     1      48.488   3.644  18.820  0.00  0.00    +0.000 A 
ATOM     29  N   UNL     1      47.774   3.435  17.669  0.00  0.00    +0.000 N 
ATOM     30  C   UNL     1      47.819   4.291  16.595  0.00  0.00    +0.000 A 
ATOM     31  O   UNL     1      47.136   4.091  15.599  0.00  0.00    +0.000 OA
ATOM     32  C   UNL     1      48.711   5.423  16.764  0.00  0.00    +0.000 A 
ATOM     33  H   UNL     1      47.156   2.642  17.579  0.00  0.00    +0.000 HD
ENDBRANCH  20  23
ENDBRANCH  18  19
ENDBRANCH   4  18
TORSDOF 7
ENDMDL
MODEL 2
REMARK VINA RESULT:    -8.565      1.926      2.483
REMARK INTER + INTRA:         -12.919
REMARK INTER:                 -11.667
REMARK INTRA:                  -1.252
REMARK UNBOUND:                -1.099
REMARK  Name = 
REMARK  7 active torsions:
REMARK  status: ('A' for Active; 'I' for Inactive)
REMARK    1  A    between atoms: N_1  and  C_2
REMARK    2  A    between atoms: C_2  and  C_3
REMARK    3  A    between atoms: C_2  and  C_10
REMARK    4  A    between atoms: C_3  and  C_4
REMARK    5  A    between atoms: C_13  and  C_14
REMARK    6  A    between atoms: C_14  and  N_15
REMARK    7  A    between atoms: C_16  and  C_18
REMARK                            x       y       z     vdW  Elec       q    Type
REMARK                         _______ _______ _______ _____ _____    ______ ____
ROOT
ATOM      1  C   UNL     1      45.162   4.462  11.446  0.00  0.00    +0.000 A 
ATOM      2  C   UNL     1      45.622   5.666  10.882  0.00  0.00    +0.000 A 
ATOM      3  C   UNL     1      46.452   6.540  11.591  0.00  0.00    +0.000 A 
ATOM      4  C   UNL     1      46.832   6.245  12.902  0.00  0.00    +0.000 A 
ATOM      5  C   UNL     1      46.303   5.101  13.509  0.00  0.00    +0.000 A 
ATOM      6  C   UNL     1      45.483   4.220  12.791  0.00  0.00    +0.000 A 
ENDROOT
BRANCH   1   7
ATOM      7  C   UNL     1      44.302   3.508  10.607  0.00  0.00    +0.000 C 
BRANCH   7   8
ATOM      8  N   UNL     1      42.899   3.553  11.069  0.00  0.00    +0.000 NA
ATOM      9  H   UNL     1      42.773   4.360  11.680  0.00  0.00    +0.000 HD
ATOM     10  H   UNL     1      42.726   2.733  11.648  0.00  0.00    +0.000 HD
ENDBRANCH   7   8
BRANCH   7  11
ATOM     11  C   UNL     1      44.357   3.781   9.076  0.00  0.00    +0.000 C 
BRANCH  11  12
ATOM     12  C   UNL     1      45.446   3.052   8.313  0.00  0.00    +0.000 A 
ATOM     13  C   UNL     1      45.686   1.692   8.558  0.00  0.00    +0.000 A 
ATOM     14  C   UNL     1      46.644   0.994   7.820  0.00  0.00    +0.000 A 
ATOM     15  C   UNL     1      47.374   1.648   6.830  0.00  0.00    +0.000 A 
ATOM     16  C   UNL     1      47.152   3.001   6.583  0.00  0.00    +0.000 A 
ATOM     17  C   UNL     1      46.193   3.701   7.319  0.00  0.00    +0.000 A 
ENDBRANCH  11  12
ENDBRANCH   7  11
ENDBRANCH   1   7
BRANCH   4  18
ATOM     18  C   UNL     1      47.767   7.151  13.656  0.00  0.00    +0.000 C 
BRANCH  18  19
ATOM     19  N   UNL     1      47.782   6.837  15.059  0.00  0.00    +0.000 N 
ATOM     20  C   UNL     1      48.956   6.569  15.715  0.00  0.00    +0.000 C 
ATOM     21  O   UNL     1      50.046   6.621  15.153  0.00  0.00    +0.000 OA
ATOM     22  H   UNL     1      46.898   6.564  15.478  0.00  0.00    +0.000 HD
BRANCH  20  23
ATOM     23  C   UNL     1      48.845   6.276  17.150  0.00  0.00    +0.000 A 
ATOM     24  C   UNL     1      49.185   5.018  17.625  0.00  0.00    +0.000 A 
ATOM     25  S   UNL     1      49.045   4.866  19.318  0.00  0.00    +0.000 S 
ATOM     26  C   UNL     1      48.476   6.463  19.469  0.00  0.00    +0.000 A 
ATOM     27  N   UNL     1      48.135   6.973  20.684  0.00  0.00    +0.000 NA
ATOM     28  C   UNL     1      47.697   8.187  20.649  0.00  0.00    +0.000 A 
ATOM     29  N   UNL     1      47.575   8.940  19.510  0.00  0.00    +0.000 N 
ATOM     30  C   UNL     1      47.930   8.477  18.266  0.00  0.00    +0.000 A 
ATOM     31  O   UNL     1      47.843   9.193  17.277  0.00  0.00    +0.000 OA
ATOM     32  C   UNL     1      48.417   7.110  18.248  0.00  0.00    +0.000 A 
ATOM     33  H   UNL     1      47.238   9.891  19.550  0.00  0.00    +0.000 HD
ENDBRANCH  20  23
ENDBRANCH  18  19
ENDBRANCH   4  18
TORSDOF 7
ENDMDL
MODEL 3
REMARK VINA RESULT:    -7.953      2.150      2.702
REMARK INTER + INTRA:         -12.074
REMARK INTER:                 -10.985
REMARK INTRA:                  -1.089
REMARK UNBOUND:                -1.099
REMARK  Name = 
REMARK  7 active torsions:
REMARK  status: ('A' for Active; 'I' for Inactive)
REMARK    1  A    between atoms: N_1  and  C_2
REMARK    2  A    between atoms: C_2  and  C_3
REMARK    3  A    between atoms: C_2  and  C_10
REMARK    4  A    between atoms: C_3  and  C_4
REMARK    5  A    between atoms: C_13  and  C_14
REMARK    6  A    between atoms: C_14  and  N_15
REMARK    7  A    between atoms: C_16  and  C_18
REMARK                            x       y       z     vdW  Elec       q    Type
REMARK                         _______ _______ _______ _____ _____    ______ ____
ROOT
ATOM      1  C   UNL     1      45.673   4.010  12.496  0.00  0.00    +0.000 A 
ATOM      2  C   UNL     1      46.577   3.553  13.473  0.00  0.00    +0.000 A 
ATOM      3  C   UNL     1      47.341   4.439  14.239  0.00  0.00    +0.000 A 
ATOM      4  C   UNL     1      47.239   5.816  14.037  0.00  0.00    +0.000 A 
ATOM      5  C   UNL     1      46.418   6.281  13.004  0.00  0.00    +0.000 A 
ATOM      6  C   UNL     1      45.643   5.392  12.247  0.00  0.00    +0.000 A 
ENDROOT
BRANCH   1   7
ATOM      7  C   UNL     1      44.815   3.002  11.722  0.00  0.00    +0.000 C 
BRANCH   7   8
ATOM      8  N   UNL     1      43.637   2.616  12.529  0.00  0.00    +0.000 NA
ATOM      9  H   UNL     1      43.473   3.326  13.243  0.00  0.00    +0.000 HD
ATOM     10  H   UNL     1      43.860   1.758  13.032  0.00  0.00    +0.000 HD
ENDBRANCH   7   8
BRANCH   7  11
ATOM     11  C   UNL     1      44.349   3.501  10.325  0.00  0.00    +0.000 C 
BRANCH  11  12
ATOM     12  C   UNL     1      45.283   3.197   9.169  0.00  0.00    +0.000 A 
ATOM     13  C   UNL     1      45.603   1.868   8.855  0.00  0.00    +0.000 A 
ATOM     14  C   UNL     1      46.413   1.572   7.757  0.00  0.00    +0.000 A 
ATOM     15  C   UNL     1      46.913   2.601   6.961  0.00  0.00    +0.000 A 
ATOM     16  C   UNL     1      46.610   3.926   7.268  0.00  0.00    +0.000 A 
ATOM     17  C   UNL     1      45.799   4.225   8.365  0.00  0.00    +0.000 A 
ENDBRANCH  11  12
ENDBRANCH   7  11
ENDBRANCH   1   7
BRANCH   4  18
ATOM     18  C   UNL     1      48.015   6.780  14.893  0.00  0.00    +0.000 C 
BRANCH  18  19
ATOM     19  N   UNL     1      49.162   6.146  15.485  0.00  0.00    +0.000 N 
ATOM     20  C   UNL     1      49.140   5.710  16.785  0.00  0.00    +0.000 C 
ATOM     21  O   UNL     1      48.139   5.803  17.489  0.00  0.00    +0.000 OA
ATOM     22  H   UNL     1      50.051   6.268  15.010  0.00  0.00    +0.000 HD
BRANCH  20  23
ATOM     23  C   UNL     1      50.366   5.064  17.273  0.00  0.00    +0.000 A 
ATOM     24  C   UNL     1      51.406   5.840  17.764  0.00  0.00    +0.000 A 
ATOM     25  S   UNL     1      52.729   4.928  18.333  0.00  0.00    +0.000 S 
ATOM     26  C   UNL     1      51.978   3.464  17.897  0.00  0.00    +0.000 A 
ATOM     27  N   UNL     1      52.603   2.271  18.094  0.00  0.00    +0.000 NA
ATOM     28  C   UNL     1      51.928   1.244  17.695  0.00  0.00    +0.000 A 
ATOM     29  N   UNL     1      50.684   1.301  17.124  0.00  0.00    +0.000 N 
ATOM     30  C   UNL     1      50.006   2.480  16.928  0.00  0.00    +0.000 A 
ATOM     31  O   UNL     1      48.878   2.488  16.449  0.00  0.00    +0.000 OA
ATOM     32  C   UNL     1      50.726   3.668  17.346  0.00  0.00    +0.000 A 
ATOM     33  H   UNL     1      50.202   0.460  16.845  0.00  0.00    +0.000 HD
ENDBRANCH  20  23
ENDBRANCH  18  19
ENDBRANCH   4  18
TORSDOF 7
ENDMDL
MODEL 4
REMARK VINA RESULT:    -7.917      2.432      3.074
REMARK INTER + INTRA:         -12.024
REMARK INTER:                 -10.954
REMARK INTRA:                  -1.070
REMARK UNBOUND:                -1.099
REMARK  Name = 
REMARK  7 active torsions:
REMARK  status: ('A' for Active; 'I' for Inactive)
REMARK    1  A    between atoms: N_1  and  C_2
REMARK    2  A    between atoms: C_2  and  C_3
REMARK    3  A    between atoms: C_2  and  C_10
REMARK    4  A    between atoms: C_3  and  C_4
REMARK    5  A    between atoms: C_13  and  C_14
REMARK    6  A    between atoms: C_14  and  N_15
REMARK    7  A    between atoms: C_16  and  C_18
REMARK                            x       y       z     vdW  Elec       q    Type
REMARK                         _______ _______ _______ _____ _____    ______ ____
ROOT
ATOM      1  C   UNL     1      45.162   4.423  11.407  0.00  0.00    +0.000 A 
ATOM      2  C   UNL     1      45.441   3.226  12.094  0.00  0.00    +0.000 A 
ATOM      3  C   UNL     1      46.152   3.218  13.297  0.00  0.00    +0.000 A 
ATOM      4  C   UNL     1      46.630   4.411  13.844  0.00  0.00    +0.000 A 
ATOM      5  C   UNL     1      46.445   5.596  13.124  0.00  0.00    +0.000 A 
ATOM      6  C   UNL     1      45.720   5.603  11.925  0.00  0.00    +0.000 A 
ENDROOT
BRANCH   1   7
ATOM      7  C   UNL     1      44.327   4.386  10.122  0.00  0.00    +0.000 C 
BRANCH   7   8
ATOM      8  N   UNL     1      43.202   5.341  10.222  0.00  0.00    +0.000 NA
ATOM      9  H   UNL     1      43.335   5.929  11.044  0.00  0.00    +0.000 HD
ATOM     10  H   UNL     1      42.347   4.813  10.389  0.00  0.00    +0.000 HD
ENDBRANCH   7   8
BRANCH   7  11
ATOM     11  C   UNL     1      45.139   4.669   8.825  0.00  0.00    +0.000 C 
BRANCH  11  12
ATOM     12  C   UNL     1      45.830   3.471   8.203  0.00  0.00    +0.000 A 
ATOM     13  C   UNL     1      46.821   3.659   7.228  0.00  0.00    +0.000 A 
ATOM     14  C   UNL     1      47.507   2.568   6.692  0.00  0.00    +0.000 A 
ATOM     15  C   UNL     1      47.210   1.277   7.122  0.00  0.00    +0.000 A 
ATOM     16  C   UNL     1      46.221   1.075   8.083  0.00  0.00    +0.000 A 
ATOM     17  C   UNL     1      45.534   2.166   8.623  0.00  0.00    +0.000 A 
ENDBRANCH  11  12
ENDBRANCH   7  11
ENDBRANCH   1   7
BRANCH   4  18
ATOM     18  C   UNL     1      47.350   4.420  15.165  0.00  0.00    +0.000 C 
BRANCH  18  19
ATOM     19  N   UNL     1      47.640   5.762  15.592  0.00  0.00    +0.000 N 
ATOM     20  C   UNL     1      48.758   6.044  16.335  0.00  0.00    +0.000 C 
ATOM     21  O   UNL     1      49.579   5.182  16.636  0.00  0.00    +0.000 OA
ATOM     22  H   UNL     1      46.877   6.431  15.558  0.00  0.00    +0.000 HD
BRANCH  20  23
ATOM     23  C   UNL     1      48.956   7.454  16.699  0.00  0.00    +0.000 A 
ATOM     24  C   UNL     1      49.749   8.266  15.901  0.00  0.00    +0.000 A 
ATOM     25  S   UNL     1      49.832   9.882  16.441  0.00  0.00    +0.000 S 
ATOM     26  C   UNL     1      48.850   9.539  17.789  0.00  0.00    +0.000 A 
ATOM     27  N   UNL     1      48.545  10.506  18.697  0.00  0.00    +0.000 NA
ATOM     28  C   UNL     1      47.812  10.101  19.680  0.00  0.00    +0.000 A 
ATOM     29  N   UNL     1      47.352   8.820  19.836  0.00  0.00    +0.000 N 
ATOM     30  C   UNL     1      47.614   7.818  18.933  0.00  0.00    +0.000 A 
ATOM     31  O   UNL     1      47.153   6.693  19.086  0.00  0.00    +0.000 OA
ATOM     32  C   UNL     1      48.446   8.216  17.813  0.00  0.00    +0.000 A 
ATOM     33  H   UNL     1      46.770   8.569  20.621  0.00  0.00    +0.000 HD
ENDBRANCH  20  23
ENDBRANCH  18  19
ENDBRANCH   4  18
TORSDOF 7
ENDMDL
MODEL 5
REMARK VINA RESULT:    -7.856      2.011      3.630
REMARK INTER + INTRA:         -11.940
REMARK INTER:                 -10.617
REMARK INTRA:                  -1.323
REMARK UNBOUND:                -1.099
REMARK  Name = 
REMARK  7 active torsions:
REMARK  status: ('A' for Active; 'I' for Inactive)
REMARK    1  A    between atoms: N_1  and  C_2
REMARK    2  A    between atoms: C_2  and  C_3
REMARK    3  A    between atoms: C_2  and  C_10
REMARK    4  A    between atoms: C_3  and  C_4
REMARK    5  A    between atoms: C_13  and  C_14
REMARK    6  A    between atoms: C_14  and  N_15
REMARK    7  A    between atoms: C_16  and  C_18
REMARK                            x       y       z     vdW  Elec       q    Type
REMARK                         _______ _______ _______ _____ _____    ______ ____
ROOT
ATOM      1  C   UNL     1      45.167   4.428  11.422  0.00  0.00    +0.000 A 
ATOM      2  C   UNL     1      45.470   3.235  12.104  0.00  0.00    +0.000 A 
ATOM      3  C   UNL     1      46.170   3.238  13.315  0.00  0.00    +0.000 A 
ATOM      4  C   UNL     1      46.610   4.440  13.872  0.00  0.00    +0.000 A 
ATOM      5  C   UNL     1      46.402   5.624  13.157  0.00  0.00    +0.000 A 
ATOM      6  C   UNL     1      45.688   5.619  11.951  0.00  0.00    +0.000 A 
ENDROOT
BRANCH   1   7
ATOM      7  C   UNL     1      44.344   4.376  10.128  0.00  0.00    +0.000 C 
BRANCH   7   8
ATOM      8  N   UNL     1      43.206   5.316  10.215  0.00  0.00    +0.000 NA
ATOM      9  H   UNL     1      42.664   5.265   9.353  0.00  0.00    +0.000 HD
ATOM     10  H   UNL     1      43.576   6.264  10.258  0.00  0.00    +0.000 HD
ENDBRANCH   7   8
BRANCH   7  11
ATOM     11  C   UNL     1      45.166   4.667   8.840  0.00  0.00    +0.000 C 
BRANCH  11  12
ATOM     12  C   UNL     1      45.896   3.481   8.239  0.00  0.00    +0.000 A 
ATOM     13  C   UNL     1      45.590   2.179   8.662  0.00  0.00    +0.000 A 
ATOM     14  C   UNL     1      46.211   1.076   8.074  0.00  0.00    +0.000 A 
ATOM     15  C   UNL     1      47.146   1.261   7.058  0.00  0.00    +0.000 A 
ATOM     16  C   UNL     1      47.466   2.550   6.635  0.00  0.00    +0.000 A 
ATOM     17  C   UNL     1      46.845   3.655   7.221  0.00  0.00    +0.000 A 
ENDBRANCH  11  12
ENDBRANCH   7  11
ENDBRANCH   1   7
BRANCH   4  18
ATOM     18  C   UNL     1      47.317   4.460  15.200  0.00  0.00    +0.000 C 
BRANCH  18  19
ATOM     19  N   UNL     1      47.673   5.800  15.583  0.00  0.00    +0.000 N 
ATOM     20  C   UNL     1      48.806   6.054  16.312  0.00  0.00    +0.000 C 
ATOM     21  O   UNL     1      49.588   5.165  16.637  0.00  0.00    +0.000 OA
ATOM     22  H   UNL     1      46.942   6.502  15.529  0.00  0.00    +0.000 HD
BRANCH  20  23
ATOM     23  C   UNL     1      49.072   7.463  16.629  0.00  0.00    +0.000 A 
ATOM     24  C   UNL     1      49.110   7.877  17.952  0.00  0.00    +0.000 A 
ATOM     25  S   UNL     1      49.478   9.531  18.141  0.00  0.00    +0.000 S 
ATOM     26  C   UNL     1      49.550   9.763  16.456  0.00  0.00    +0.000 A 
ATOM     27  N   UNL     1      49.806  10.992  15.929  0.00  0.00    +0.000 NA
ATOM     28  C   UNL     1      49.809  11.028  14.638  0.00  0.00    +0.000 A 
ATOM     29  N   UNL     1      49.585   9.947  13.827  0.00  0.00    +0.000 N 
ATOM     30  C   UNL     1      49.347   8.684  14.313  0.00  0.00    +0.000 A 
ATOM     31  O   UNL     1      49.190   7.734  13.556  0.00  0.00    +0.000 OA
ATOM     32  C   UNL     1      49.320   8.590  15.761  0.00  0.00    +0.000 A 
ATOM     33  H   UNL     1      49.614  10.037  12.822  0.00  0.00    +0.000 HD
ENDBRANCH  20  23
ENDBRANCH  18  19
ENDBRANCH   4  18
TORSDOF 7
ENDMDL
MODEL 6
REMARK VINA RESULT:    -7.795      3.857      5.024
REMARK INTER + INTRA:         -11.856
REMARK INTER:                 -10.553
REMARK INTRA:                  -1.302
REMARK UNBOUND:                -1.099
REMARK  Name = 
REMARK  7 active torsions:
REMARK  status: ('A' for Active; 'I' for Inactive)
REMARK    1  A    between atoms: N_1  and  C_2
REMARK    2  A    between atoms: C_2  and  C_3
REMARK    3  A    between atoms: C_2  and  C_10
REMARK    4  A    between atoms: C_3  and  C_4
REMARK    5  A    between atoms: C_13  and  C_14
REMARK    6  A    between atoms: C_14  and  N_15
REMARK    7  A    between atoms: C_16  and  C_18
REMARK                            x       y       z     vdW  Elec       q    Type
REMARK                         _______ _______ _______ _____ _____    ______ ____
ROOT
ATOM      1  C   UNL     1      44.966   4.513  11.660  0.00  0.00    +0.000 A 
ATOM      2  C   UNL     1      46.023   4.902  12.504  0.00  0.00    +0.000 A 
ATOM      3  C   UNL     1      46.219   6.238  12.868  0.00  0.00    +0.000 A 
ATOM      4  C   UNL     1      45.372   7.235  12.379  0.00  0.00    +0.000 A 
ATOM      5  C   UNL     1      44.378   6.876  11.463  0.00  0.00    +0.000 A 
ATOM      6  C   UNL     1      44.175   5.535  11.110  0.00  0.00    +0.000 A 
ENDROOT
BRANCH   1   7
ATOM      7  C   UNL     1      44.757   3.028  11.337  0.00  0.00    +0.000 C 
BRANCH   7   8
ATOM      8  N   UNL     1      43.855   2.416  12.336  0.00  0.00    +0.000 NA
ATOM      9  H   UNL     1      43.511   3.141  12.965  0.00  0.00    +0.000 HD
ATOM     10  H   UNL     1      44.401   1.779  12.913  0.00  0.00    +0.000 HD
ENDBRANCH   7   8
BRANCH   7  11
ATOM     11  C   UNL     1      44.213   2.758   9.905  0.00  0.00    +0.000 C 
BRANCH  11  12
ATOM     12  C   UNL     1      45.254   2.676   8.806  0.00  0.00    +0.000 A 
ATOM     13  C   UNL     1      45.643   3.834   8.118  0.00  0.00    +0.000 A 
ATOM     14  C   UNL     1      46.644   3.782   7.146  0.00  0.00    +0.000 A 
ATOM     15  C   UNL     1      47.266   2.571   6.850  0.00  0.00    +0.000 A 
ATOM     16  C   UNL     1      46.882   1.410   7.519  0.00  0.00    +0.000 A 
ATOM     17  C   UNL     1      45.882   1.461   8.493  0.00  0.00    +0.000 A 
ENDBRANCH  11  12
ENDBRANCH   7  11
ENDBRANCH   1   7
BRANCH   4  18
ATOM     18  C   UNL     1      45.541   8.667  12.807  0.00  0.00    +0.000 C 
BRANCH  18  19
ATOM     19  N   UNL     1      46.668   9.278  12.154  0.00  0.00    +0.000 N 
ATOM     20  C   UNL     1      47.818   9.564  12.843  0.00  0.00    +0.000 C 
ATOM     21  O   UNL     1      47.959   9.280  14.029  0.00  0.00    +0.000 OA
ATOM     22  H   UNL     1      46.494   9.723  11.258  0.00  0.00    +0.000 HD
BRANCH  20  23
ATOM     23  C   UNL     1      48.906  10.173  12.065  0.00  0.00    +0.000 A 
ATOM     24  C   UNL     1      48.898  11.538  11.822  0.00  0.00    +0.000 A 
ATOM     25  S   UNL     1      50.257  12.084  10.948  0.00  0.00    +0.000 S 
ATOM     26  C   UNL     1      50.877  10.505  10.820  0.00  0.00    +0.000 A 
ATOM     27  N   UNL     1      52.037  10.260  10.150  0.00  0.00    +0.000 NA
ATOM     28  C   UNL     1      52.378   9.015  10.112  0.00  0.00    +0.000 A 
ATOM     29  N   UNL     1      51.668   7.993  10.687  0.00  0.00    +0.000 N 
ATOM     30  C   UNL     1      50.507   8.195  11.393  0.00  0.00    +0.000 A 
ATOM     31  O   UNL     1      49.921   7.261  11.926  0.00  0.00    +0.000 OA
ATOM     32  C   UNL     1      50.072   9.578  11.455  0.00  0.00    +0.000 A 
ATOM     33  H   UNL     1      51.995   7.040  10.633  0.00  0.00    +0.000 HD
ENDBRANCH  20  23
ENDBRANCH  18  19
ENDBRANCH   4  18
TORSDOF 7
ENDMDL
MODEL 7
REMARK VINA RESULT:    -7.542      2.921      3.334
REMARK INTER + INTRA:         -11.506
REMARK INTER:                 -10.336
REMARK INTRA:                  -1.171
REMARK UNBOUND:                -1.099
REMARK  Name = 
REMARK  7 active torsions:
REMARK  status: ('A' for Active; 'I' for Inactive)
REMARK    1  A    between atoms: N_1  and  C_2
REMARK    2  A    between atoms: C_2  and  C_3
REMARK    3  A    between atoms: C_2  and  C_10
REMARK    4  A    between atoms: C_3  and  C_4
REMARK    5  A    between atoms: C_13  and  C_14
REMARK    6  A    between atoms: C_14  and  N_15
REMARK    7  A    between atoms: C_16  and  C_18
REMARK                            x       y       z     vdW  Elec       q    Type
REMARK                         _______ _______ _______ _____ _____    ______ ____
ROOT
ATOM      1  C   UNL     1      44.773   4.295  11.370  0.00  0.00    +0.000 A 
ATOM      2  C   UNL     1      45.763   4.514  12.346  0.00  0.00    +0.000 A 
ATOM      3  C   UNL     1      46.036   5.792  12.843  0.00  0.00    +0.000 A 
ATOM      4  C   UNL     1      45.339   6.901  12.360  0.00  0.00    +0.000 A 
ATOM      5  C   UNL     1      44.421   6.713  11.321  0.00  0.00    +0.000 A 
ATOM      6  C   UNL     1      44.139   5.429  10.835  0.00  0.00    +0.000 A 
ENDROOT
BRANCH   1   7
ATOM      7  C   UNL     1      44.468   2.867  10.901  0.00  0.00    +0.000 C 
BRANCH   7   8
ATOM      8  N   UNL     1      43.342   2.308  11.678  0.00  0.00    +0.000 NA
ATOM      9  H   UNL     1      43.635   2.178  12.646  0.00  0.00    +0.000 HD
ATOM     10  H   UNL     1      43.136   1.377  11.320  0.00  0.00    +0.000 HD
ENDBRANCH   7   8
BRANCH   7  11
ATOM     11  C   UNL     1      44.164   2.748   9.380  0.00  0.00    +0.000 C 
BRANCH  11  12
ATOM     12  C   UNL     1      45.372   2.625   8.471  0.00  0.00    +0.000 A 
ATOM     13  C   UNL     1      45.884   3.760   7.826  0.00  0.00    +0.000 A 
ATOM     14  C   UNL     1      47.031   3.671   7.035  0.00  0.00    +0.000 A 
ATOM     15  C   UNL     1      47.678   2.447   6.878  0.00  0.00    +0.000 A 
ATOM     16  C   UNL     1      47.173   1.310   7.506  0.00  0.00    +0.000 A 
ATOM     17  C   UNL     1      46.027   1.396   8.300  0.00  0.00    +0.000 A 
ENDBRANCH  11  12
ENDBRANCH   7  11
ENDBRANCH   1   7
BRANCH   4  18
ATOM     18  C   UNL     1      45.587   8.273  12.925  0.00  0.00    +0.000 C 
BRANCH  18  19
ATOM     19  N   UNL     1      46.703   8.270  13.832  0.00  0.00    +0.000 N 
ATOM     20  C   UNL     1      47.730   9.169  13.697  0.00  0.00    +0.000 C 
ATOM     21  O   UNL     1      47.730  10.038  12.830  0.00  0.00    +0.000 OA
ATOM     22  H   UNL     1      46.835   7.436  14.395  0.00  0.00    +0.000 HD
BRANCH  20  23
ATOM     23  C   UNL     1      48.806   9.079  14.693  0.00  0.00    +0.000 A 
ATOM     24  C   UNL     1      48.550   9.409  16.016  0.00  0.00    +0.000 A 
ATOM     25  S   UNL     1      49.895   9.201  17.044  0.00  0.00    +0.000 S 
ATOM     26  C   UNL     1      50.880   8.709  15.747  0.00  0.00    +0.000 A 
ATOM     27  N   UNL     1      52.191   8.399  15.941  0.00  0.00    +0.000 NA
ATOM     28  C   UNL     1      52.825   8.065  14.867  0.00  0.00    +0.000 A 
ATOM     29  N   UNL     1      52.266   8.007  13.617  0.00  0.00    +0.000 N 
ATOM     30  C   UNL     1      50.942   8.287  13.377  0.00  0.00    +0.000 A 
ATOM     31  O   UNL     1      50.470   8.186  12.251  0.00  0.00    +0.000 OA
ATOM     32  C   UNL     1      50.187   8.682  14.550  0.00  0.00    +0.000 A 
ATOM     33  H   UNL     1      52.813   7.724  12.817  0.00  0.00    +0.000 HD
ENDBRANCH  20  23
ENDBRANCH  18  19
ENDBRANCH   4  18
TORSDOF 7
ENDMDL
MODEL 8
REMARK VINA RESULT:    -7.017      3.941      5.781
REMARK INTER + INTRA:         -10.782
REMARK INTER:                  -9.469
REMARK INTRA:                  -1.313
REMARK UNBOUND:                -1.099
REMARK  Name = 
REMARK  7 active torsions:
REMARK  status: ('A' for Active; 'I' for Inactive)
REMARK    1  A    between atoms: N_1  and  C_2
REMARK    2  A    between atoms: C_2  and  C_3
REMARK    3  A    between atoms: C_2  and  C_10
REMARK    4  A    between atoms: C_3  and  C_4
REMARK    5  A    between atoms: C_13  and  C_14
REMARK    6  A    between atoms: C_14  and  N_15
REMARK    7  A    between atoms: C_16  and  C_18
REMARK                            x       y       z     vdW  Elec       q    Type
REMARK                         _______ _______ _______ _____ _____    ______ ____
ROOT
ATOM      1  C   UNL     1      45.464   4.797  12.169  0.00  0.00    +0.000 A 
ATOM      2  C   UNL     1      46.412   4.729  13.206  0.00  0.00    +0.000 A 
ATOM      3  C   UNL     1      47.111   5.860  13.639  0.00  0.00    +0.000 A 
ATOM      4  C   UNL     1      46.899   7.098  13.028  0.00  0.00    +0.000 A 
ATOM      5  C   UNL     1      46.032   7.162  11.932  0.00  0.00    +0.000 A 
ATOM      6  C   UNL     1      45.322   6.029  11.510  0.00  0.00    +0.000 A 
ENDROOT
BRANCH   1   7
ATOM      7  C   UNL     1      44.680   3.541  11.771  0.00  0.00    +0.000 C 
BRANCH   7   8
ATOM      8  N   UNL     1      43.610   3.279  12.757  0.00  0.00    +0.000 NA
ATOM      9  H   UNL     1      43.000   2.543  12.403  0.00  0.00    +0.000 HD
ATOM     10  H   UNL     1      43.030   4.113  12.831  0.00  0.00    +0.000 HD
ENDBRANCH   7   8
BRANCH   7  11
ATOM     11  C   UNL     1      44.069   3.597  10.341  0.00  0.00    +0.000 C 
BRANCH  11  12
ATOM     12  C   UNL     1      44.997   3.197   9.210  0.00  0.00    +0.000 A 
ATOM     13  C   UNL     1      45.545   4.178   8.370  0.00  0.00    +0.000 A 
ATOM     14  C   UNL     1      46.447   3.829   7.364  0.00  0.00    +0.000 A 
ATOM     15  C   UNL     1      46.810   2.496   7.183  0.00  0.00    +0.000 A 
ATOM     16  C   UNL     1      46.266   1.510   8.005  0.00  0.00    +0.000 A 
ATOM     17  C   UNL     1      45.364   1.857   9.014  0.00  0.00    +0.000 A 
ENDBRANCH  11  12
ENDBRANCH   7  11
ENDBRANCH   1   7
BRANCH   4  18
ATOM     18  C   UNL     1      47.606   8.332  13.520  0.00  0.00    +0.000 C 
BRANCH  18  19
ATOM     19  N   UNL     1      48.578   8.792  12.566  0.00  0.00    +0.000 N 
ATOM     20  C   UNL     1      49.903   8.460  12.686  0.00  0.00    +0.000 C 
ATOM     21  O   UNL     1      50.316   7.728  13.581  0.00  0.00    +0.000 OA
ATOM     22  H   UNL     1      48.306   9.568  11.970  0.00  0.00    +0.000 HD
BRANCH  20  23
ATOM     23  C   UNL     1      50.798   8.976  11.642  0.00  0.00    +0.000 A 
ATOM     24  C   UNL     1      51.712   8.126  11.036  0.00  0.00    +0.000 A 
ATOM     25  S   UNL     1      52.636   8.876   9.814  0.00  0.00    +0.000 S 
ATOM     26  C   UNL     1      51.881  10.377  10.088  0.00  0.00    +0.000 A 
ATOM     27  N   UNL     1      52.238  11.480   9.375  0.00  0.00    +0.000 NA
ATOM     28  C   UNL     1      51.600  12.555   9.703  0.00  0.00    +0.000 A 
ATOM     29  N   UNL     1      50.635  12.625  10.674  0.00  0.00    +0.000 N 
ATOM     30  C   UNL     1      50.226  11.533  11.401  0.00  0.00    +0.000 A 
ATOM     31  O   UNL     1      49.333  11.628  12.233  0.00  0.00    +0.000 OA
ATOM     32  C   UNL     1      50.921  10.301  11.081  0.00  0.00    +0.000 A 
ATOM     33  H   UNL     1      50.163  13.495  10.874  0.00  0.00    +0.000 HD
ENDBRANCH  20  23
ENDBRANCH  18  19
ENDBRANCH   4  18
TORSDOF 7
ENDMDL
MODEL 9
REMARK VINA RESULT:    -7.016      3.126      8.397
REMARK INTER + INTRA:         -10.781
REMARK INTER:                  -9.089
REMARK INTRA:                  -1.693
REMARK UNBOUND:                -1.099
REMARK  Name = 
REMARK  7 active torsions:
REMARK  status: ('A' for Active; 'I' for Inactive)
REMARK    1  A    between atoms: N_1  and  C_2
REMARK    2  A    between atoms: C_2  and  C_3
REMARK    3  A    between atoms: C_2  and  C_10
REMARK    4  A    between atoms: C_3  and  C_4
REMARK    5  A    between atoms: C_13  and  C_14
REMARK    6  A    between atoms: C_14  and  N_15
REMARK    7  A    between atoms: C_16  and  C_18
REMARK                            x       y       z     vdW  Elec       q    Type
REMARK                         _______ _______ _______ _____ _____    ______ ____
ROOT
ATOM      1  C   UNL     1      49.572   7.834  15.929  0.00  0.00    +0.000 A 
ATOM      2  C   UNL     1      48.350   8.498  15.711  0.00  0.00    +0.000 A 
ATOM      3  C   UNL     1      47.739   8.519  14.453  0.00  0.00    +0.000 A 
ATOM      4  C   UNL     1      48.345   7.890  13.364  0.00  0.00    +0.000 A 
ATOM      5  C   UNL     1      49.605   7.310  13.543  0.00  0.00    +0.000 A 
ATOM      6  C   UNL     1      50.209   7.279  14.808  0.00  0.00    +0.000 A 
ENDROOT
BRANCH   1   7
ATOM      7  C   UNL     1      50.172   7.789  17.340  0.00  0.00    +0.000 C 
BRANCH   7   8
ATOM      8  N   UNL     1      50.309   9.160  17.875  0.00  0.00    +0.000 NA
ATOM      9  H   UNL     1      49.768   9.240  18.735  0.00  0.00    +0.000 HD
ATOM     10  H   UNL     1      49.882   9.807  17.213  0.00  0.00    +0.000 HD
ENDBRANCH   7   8
BRANCH   7  11
ATOM     11  C   UNL     1      49.371   6.913  18.345  0.00  0.00    +0.000 C 
BRANCH  11  12
ATOM     12  C   UNL     1      49.013   5.519  17.869  0.00  0.00    +0.000 A 
ATOM     13  C   UNL     1      50.008   4.537  17.756  0.00  0.00    +0.000 A 
ATOM     14  C   UNL     1      49.682   3.234  17.377  0.00  0.00    +0.000 A 
ATOM     15  C   UNL     1      48.358   2.897  17.104  0.00  0.00    +0.000 A 
ATOM     16  C   UNL     1      47.361   3.865  17.203  0.00  0.00    +0.000 A 
ATOM     17  C   UNL     1      47.684   5.170  17.584  0.00  0.00    +0.000 A 
ENDBRANCH  11  12
ENDBRANCH   7  11
ENDBRANCH   1   7
BRANCH   4  18
ATOM     18  C   UNL     1      47.671   7.860  12.019  0.00  0.00    +0.000 C 
BRANCH  18  19
ATOM     19  N   UNL     1      46.959   6.627  11.819  0.00  0.00    +0.000 N 
ATOM     20  C   UNL     1      45.588   6.595  11.791  0.00  0.00    +0.000 C 
ATOM     21  O   UNL     1      44.907   7.612  11.894  0.00  0.00    +0.000 OA
ATOM     22  H   UNL     1      47.479   5.767  11.964  0.00  0.00    +0.000 HD
BRANCH  20  23
ATOM     23  C   UNL     1      44.974   5.280  11.564  0.00  0.00    +0.000 A 
ATOM     24  C   UNL     1      44.275   4.660  12.589  0.00  0.00    +0.000 A 
ATOM     25  S   UNL     1      43.588   3.165  12.141  0.00  0.00    +0.000 S 
ATOM     26  C   UNL     1      44.245   3.271  10.575  0.00  0.00    +0.000 A 
ATOM     27  N   UNL     1      44.051   2.276   9.665  0.00  0.00    +0.000 NA
ATOM     28  C   UNL     1      44.625   2.477   8.526  0.00  0.00    +0.000 A 
ATOM     29  N   UNL     1      45.370   3.583   8.211  0.00  0.00    +0.000 N 
ATOM     30  C   UNL     1      45.572   4.622   9.087  0.00  0.00    +0.000 A 
ATOM     31  O   UNL     1      46.212   5.612   8.756  0.00  0.00    +0.000 OA
ATOM     32  C   UNL     1      44.958   4.441  10.389  0.00  0.00    +0.000 A 
ATOM     33  H   UNL     1      45.783   3.687   7.296  0.00  0.00    +0.000 HD
ENDBRANCH  20  23
ENDBRANCH  18  19
ENDBRANCH   4  18
TORSDOF 7
ENDMDL
