MODEL 1
REMARK VINA RESULT:    -8.442      0.000      0.000
REMARK INTER + INTRA:         -12.816
REMARK INTER:                 -11.896
REMARK INTRA:                  -0.919
REMARK UNBOUND:                -0.919
REMARK  Name = 
REMARK  9 active torsions:
REMARK  status: ('A' for Active; 'I' for Inactive)
REMARK    1  A    between atoms: C_1  and  C_2
REMARK    2  A    between atoms: C_5  and  C_6
REMARK    3  A    between atoms: N_8  and  C_9
REMARK    4  A    between atoms: C_9  and  C_10
REMARK    5  A    between atoms: C_13  and  O_14
REMARK    6  A    between atoms: O_14  and  C_15
REMARK    7  A    between atoms: C_15  and  C_16
REMARK    8  A    between atoms: C_16  and  C_17
REMARK    9  A    between atoms: C_28  and  C_29
REMARK                            x       y       z     vdW  Elec       q    Type
REMARK                         _______ _______ _______ _____ _____    ______ ____
ROOT
ATOM      1  C   UNL     1      47.831   6.590  13.882  0.00  0.00    +0.000 C 
ENDROOT
BRANCH   1   2
ATOM      2  C   UNL     1      46.745   6.031  12.989  0.00  0.00    +0.000 A 
ATOM      3  C   UNL     1      45.888   5.037  13.475  0.00  0.00    +0.000 A 
ATOM      4  C   UNL     1      44.832   4.548  12.697  0.00  0.00    +0.000 A 
ATOM      5  C   UNL     1      44.615   5.046  11.410  0.00  0.00    +0.000 A 
ATOM      6  C   UNL     1      45.475   6.022  10.909  0.00  0.00    +0.000 A 
ATOM      7  C   UNL     1      46.532   6.511  11.689  0.00  0.00    +0.000 A 
BRANCH   5   8
ATOM      8  O   UNL     1      43.629   4.630  10.548  0.00  0.00    +0.000 OA
BRANCH   8   9
ATOM      9  C   UNL     1      44.096   4.242   9.254  0.00  0.00    +0.000 C 
BRANCH   9  10
ATOM     10  C   UNL     1      44.626   2.808   9.298  0.00  0.00    +0.000 C 
BRANCH  10  11
ATOM     11  C   UNL     1      45.662   2.534   8.230  0.00  0.00    +0.000 A 
ATOM     12  C   UNL     1      46.316   1.296   8.148  0.00  0.00    +0.000 A 
ATOM     13  C   UNL     1      47.228   1.039   7.117  0.00  0.00    +0.000 A 
ATOM     14  C   UNL     1      47.505   2.021   6.168  0.00  0.00    +0.000 A 
ATOM     15  C   UNL     1      46.887   3.266   6.263  0.00  0.00    +0.000 A 
ATOM     16  C   UNL     1      45.978   3.524   7.291  0.00  0.00    +0.000 A 
ENDBRANCH  10  11
ENDBRANCH   9  10
ENDBRANCH   8   9
ENDBRANCH   5   8
ENDBRANCH   1   2
BRANCH   1  19
ATOM     17  C   UNL     1      48.936   6.108  16.019  0.00  0.00    +0.000 C 
ATOM     18  O   UNL     1      50.032   6.464  15.598  0.00  0.00    +0.000 OA
ATOM     19  N   UNL     1      47.787   6.138  15.246  0.00  0.00    +0.000 N 
ATOM     20  H   UNL     1      46.923   5.779  15.655  0.00  0.00    +0.000 HD
BRANCH  17  25
ATOM     21  C   UNL     1      47.264   8.798  20.863  0.00  0.00    +0.000 C 
ATOM     22  C   UNL     1      47.683   7.576  20.144  0.00  0.00    +0.000 A 
ATOM     23  N   UNL     1      47.992   7.641  18.785  0.00  0.00    +0.000 NA
ATOM     24  C   UNL     1      48.313   6.401  18.491  0.00  0.00    +0.000 A 
ATOM     25  C   UNL     1      48.724   5.600  17.409  0.00  0.00    +0.000 C 
ATOM     26  C   UNL     1      48.849   4.355  17.949  0.00  0.00    +0.000 C 
ATOM     27  N   UNL     1      48.565   4.213  19.290  0.00  0.00    +0.000 NA
ATOM     28  N   UNL     1      48.225   5.588  19.565  0.00  0.00    +0.000 N 
ATOM     29  C   UNL     1      47.818   6.282  20.654  0.00  0.00    +0.000 A 
ATOM     30  C   UNL     1      47.593   5.733  22.002  0.00  0.00    +0.000 C 
ENDBRANCH  17  25
ENDBRANCH   1  19
TORSDOF 7
ENDMDL
MODEL 2
REMARK VINA RESULT:    -8.220      1.595      2.427
REMARK INTER + INTRA:         -12.503
REMARK INTER:                 -11.244
REMARK INTRA:                  -1.259
REMARK UNBOUND:                -0.919
REMARK  Name = 
REMARK  9 active torsions:
REMARK  status: ('A' for Active; 'I' for Inactive)
REMARK    1  A    between atoms: C_1  and  C_2
REMARK    2  A    between atoms: C_5  and  C_6
REMARK    3  A    between atoms: N_8  and  C_9
REMARK    4  A    between atoms: C_9  and  C_10
REMARK    5  A    between atoms: C_13  and  O_14
REMARK    6  A    between atoms: O_14  and  C_15
REMARK    7  A    between atoms: C_15  and  C_16
REMARK    8  A    between atoms: C_16  and  C_17
REMARK    9  A    between atoms: C_28  and  C_29
REMARK                            x       y       z     vdW  Elec       q    Type
REMARK                         _______ _______ _______ _____ _____    ______ ____
ROOT
ATOM      1  C   UNL     1      48.351   6.992  13.144  0.00  0.00    +0.000 C 
ENDROOT
BRANCH   1   2
ATOM      2  C   UNL     1      47.215   6.166  12.581  0.00  0.00    +0.000 A 
ATOM      3  C   UNL     1      46.735   5.064  13.298  0.00  0.00    +0.000 A 
ATOM      4  C   UNL     1      45.642   4.321  12.835  0.00  0.00    +0.000 A 
ATOM      5  C   UNL     1      45.009   4.667  11.639  0.00  0.00    +0.000 A 
ATOM      6  C   UNL     1      45.493   5.750  10.907  0.00  0.00    +0.000 A 
ATOM      7  C   UNL     1      46.587   6.493  11.371  0.00  0.00    +0.000 A 
BRANCH   5   8
ATOM      8  O   UNL     1      43.946   4.002  11.076  0.00  0.00    +0.000 OA
BRANCH   8   9
ATOM      9  C   UNL     1      44.093   3.720   9.683  0.00  0.00    +0.000 C 
BRANCH   9  10
ATOM     10  C   UNL     1      44.779   2.366   9.493  0.00  0.00    +0.000 C 
BRANCH  10  11
ATOM     11  C   UNL     1      45.732   2.352   8.318  0.00  0.00    +0.000 A 
ATOM     12  C   UNL     1      46.478   1.209   7.997  0.00  0.00    +0.000 A 
ATOM     13  C   UNL     1      47.310   1.195   6.871  0.00  0.00    +0.000 A 
ATOM     14  C   UNL     1      47.414   2.327   6.064  0.00  0.00    +0.000 A 
ATOM     15  C   UNL     1      46.705   3.479   6.397  0.00  0.00    +0.000 A 
ATOM     16  C   UNL     1      45.875   3.495   7.520  0.00  0.00    +0.000 A 
ENDBRANCH  10  11
ENDBRANCH   9  10
ENDBRANCH   8   9
ENDBRANCH   5   8
ENDBRANCH   1   2
BRANCH   1  19
ATOM     17  C   UNL     1      48.562   7.865  15.428  0.00  0.00    +0.000 C 
ATOM     18  O   UNL     1      48.303   9.011  15.075  0.00  0.00    +0.000 OA
ATOM     19  N   UNL     1      48.605   6.797  14.545  0.00  0.00    +0.000 N 
ATOM     20  H   UNL     1      48.875   5.883  14.910  0.00  0.00    +0.000 HD
BRANCH  17  25
ATOM     21  C   UNL     1      51.228   3.262  17.708  0.00  0.00    +0.000 C 
ATOM     22  C   UNL     1      50.535   4.558  17.860  0.00  0.00    +0.000 A 
ATOM     23  N   UNL     1      50.073   5.236  16.732  0.00  0.00    +0.000 NA
ATOM     24  C   UNL     1      49.526   6.319  17.235  0.00  0.00    +0.000 A 
ATOM     25  C   UNL     1      48.861   7.497  16.845  0.00  0.00    +0.000 C 
ATOM     26  C   UNL     1      48.608   8.137  18.022  0.00  0.00    +0.000 C 
ATOM     27  N   UNL     1      49.029   7.526  19.182  0.00  0.00    +0.000 NA
ATOM     28  N   UNL     1      49.615   6.351  18.583  0.00  0.00    +0.000 N 
ATOM     29  C   UNL     1      50.260   5.252  19.041  0.00  0.00    +0.000 A 
ATOM     30  C   UNL     1      50.560   4.945  20.450  0.00  0.00    +0.000 C 
ENDBRANCH  17  25
ENDBRANCH   1  19
TORSDOF 7
ENDMDL
MODEL 3
REMARK VINA RESULT:    -8.218      1.206      1.803
REMARK INTER + INTRA:         -12.501
REMARK INTER:                 -11.274
REMARK INTRA:                  -1.226
REMARK UNBOUND:                -0.919
REMARK  Name = 
REMARK  9 active torsions:
REMARK  status: ('A' for Active; 'I' for Inactive)
REMARK    1  A    between atoms: C_1  and  C_2
REMARK    2  A    between atoms: C_5  and  C_6
REMARK    3  A    between atoms: N_8  and  C_9
REMARK    4  A    between atoms: C_9  and  C_10
REMARK    5  A    between atoms: C_13  and  O_14
REMARK    6  A    between atoms: O_14  and  C_15
REMARK    7  A    between atoms: C_15  and  C_16
REMARK    8  A    between atoms: C_16  and  C_17
REMARK    9  A    between atoms: C_28  and  C_29
REMARK                            x       y       z     vdW  Elec       q    Type
REMARK                         _______ _______ _______ _____ _____    ______ ____
ROOT
ATOM      1  C   UNL     1      48.273   6.200  14.279  0.00  0.00    +0.000 C 
ENDROOT
BRANCH   1   2
ATOM      2  C   UNL     1      47.031   5.767  13.530  0.00  0.00    +0.000 A 
ATOM      3  C   UNL     1      46.276   6.714  12.829  0.00  0.00    +0.000 A 
ATOM      4  C   UNL     1      45.161   6.333  12.072  0.00  0.00    +0.000 A 
ATOM      5  C   UNL     1      44.779   4.992  12.005  0.00  0.00    +0.000 A 
ATOM      6  C   UNL     1      45.512   4.044  12.716  0.00  0.00    +0.000 A 
ATOM      7  C   UNL     1      46.628   4.425  13.474  0.00  0.00    +0.000 A 
BRANCH   5   8
ATOM      8  O   UNL     1      43.694   4.504  11.316  0.00  0.00    +0.000 OA
BRANCH   8   9
ATOM      9  C   UNL     1      44.009   3.498  10.350  0.00  0.00    +0.000 C 
BRANCH   9  10
ATOM     10  C   UNL     1      44.571   4.145   9.085  0.00  0.00    +0.000 C 
BRANCH  10  11
ATOM     11  C   UNL     1      45.486   3.220   8.311  0.00  0.00    +0.000 A 
ATOM     12  C   UNL     1      46.265   3.689   7.243  0.00  0.00    +0.000 A 
ATOM     13  C   UNL     1      47.150   2.833   6.578  0.00  0.00    +0.000 A 
ATOM     14  C   UNL     1      47.255   1.498   6.963  0.00  0.00    +0.000 A 
ATOM     15  C   UNL     1      46.458   1.015   7.999  0.00  0.00    +0.000 A 
ATOM     16  C   UNL     1      45.574   1.867   8.664  0.00  0.00    +0.000 A 
ENDBRANCH  10  11
ENDBRANCH   9  10
ENDBRANCH   8   9
ENDBRANCH   5   8
ENDBRANCH   1   2
BRANCH   1  19
ATOM     17  C   UNL     1      48.420   5.443  16.609  0.00  0.00    +0.000 C 
ATOM     18  O   UNL     1      48.893   4.358  16.286  0.00  0.00    +0.000 OA
ATOM     19  N   UNL     1      48.084   6.422  15.687  0.00  0.00    +0.000 N 
ATOM     20  H   UNL     1      47.650   7.279  16.032  0.00  0.00    +0.000 HD
BRANCH  17  25
ATOM     21  C   UNL     1      47.496  10.595  19.079  0.00  0.00    +0.000 C 
ATOM     22  C   UNL     1      47.630   9.126  19.170  0.00  0.00    +0.000 A 
ATOM     23  N   UNL     1      47.902   8.381  18.022  0.00  0.00    +0.000 NA
ATOM     24  C   UNL     1      47.950   7.147  18.470  0.00  0.00    +0.000 A 
ATOM     25  C   UNL     1      48.152   5.825  18.029  0.00  0.00    +0.000 C 
ATOM     26  C   UNL     1      48.033   5.078  19.163  0.00  0.00    +0.000 C 
ATOM     27  N   UNL     1      47.769   5.744  20.339  0.00  0.00    +0.000 NA
ATOM     28  N   UNL     1      47.730   7.082  19.801  0.00  0.00    +0.000 N 
ATOM     29  C   UNL     1      47.510   8.320  20.305  0.00  0.00    +0.000 A 
ATOM     30  C   UNL     1      47.219   8.647  21.711  0.00  0.00    +0.000 C 
ENDBRANCH  17  25
ENDBRANCH   1  19
TORSDOF 7
ENDMDL
MODEL 4
REMARK VINA RESULT:    -7.810      1.075      2.011
REMARK INTER + INTRA:         -11.926
REMARK INTER:                 -10.849
REMARK INTRA:                  -1.077
REMARK UNBOUND:                -0.919
REMARK  Name = 
REMARK  9 active torsions:
REMARK  status: ('A' for Active; 'I' for Inactive)
REMARK    1  A    between atoms: C_1  and  C_2
REMARK    2  A    between atoms: C_5  and  C_6
REMARK    3  A    between atoms: N_8  and  C_9
REMARK    4  A    between atoms: C_9  and  C_10
REMARK    5  A    between atoms: C_13  and  O_14
REMARK    6  A    between atoms: O_14  and  C_15
REMARK    7  A    between atoms: C_15  and  C_16
REMARK    8  A    between atoms: C_16  and  C_17
REMARK    9  A    between atoms: C_28  and  C_29
REMARK                            x       y       z     vdW  Elec       q    Type
REMARK                         _______ _______ _______ _____ _____    ______ ____
ROOT
ATOM      1  C   UNL     1      47.802   4.403  15.170  0.00  0.00    +0.000 C 
ENDROOT
BRANCH   1   2
ATOM      2  C   UNL     1      46.899   4.570  13.968  0.00  0.00    +0.000 A 
ATOM      3  C   UNL     1      46.356   3.441  13.343  0.00  0.00    +0.000 A 
ATOM      4  C   UNL     1      45.463   3.567  12.272  0.00  0.00    +0.000 A 
ATOM      5  C   UNL     1      45.099   4.831  11.801  0.00  0.00    +0.000 A 
ATOM      6  C   UNL     1      45.651   5.960  12.402  0.00  0.00    +0.000 A 
ATOM      7  C   UNL     1      46.544   5.834  13.476  0.00  0.00    +0.000 A 
BRANCH   5   8
ATOM      8  O   UNL     1      44.253   5.077  10.746  0.00  0.00    +0.000 OA
BRANCH   8   9
ATOM      9  C   UNL     1      44.047   3.961   9.877  0.00  0.00    +0.000 C 
BRANCH   9  10
ATOM     10  C   UNL     1      44.615   4.266   8.491  0.00  0.00    +0.000 C 
BRANCH  10  11
ATOM     11  C   UNL     1      45.625   3.236   8.032  0.00  0.00    +0.000 A 
ATOM     12  C   UNL     1      45.576   1.912   8.490  0.00  0.00    +0.000 A 
ATOM     13  C   UNL     1      46.482   0.959   8.009  0.00  0.00    +0.000 A 
ATOM     14  C   UNL     1      47.452   1.323   7.078  0.00  0.00    +0.000 A 
ATOM     15  C   UNL     1      47.531   2.646   6.646  0.00  0.00    +0.000 A 
ATOM     16  C   UNL     1      46.629   3.598   7.125  0.00  0.00    +0.000 A 
ENDBRANCH  10  11
ENDBRANCH   9  10
ENDBRANCH   8   9
ENDBRANCH   5   8
ENDBRANCH   1   2
BRANCH   1  19
ATOM     17  C   UNL     1      48.723   6.342  16.359  0.00  0.00    +0.000 C 
ATOM     18  O   UNL     1      49.765   6.316  15.712  0.00  0.00    +0.000 OA
ATOM     19  N   UNL     1      47.691   5.438  16.160  0.00  0.00    +0.000 N 
ATOM     20  H   UNL     1      46.877   5.496  16.773  0.00  0.00    +0.000 HD
BRANCH  17  25
ATOM     21  C   UNL     1      47.291   5.701  21.930  0.00  0.00    +0.000 C 
ATOM     22  C   UNL     1      47.597   6.560  20.767  0.00  0.00    +0.000 A 
ATOM     23  N   UNL     1      47.897   5.980  19.534  0.00  0.00    +0.000 NA
ATOM     24  C   UNL     1      48.110   7.018  18.758  0.00  0.00    +0.000 A 
ATOM     25  C   UNL     1      48.456   7.346  17.433  0.00  0.00    +0.000 C 
ATOM     26  C   UNL     1      48.479   8.709  17.428  0.00  0.00    +0.000 C 
ATOM     27  N   UNL     1      48.188   9.355  18.608  0.00  0.00    +0.000 NA
ATOM     28  N   UNL     1      47.960   8.185  19.421  0.00  0.00    +0.000 N 
ATOM     29  C   UNL     1      47.639   7.956  20.717  0.00  0.00    +0.000 A 
ATOM     30  C   UNL     1      47.414   8.980  21.750  0.00  0.00    +0.000 C 
ENDBRANCH  17  25
ENDBRANCH   1  19
TORSDOF 7
ENDMDL
MODEL 5
REMARK VINA RESULT:    -6.998      2.505      3.508
REMARK INTER + INTRA:         -10.781
REMARK INTER:                  -9.682
REMARK INTRA:                  -1.098
REMARK UNBOUND:                -0.919
REMARK  Name = 
REMARK  9 active torsions:
REMARK  status: ('A' for Active; 'I' for Inactive)
REMARK    1  A    between atoms: C_1  and  C_2
REMARK    2  A    between atoms: C_5  and  C_6
REMARK    3  A    between atoms: N_8  and  C_9
REMARK    4  A    between atoms: C_9  and  C_10
REMARK    5  A    between atoms: C_13  and  O_14
REMARK    6  A    between atoms: O_14  and  C_15
REMARK    7  A    between atoms: C_15  and  C_16
REMARK    8  A    between atoms: C_16  and  C_17
REMARK    9  A    between atoms: C_28  and  C_29
REMARK                            x       y       z     vdW  Elec       q    Type
REMARK                         _______ _______ _______ _____ _____    ______ ____
ROOT
ATOM      1  C   UNL     1      48.528   9.414  13.040  0.00  0.00    +0.000 C 
ENDROOT
BRANCH   1   2
ATOM      2  C   UNL     1      47.457   8.531  12.439  0.00  0.00    +0.000 A 
ATOM      3  C   UNL     1      47.803   7.283  11.906  0.00  0.00    +0.000 A 
ATOM      4  C   UNL     1      46.825   6.415  11.404  0.00  0.00    +0.000 A 
ATOM      5  C   UNL     1      45.478   6.783  11.424  0.00  0.00    +0.000 A 
ATOM      6  C   UNL     1      45.126   8.031  11.933  0.00  0.00    +0.000 A 
ATOM      7  C   UNL     1      46.105   8.900  12.435  0.00  0.00    +0.000 A 
BRANCH   5   8
ATOM      8  O   UNL     1      44.437   6.027  10.941  0.00  0.00    +0.000 OA
BRANCH   8   9
ATOM      9  C   UNL     1      44.740   4.641  10.768  0.00  0.00    +0.000 C 
BRANCH   9  10
ATOM     10  C   UNL     1      44.216   4.155   9.416  0.00  0.00    +0.000 C 
BRANCH  10  11
ATOM     11  C   UNL     1      45.240   3.351   8.645  0.00  0.00    +0.000 A 
ATOM     12  C   UNL     1      45.375   1.968   8.836  0.00  0.00    +0.000 A 
ATOM     13  C   UNL     1      46.287   1.231   8.071  0.00  0.00    +0.000 A 
ATOM     14  C   UNL     1      47.080   1.869   7.120  0.00  0.00    +0.000 A 
ATOM     15  C   UNL     1      46.978   3.249   6.950  0.00  0.00    +0.000 A 
ATOM     16  C   UNL     1      46.070   3.986   7.713  0.00  0.00    +0.000 A 
ENDBRANCH  10  11
ENDBRANCH   9  10
ENDBRANCH   8   9
ENDBRANCH   5   8
ENDBRANCH   1   2
BRANCH   1  19
ATOM     17  C   UNL     1      50.713   8.542  13.736  0.00  0.00    +0.000 C 
ATOM     18  O   UNL     1      51.246   8.878  12.683  0.00  0.00    +0.000 OA
ATOM     19  N   UNL     1      49.373   8.768  14.007  0.00  0.00    +0.000 N 
ATOM     20  H   UNL     1      48.995   8.415  14.887  0.00  0.00    +0.000 HD
BRANCH  17  25
ATOM     21  C   UNL     1      48.974   4.652  17.652  0.00  0.00    +0.000 C 
ATOM     22  C   UNL     1      50.027   5.501  17.056  0.00  0.00    +0.000 A 
ATOM     23  N   UNL     1      49.723   6.331  15.977  0.00  0.00    +0.000 NA
ATOM     24  C   UNL     1      50.868   6.919  15.718  0.00  0.00    +0.000 A 
ATOM     25  C   UNL     1      51.450   7.851  14.837  0.00  0.00    +0.000 C 
ATOM     26  C   UNL     1      52.750   7.918  15.242  0.00  0.00    +0.000 C 
ATOM     27  N   UNL     1      53.126   7.131  16.308  0.00  0.00    +0.000 NA
ATOM     28  N   UNL     1      51.846   6.514  16.557  0.00  0.00    +0.000 N 
ATOM     29  C   UNL     1      51.369   5.598  17.433  0.00  0.00    +0.000 A 
ATOM     30  C   UNL     1      52.142   4.918  18.487  0.00  0.00    +0.000 C 
ENDBRANCH  17  25
ENDBRANCH   1  19
TORSDOF 7
ENDMDL
MODEL 6
REMARK VINA RESULT:    -6.878      3.321      9.325
REMARK INTER + INTRA:         -10.611
REMARK INTER:                  -9.242
REMARK INTRA:                  -1.370
REMARK UNBOUND:                -0.919
REMARK  Name = 
REMARK  9 active torsions:
REMARK  status: ('A' for Active; 'I' for Inactive)
REMARK    1  A    between atoms: C_1  and  C_2
REMARK    2  A    between atoms: C_5  and  C_6
REMARK    3  A    between atoms: N_8  and  C_9
REMARK    4  A    between atoms: C_9  and  C_10
REMARK    5  A    between atoms: C_13  and  O_14
REMARK    6  A    between atoms: O_14  and  C_15
REMARK    7  A    between atoms: C_15  and  C_16
REMARK    8  A    between atoms: C_16  and  C_17
REMARK    9  A    between atoms: C_28  and  C_29
REMARK                            x       y       z     vdW  Elec       q    Type
REMARK                         _______ _______ _______ _____ _____    ______ ____
ROOT
ATOM      1  C   UNL     1      47.415   8.178  12.131  0.00  0.00    +0.000 C 
ENDROOT
BRANCH   1   2
ATOM      2  C   UNL     1      48.198   8.162  13.425  0.00  0.00    +0.000 A 
ATOM      3  C   UNL     1      49.421   7.483  13.489  0.00  0.00    +0.000 A 
ATOM      4  C   UNL     1      50.201   7.506  14.652  0.00  0.00    +0.000 A 
ATOM      5  C   UNL     1      49.768   8.211  15.777  0.00  0.00    +0.000 A 
ATOM      6  C   UNL     1      48.543   8.873  15.730  0.00  0.00    +0.000 A 
ATOM      7  C   UNL     1      47.762   8.849  14.566  0.00  0.00    +0.000 A 
BRANCH   5   8
ATOM      8  O   UNL     1      50.434   8.287  16.977  0.00  0.00    +0.000 OA
BRANCH   8   9
ATOM      9  C   UNL     1      49.868   7.493  18.022  0.00  0.00    +0.000 C 
BRANCH   9  10
ATOM     10  C   UNL     1      50.600   6.154  18.115  0.00  0.00    +0.000 C 
BRANCH  10  11
ATOM     11  C   UNL     1      49.764   4.994  17.619  0.00  0.00    +0.000 A 
ATOM     12  C   UNL     1      50.253   3.680  17.641  0.00  0.00    +0.000 A 
ATOM     13  C   UNL     1      49.443   2.613  17.234  0.00  0.00    +0.000 A 
ATOM     14  C   UNL     1      48.145   2.850  16.789  0.00  0.00    +0.000 A 
ATOM     15  C   UNL     1      47.663   4.156  16.729  0.00  0.00    +0.000 A 
ATOM     16  C   UNL     1      48.469   5.222  17.134  0.00  0.00    +0.000 A 
ENDBRANCH  10  11
ENDBRANCH   9  10
ENDBRANCH   8   9
ENDBRANCH   5   8
ENDBRANCH   1   2
BRANCH   1  19
ATOM     17  C   UNL     1      45.429   6.836  11.605  0.00  0.00    +0.000 C 
ATOM     18  O   UNL     1      44.676   7.797  11.731  0.00  0.00    +0.000 OA
ATOM     19  N   UNL     1      46.800   6.927  11.779  0.00  0.00    +0.000 N 
ATOM     20  H   UNL     1      47.352   6.071  11.704  0.00  0.00    +0.000 HD
BRANCH  17  25
ATOM     21  C   UNL     1      46.311   3.550   6.924  0.00  0.00    +0.000 C 
ATOM     22  C   UNL     1      45.709   3.761   8.257  0.00  0.00    +0.000 A 
ATOM     23  N   UNL     1      45.922   4.963   8.932  0.00  0.00    +0.000 NA
ATOM     24  C   UNL     1      45.256   4.800  10.052  0.00  0.00    +0.000 A 
ATOM     25  C   UNL     1      44.947   5.465  11.254  0.00  0.00    +0.000 C 
ATOM     26  C   UNL     1      44.168   4.576  11.933  0.00  0.00    +0.000 C 
ATOM     27  N   UNL     1      43.909   3.367  11.326  0.00  0.00    +0.000 NA
ATOM     28  N   UNL     1      44.651   3.594  10.110  0.00  0.00    +0.000 N 
ATOM     29  C   UNL     1      44.912   2.878   8.990  0.00  0.00    +0.000 A 
ATOM     30  C   UNL     1      44.439   1.515   8.699  0.00  0.00    +0.000 C 
ENDBRANCH  17  25
ENDBRANCH   1  19
TORSDOF 7
ENDMDL
MODEL 7
REMARK VINA RESULT:    -6.524      1.694      2.529
REMARK INTER + INTRA:         -10.113
REMARK INTER:                  -9.241
REMARK INTRA:                  -0.872
REMARK UNBOUND:                -0.919
REMARK  Name = 
REMARK  9 active torsions:
REMARK  status: ('A' for Active; 'I' for Inactive)
REMARK    1  A    between atoms: C_1  and  C_2
REMARK    2  A    between atoms: C_5  and  C_6
REMARK    3  A    between atoms: N_8  and  C_9
REMARK    4  A    between atoms: C_9  and  C_10
REMARK    5  A    between atoms: C_13  and  O_14
REMARK    6  A    between atoms: O_14  and  C_15
REMARK    7  A    between atoms: C_15  and  C_16
REMARK    8  A    between atoms: C_16  and  C_17
REMARK    9  A    between atoms: C_28  and  C_29
REMARK                            x       y       z     vdW  Elec       q    Type
REMARK                         _______ _______ _______ _____ _____    ______ ____
ROOT
ATOM      1  C   UNL     1      48.935   8.573  13.803  0.00  0.00    +0.000 C 
ENDROOT
BRANCH   1   2
ATOM      2  C   UNL     1      47.696   7.856  13.313  0.00  0.00    +0.000 A 
ATOM      3  C   UNL     1      46.557   8.594  12.968  0.00  0.00    +0.000 A 
ATOM      4  C   UNL     1      45.419   7.965  12.448  0.00  0.00    +0.000 A 
ATOM      5  C   UNL     1      45.398   6.580  12.267  0.00  0.00    +0.000 A 
ATOM      6  C   UNL     1      46.519   5.835  12.627  0.00  0.00    +0.000 A 
ATOM      7  C   UNL     1      47.659   6.465  13.147  0.00  0.00    +0.000 A 
BRANCH   5   8
ATOM      8  O   UNL     1      44.335   5.853  11.788  0.00  0.00    +0.000 OA
BRANCH   8   9
ATOM      9  C   UNL     1      44.663   4.525  11.371  0.00  0.00    +0.000 C 
BRANCH   9  10
ATOM     10  C   UNL     1      44.079   4.253   9.985  0.00  0.00    +0.000 C 
BRANCH  10  11
ATOM     11  C   UNL     1      45.050   3.539   9.070  0.00  0.00    +0.000 A 
ATOM     12  C   UNL     1      45.233   2.150   9.141  0.00  0.00    +0.000 A 
ATOM     13  C   UNL     1      46.090   1.499   8.247  0.00  0.00    +0.000 A 
ATOM     14  C   UNL     1      46.783   2.230   7.284  0.00  0.00    +0.000 A 
ATOM     15  C   UNL     1      46.636   3.614   7.231  0.00  0.00    +0.000 A 
ATOM     16  C   UNL     1      45.782   4.266   8.122  0.00  0.00    +0.000 A 
ENDBRANCH  10  11
ENDBRANCH   9  10
ENDBRANCH   8   9
ENDBRANCH   5   8
ENDBRANCH   1   2
BRANCH   1  19
ATOM     17  C   UNL     1      49.675   7.793  16.008  0.00  0.00    +0.000 C 
ATOM     18  O   UNL     1      50.216   6.797  15.538  0.00  0.00    +0.000 OA
ATOM     19  N   UNL     1      49.019   8.732  15.229  0.00  0.00    +0.000 N 
ATOM     20  H   UNL     1      48.553   9.508  15.701  0.00  0.00    +0.000 HD
BRANCH  17  25
ATOM     21  C   UNL     1      48.592   4.450  20.606  0.00  0.00    +0.000 C 
ATOM     22  C   UNL     1      48.945   5.758  20.017  0.00  0.00    +0.000 A 
ATOM     23  N   UNL     1      49.049   5.891  18.632  0.00  0.00    +0.000 NA
ATOM     24  C   UNL     1      49.370   7.155  18.476  0.00  0.00    +0.000 A 
ATOM     25  C   UNL     1      49.662   8.098  17.471  0.00  0.00    +0.000 C 
ATOM     26  C   UNL     1      49.911   9.247  18.162  0.00  0.00    +0.000 C 
ATOM     27  N   UNL     1      49.822   9.196  19.535  0.00  0.00    +0.000 NA
ATOM     28  N   UNL     1      49.467   7.803  19.657  0.00  0.00    +0.000 N 
ATOM     29  C   UNL     1      49.214   6.956  20.684  0.00  0.00    +0.000 A 
ATOM     30  C   UNL     1      49.241   7.295  22.116  0.00  0.00    +0.000 C 
ENDBRANCH  17  25
ENDBRANCH   1  19
TORSDOF 7
ENDMDL
MODEL 8
REMARK VINA RESULT:    -6.499      3.718      9.269
REMARK INTER + INTRA:         -10.078
REMARK INTER:                  -8.048
REMARK INTRA:                  -2.030
REMARK UNBOUND:                -0.919
REMARK  Name = 
REMARK  9 active torsions:
REMARK  status: ('A' for Active; 'I' for Inactive)
REMARK    1  A    between atoms: C_1  and  C_2
REMARK    2  A    between atoms: C_5  and  C_6
REMARK    3  A    between atoms: N_8  and  C_9
REMARK    4  A    between atoms: C_9  and  C_10
REMARK    5  A    between atoms: C_13  and  O_14
REMARK    6  A    between atoms: O_14  and  C_15
REMARK    7  A    between atoms: C_15  and  C_16
REMARK    8  A    between atoms: C_16  and  C_17
REMARK    9  A    between atoms: C_28  and  C_29
REMARK                            x       y       z     vdW  Elec       q    Type
REMARK                         _______ _______ _______ _____ _____    ______ ____
ROOT
ATOM      1  C   UNL     1      48.074   8.829  14.708  0.00  0.00    +0.000 C 
ENDROOT
BRANCH   1   2
ATOM      2  C   UNL     1      48.609   8.908  16.122  0.00  0.00    +0.000 A 
ATOM      3  C   UNL     1      49.903   8.455  16.402  0.00  0.00    +0.000 A 
ATOM      4  C   UNL     1      50.449   8.577  17.686  0.00  0.00    +0.000 A 
ATOM      5  C   UNL     1      49.705   9.155  18.717  0.00  0.00    +0.000 A 
ATOM      6  C   UNL     1      48.408   9.590  18.453  0.00  0.00    +0.000 A 
ATOM      7  C   UNL     1      47.862   9.468  17.168  0.00  0.00    +0.000 A 
BRANCH   5   8
ATOM      8  O   UNL     1      50.126   9.307  20.017  0.00  0.00    +0.000 OA
BRANCH   8   9
ATOM      9  C   UNL     1      49.262   8.720  20.993  0.00  0.00    +0.000 C 
BRANCH   9  10
ATOM     10  C   UNL     1      49.597   7.239  21.165  0.00  0.00    +0.000 C 
BRANCH  10  11
ATOM     11  C   UNL     1      48.917   6.361  20.136  0.00  0.00    +0.000 A 
ATOM     12  C   UNL     1      47.536   6.441  19.907  0.00  0.00    +0.000 A 
ATOM     13  C   UNL     1      46.934   5.664  18.910  0.00  0.00    +0.000 A 
ATOM     14  C   UNL     1      47.703   4.792  18.143  0.00  0.00    +0.000 A 
ATOM     15  C   UNL     1      49.070   4.679  18.389  0.00  0.00    +0.000 A 
ATOM     16  C   UNL     1      49.672   5.452  19.384  0.00  0.00    +0.000 A 
ENDBRANCH  10  11
ENDBRANCH   9  10
ENDBRANCH   8   9
ENDBRANCH   5   8
ENDBRANCH   1   2
BRANCH   1  19
ATOM     17  C   UNL     1      48.012   6.547  13.810  0.00  0.00    +0.000 C 
ATOM     18  O   UNL     1      49.208   6.561  13.536  0.00  0.00    +0.000 OA
ATOM     19  N   UNL     1      47.362   7.620  14.397  0.00  0.00    +0.000 N 
ATOM     20  H   UNL     1      46.355   7.548  14.549  0.00  0.00    +0.000 HD
BRANCH  17  25
ATOM     21  C   UNL     1      42.808   6.168  11.306  0.00  0.00    +0.000 C 
ATOM     22  C   UNL     1      43.972   5.539  11.964  0.00  0.00    +0.000 A 
ATOM     23  N   UNL     1      45.040   6.328  12.391  0.00  0.00    +0.000 NA
ATOM     24  C   UNL     1      45.870   5.454  12.914  0.00  0.00    +0.000 A 
ATOM     25  C   UNL     1      47.129   5.372  13.539  0.00  0.00    +0.000 C 
ATOM     26  C   UNL     1      47.286   4.041  13.788  0.00  0.00    +0.000 C 
ATOM     27  N   UNL     1      46.269   3.197  13.400  0.00  0.00    +0.000 NA
ATOM     28  N   UNL     1      45.389   4.194  12.841  0.00  0.00    +0.000 N 
ATOM     29  C   UNL     1      44.178   4.183  12.233  0.00  0.00    +0.000 A 
ATOM     30  C   UNL     1      43.354   2.994  11.960  0.00  0.00    +0.000 C 
ENDBRANCH  17  25
ENDBRANCH   1  19
TORSDOF 7
ENDMDL
MODEL 9
REMARK VINA RESULT:    -6.354      3.819     10.207
REMARK INTER + INTRA:          -9.874
REMARK INTER:                  -8.701
REMARK INTRA:                  -1.173
REMARK UNBOUND:                -0.919
REMARK  Name = 
REMARK  9 active torsions:
REMARK  status: ('A' for Active; 'I' for Inactive)
REMARK    1  A    between atoms: C_1  and  C_2
REMARK    2  A    between atoms: C_5  and  C_6
REMARK    3  A    between atoms: N_8  and  C_9
REMARK    4  A    between atoms: C_9  and  C_10
REMARK    5  A    between atoms: C_13  and  O_14
REMARK    6  A    between atoms: O_14  and  C_15
REMARK    7  A    between atoms: C_15  and  C_16
REMARK    8  A    between atoms: C_16  and  C_17
REMARK    9  A    between atoms: C_28  and  C_29
REMARK                            x       y       z     vdW  Elec       q    Type
REMARK                         _______ _______ _______ _____ _____    ______ ____
ROOT
ATOM      1  C   UNL     1      47.347   3.534  15.193  0.00  0.00    +0.000 C 
ENDROOT
BRANCH   1   2
ATOM      2  C   UNL     1      47.811   4.004  16.554  0.00  0.00    +0.000 A 
ATOM      3  C   UNL     1      48.025   5.368  16.784  0.00  0.00    +0.000 A 
ATOM      4  C   UNL     1      48.389   5.840  18.051  0.00  0.00    +0.000 A 
ATOM      5  C   UNL     1      48.549   4.951  19.116  0.00  0.00    +0.000 A 
ATOM      6  C   UNL     1      48.358   3.588  18.893  0.00  0.00    +0.000 A 
ATOM      7  C   UNL     1      47.993   3.116  17.624  0.00  0.00    +0.000 A 
BRANCH   5   8
ATOM      8  O   UNL     1      48.923   5.293  20.393  0.00  0.00    +0.000 OA
BRANCH   8   9
ATOM      9  C   UNL     1      49.094   6.696  20.606  0.00  0.00    +0.000 C 
BRANCH   9  10
ATOM     10  C   UNL     1      48.145   7.178  21.702  0.00  0.00    +0.000 C 
BRANCH  10  11
ATOM     11  C   UNL     1      47.413   8.449  21.327  0.00  0.00    +0.000 A 
ATOM     12  C   UNL     1      47.483   8.975  20.029  0.00  0.00    +0.000 A 
ATOM     13  C   UNL     1      46.752  10.118  19.684  0.00  0.00    +0.000 A 
ATOM     14  C   UNL     1      45.957  10.753  20.635  0.00  0.00    +0.000 A 
ATOM     15  C   UNL     1      45.911  10.259  21.938  0.00  0.00    +0.000 A 
ATOM     16  C   UNL     1      46.640   9.119  22.284  0.00  0.00    +0.000 A 
ENDBRANCH  10  11
ENDBRANCH   9  10
ENDBRANCH   8   9
ENDBRANCH   5   8
ENDBRANCH   1   2
BRANCH   1  19
ATOM     17  C   UNL     1      45.867   4.116  13.324  0.00  0.00    +0.000 C 
ATOM     18  O   UNL     1      45.839   2.960  12.912  0.00  0.00    +0.000 OA
ATOM     19  N   UNL     1      46.582   4.497  14.448  0.00  0.00    +0.000 N 
ATOM     20  H   UNL     1      46.594   5.487  14.697  0.00  0.00    +0.000 HD
BRANCH  17  25
ATOM     21  C   UNL     1      47.219   9.702  12.649  0.00  0.00    +0.000 C 
ATOM     22  C   UNL     1      46.300   8.563  12.443  0.00  0.00    +0.000 A 
ATOM     23  N   UNL     1      46.631   7.304  12.946  0.00  0.00    +0.000 NA
ATOM     24  C   UNL     1      45.611   6.560  12.583  0.00  0.00    +0.000 A 
ATOM     25  C   UNL     1      45.137   5.236  12.657  0.00  0.00    +0.000 C 
ATOM     26  C   UNL     1      43.943   5.277  11.999  0.00  0.00    +0.000 C 
ATOM     27  N   UNL     1      43.546   6.489  11.479  0.00  0.00    +0.000 NA
ATOM     28  N   UNL     1      44.685   7.267  11.902  0.00  0.00    +0.000 N 
ATOM     29  C   UNL     1      45.075   8.558  11.773  0.00  0.00    +0.000 A 
ATOM     30  C   UNL     1      44.333   9.624  11.078  0.00  0.00    +0.000 C 
ENDBRANCH  17  25
ENDBRANCH   1  19
TORSDOF 7
ENDMDL
