MODEL 1
REMARK VINA RESULT:    -7.216      0.000      0.000
REMARK INTER + INTRA:         -10.999
REMARK INTER:                 -10.169
REMARK INTRA:                  -0.831
REMARK UNBOUND:                -0.831
REMARK  Name = 
REMARK  8 active torsions:
REMARK  status: ('A' for Active; 'I' for Inactive)
REMARK    1  A    between atoms: N_1  and  C_2
REMARK    2  A    between atoms: C_2  and  C_3
REMARK    3  A    between atoms: C_7  and  C_8
REMARK    4  A    between atoms: C_8  and  C_9
REMARK    5  A    between atoms: C_9  and  C_10
REMARK    6  A    between atoms: C_10  and  C_11
REMARK    7  A    between atoms: C_13  and  C_14
REMARK    8  A    between atoms: C_14  and  N_15
REMARK                            x       y       z     vdW  Elec       q    Type
REMARK                         _______ _______ _______ _____ _____    ______ ____
ROOT
ATOM      1  C   UNL     1      43.281   3.839  11.157  0.00  0.00    +0.000 C 
ENDROOT
BRANCH   1   2
ATOM      2  C   UNL     1      43.960   2.592  10.583  0.00  0.00    +0.000 C 
BRANCH   2   7
ATOM      3  C   UNL     1      46.472   2.321   7.714  0.00  0.00    +0.000 A 
ATOM      4  C   UNL     1      46.649   3.671   7.387  0.00  0.00    +0.000 A 
ATOM      5  C   UNL     1      45.991   4.666   8.111  0.00  0.00    +0.000 A 
ATOM      6  C   UNL     1      45.141   4.323   9.164  0.00  0.00    +0.000 A 
ATOM      7  C   UNL     1      44.949   2.981   9.509  0.00  0.00    +0.000 A 
ATOM      8  C   UNL     1      45.627   1.989   8.784  0.00  0.00    +0.000 A 
BRANCH   3   9
ATOM      9  C   UNL     1      47.170   1.238   6.931  0.00  0.00    +0.000 C 
BRANCH   9  10
ATOM     10  N   UNL     1      48.379   1.738   6.285  0.00  0.00    +0.000 NA
ATOM     11  H   UNL     1      48.818   2.428   6.890  0.00  0.00    +0.000 HD
ATOM     12  H   UNL     1      48.110   2.230   5.433  0.00  0.00    +0.000 HD
ENDBRANCH   9  10
ENDBRANCH   3   9
ENDBRANCH   2   7
ENDBRANCH   1   2
BRANCH   1  13
ATOM     13  C   UNL     1      43.454   3.952  12.673  0.00  0.00    +0.000 C 
BRANCH  13  14
ATOM     14  C   UNL     1      44.742   4.667  13.006  0.00  0.00    +0.000 A 
ATOM     15  C   UNL     1      44.855   6.048  12.830  0.00  0.00    +0.000 A 
ATOM     16  C   UNL     1      46.083   6.674  13.075  0.00  0.00    +0.000 A 
ATOM     17  C   UNL     1      47.154   5.881  13.494  0.00  0.00    +0.000 A 
ATOM     18  C   UNL     1      46.956   4.520  13.645  0.00  0.00    +0.000 A 
ATOM     19  N   UNL     1      45.781   3.898  13.409  0.00  0.00    +0.000 NA
BRANCH  16  20
ATOM     20  C   UNL     1      46.264   8.150  12.844  0.00  0.00    +0.000 C 
BRANCH  20  21
ATOM     21  N   UNL     1      46.726   8.835  14.045  0.00  0.00    +0.000 NA
ATOM     22  H   UNL     1      46.211   8.476  14.847  0.00  0.00    +0.000 HD
ATOM     23  H   UNL     1      46.492   9.824  13.974  0.00  0.00    +0.000 HD
ENDBRANCH  20  21
ENDBRANCH  16  20
ENDBRANCH  13  14
ENDBRANCH   1  13
TORSDOF 8
ENDMDL
MODEL 2
REMARK VINA RESULT:    -6.819      1.720      6.294
REMARK INTER + INTRA:         -10.440
REMARK INTER:                  -9.805
REMARK INTRA:                  -0.635
REMARK UNBOUND:                -0.831
REMARK  Name = 
REMARK  8 active torsions:
REMARK  status: ('A' for Active; 'I' for Inactive)
REMARK    1  A    between atoms: N_1  and  C_2
REMARK    2  A    between atoms: C_2  and  C_3
REMARK    3  A    between atoms: C_7  and  C_8
REMARK    4  A    between atoms: C_8  and  C_9
REMARK    5  A    between atoms: C_9  and  C_10
REMARK    6  A    between atoms: C_10  and  C_11
REMARK    7  A    between atoms: C_13  and  C_14
REMARK    8  A    between atoms: C_14  and  N_15
REMARK                            x       y       z     vdW  Elec       q    Type
REMARK                         _______ _______ _______ _____ _____    ______ ____
ROOT
ATOM      1  C   UNL     1      43.626   4.222  10.440  0.00  0.00    +0.000 C 
ENDROOT
BRANCH   1   2
ATOM      2  C   UNL     1      43.428   5.453  11.329  0.00  0.00    +0.000 C 
BRANCH   2   7
ATOM      3  C   UNL     1      46.531   5.402  13.561  0.00  0.00    +0.000 A 
ATOM      4  C   UNL     1      47.254   6.480  13.037  0.00  0.00    +0.000 A 
ATOM      5  C   UNL     1      46.728   7.242  11.993  0.00  0.00    +0.000 A 
ATOM      6  C   UNL     1      45.479   6.931  11.455  0.00  0.00    +0.000 A 
ATOM      7  C   UNL     1      44.737   5.858  11.964  0.00  0.00    +0.000 A 
ATOM      8  C   UNL     1      45.269   5.107  13.023  0.00  0.00    +0.000 A 
BRANCH   3   9
ATOM      9  C   UNL     1      47.094   4.565  14.682  0.00  0.00    +0.000 C 
BRANCH   9  10
ATOM     10  N   UNL     1      47.357   3.197  14.249  0.00  0.00    +0.000 NA
ATOM     11  H   UNL     1      48.050   2.780  14.867  0.00  0.00    +0.000 HD
ATOM     12  H   UNL     1      47.778   3.227  13.321  0.00  0.00    +0.000 HD
ENDBRANCH   9  10
ENDBRANCH   3   9
ENDBRANCH   2   7
ENDBRANCH   1   2
BRANCH   1  13
ATOM     13  C   UNL     1      44.186   4.580   9.063  0.00  0.00    +0.000 C 
BRANCH  13  14
ATOM     14  C   UNL     1      45.073   3.471   8.549  0.00  0.00    +0.000 A 
ATOM     15  C   UNL     1      45.901   3.675   7.443  0.00  0.00    +0.000 A 
ATOM     16  C   UNL     1      46.656   2.608   6.942  0.00  0.00    +0.000 A 
ATOM     17  C   UNL     1      46.550   1.370   7.580  0.00  0.00    +0.000 A 
ATOM     18  C   UNL     1      45.708   1.253   8.672  0.00  0.00    +0.000 A 
ATOM     19  N   UNL     1      44.969   2.270   9.166  0.00  0.00    +0.000 NA
BRANCH  16  20
ATOM     20  C   UNL     1      47.517   2.771   5.718  0.00  0.00    +0.000 C 
BRANCH  20  21
ATOM     21  N   UNL     1      48.563   1.757   5.652  0.00  0.00    +0.000 NA
ATOM     22  H   UNL     1      48.200   0.942   5.160  0.00  0.00    +0.000 HD
ATOM     23  H   UNL     1      48.785   1.447   6.596  0.00  0.00    +0.000 HD
ENDBRANCH  20  21
ENDBRANCH  16  20
ENDBRANCH  13  14
ENDBRANCH   1  13
TORSDOF 8
ENDMDL
MODEL 3
REMARK VINA RESULT:    -6.530      1.530      6.208
REMARK INTER + INTRA:         -10.033
REMARK INTER:                  -9.310
REMARK INTRA:                  -0.723
REMARK UNBOUND:                -0.831
REMARK  Name = 
REMARK  8 active torsions:
REMARK  status: ('A' for Active; 'I' for Inactive)
REMARK    1  A    between atoms: N_1  and  C_2
REMARK    2  A    between atoms: C_2  and  C_3
REMARK    3  A    between atoms: C_7  and  C_8
REMARK    4  A    between atoms: C_8  and  C_9
REMARK    5  A    between atoms: C_9  and  C_10
REMARK    6  A    between atoms: C_10  and  C_11
REMARK    7  A    between atoms: C_13  and  C_14
REMARK    8  A    between atoms: C_14  and  N_15
REMARK                            x       y       z     vdW  Elec       q    Type
REMARK                         _______ _______ _______ _____ _____    ______ ____
ROOT
ATOM      1  C   UNL     1      44.647   3.008  11.762  0.00  0.00    +0.000 C 
ENDROOT
BRANCH   1   2
ATOM      2  C   UNL     1      43.935   4.081  12.589  0.00  0.00    +0.000 C 
BRANCH   2   7
ATOM      3  C   UNL     1      46.774   6.568  13.200  0.00  0.00    +0.000 A 
ATOM      4  C   UNL     1      46.331   7.666  12.452  0.00  0.00    +0.000 A 
ATOM      5  C   UNL     1      45.107   7.619  11.785  0.00  0.00    +0.000 A 
ATOM      6  C   UNL     1      44.315   6.472  11.849  0.00  0.00    +0.000 A 
ATOM      7  C   UNL     1      44.737   5.362  12.590  0.00  0.00    +0.000 A 
ATOM      8  C   UNL     1      45.963   5.425  13.269  0.00  0.00    +0.000 A 
BRANCH   3   9
ATOM      9  C   UNL     1      48.100   6.604  13.916  0.00  0.00    +0.000 C 
BRANCH   9  10
ATOM     10  N   UNL     1      49.217   6.525  12.981  0.00  0.00    +0.000 NA
ATOM     11  H   UNL     1      50.089   6.639  13.492  0.00  0.00    +0.000 HD
ATOM     12  H   UNL     1      49.155   7.312  12.335  0.00  0.00    +0.000 HD
ENDBRANCH   9  10
ENDBRANCH   3   9
ENDBRANCH   2   7
ENDBRANCH   1   2
BRANCH   1  13
ATOM     13  C   UNL     1      43.973   2.770  10.409  0.00  0.00    +0.000 C 
BRANCH  13  14
ATOM     14  C   UNL     1      44.941   3.043   9.282  0.00  0.00    +0.000 A 
ATOM     15  C   UNL     1      45.628   1.996   8.665  0.00  0.00    +0.000 A 
ATOM     16  C   UNL     1      46.574   2.284   7.674  0.00  0.00    +0.000 A 
ATOM     17  C   UNL     1      46.791   3.623   7.339  0.00  0.00    +0.000 A 
ATOM     18  C   UNL     1      46.066   4.600   7.999  0.00  0.00    +0.000 A 
ATOM     19  N   UNL     1      45.153   4.341   8.960  0.00  0.00    +0.000 NA
BRANCH  16  20
ATOM     20  C   UNL     1      47.378   1.190   7.023  0.00  0.00    +0.000 C 
BRANCH  20  21
ATOM     21  N   UNL     1      48.304   1.715   6.027  0.00  0.00    +0.000 NA
ATOM     22  H   UNL     1      49.113   2.108   6.505  0.00  0.00    +0.000 HD
ATOM     23  H   UNL     1      47.859   2.487   5.534  0.00  0.00    +0.000 HD
ENDBRANCH  20  21
ENDBRANCH  16  20
ENDBRANCH  13  14
ENDBRANCH   1  13
TORSDOF 8
ENDMDL
MODEL 4
REMARK VINA RESULT:    -6.504      1.566      2.765
REMARK INTER + INTRA:          -9.996
REMARK INTER:                  -9.487
REMARK INTRA:                  -0.509
REMARK UNBOUND:                -0.831
REMARK  Name = 
REMARK  8 active torsions:
REMARK  status: ('A' for Active; 'I' for Inactive)
REMARK    1  A    between atoms: N_1  and  C_2
REMARK    2  A    between atoms: C_2  and  C_3
REMARK    3  A    between atoms: C_7  and  C_8
REMARK    4  A    between atoms: C_8  and  C_9
REMARK    5  A    between atoms: C_9  and  C_10
REMARK    6  A    between atoms: C_10  and  C_11
REMARK    7  A    between atoms: C_13  and  C_14
REMARK    8  A    between atoms: C_14  and  N_15
REMARK                            x       y       z     vdW  Elec       q    Type
REMARK                         _______ _______ _______ _____ _____    ______ ____
ROOT
ATOM      1  C   UNL     1      45.216   5.171   9.958  0.00  0.00    +0.000 C 
ENDROOT
BRANCH   1   2
ATOM      2  C   UNL     1      44.319   4.273   9.101  0.00  0.00    +0.000 C 
BRANCH   2   7
ATOM      3  C   UNL     1      46.760   2.540   6.724  0.00  0.00    +0.000 A 
ATOM      4  C   UNL     1      46.812   1.258   7.285  0.00  0.00    +0.000 A 
ATOM      5  C   UNL     1      46.037   0.943   8.402  0.00  0.00    +0.000 A 
ATOM      6  C   UNL     1      45.208   1.907   8.976  0.00  0.00    +0.000 A 
ATOM      7  C   UNL     1      45.139   3.195   8.433  0.00  0.00    +0.000 A 
ATOM      8  C   UNL     1      45.911   3.497   7.301  0.00  0.00    +0.000 A 
BRANCH   3   9
ATOM      9  C   UNL     1      47.601   2.893   5.524  0.00  0.00    +0.000 C 
BRANCH   9  10
ATOM     10  N   UNL     1      48.585   1.855   5.235  0.00  0.00    +0.000 NA
ATOM     11  H   UNL     1      49.496   2.287   5.100  0.00  0.00    +0.000 HD
ATOM     12  H   UNL     1      48.340   1.415   4.348  0.00  0.00    +0.000 HD
ENDBRANCH   9  10
ENDBRANCH   3   9
ENDBRANCH   2   7
ENDBRANCH   1   2
BRANCH   1  13
ATOM     13  C   UNL     1      44.710   5.301  11.395  0.00  0.00    +0.000 C 
BRANCH  13  14
ATOM     14  C   UNL     1      45.848   5.647  12.327  0.00  0.00    +0.000 A 
ATOM     15  C   UNL     1      46.142   4.835  13.423  0.00  0.00    +0.000 A 
ATOM     16  C   UNL     1      47.153   5.219  14.312  0.00  0.00    +0.000 A 
ATOM     17  C   UNL     1      47.835   6.411  14.058  0.00  0.00    +0.000 A 
ATOM     18  C   UNL     1      47.482   7.157  12.947  0.00  0.00    +0.000 A 
ATOM     19  N   UNL     1      46.507   6.804  12.082  0.00  0.00    +0.000 NA
BRANCH  16  20
ATOM     20  C   UNL     1      47.465   4.401  15.537  0.00  0.00    +0.000 C 
BRANCH  20  21
ATOM     21  N   UNL     1      47.734   3.007  15.206  0.00  0.00    +0.000 NA
ATOM     22  H   UNL     1      48.144   2.549  16.019  0.00  0.00    +0.000 HD
ATOM     23  H   UNL     1      48.438   2.970  14.471  0.00  0.00    +0.000 HD
ENDBRANCH  20  21
ENDBRANCH  16  20
ENDBRANCH  13  14
ENDBRANCH   1  13
TORSDOF 8
ENDMDL
MODEL 5
REMARK VINA RESULT:    -6.220      1.480      2.056
REMARK INTER + INTRA:          -9.595
REMARK INTER:                  -9.024
REMARK INTRA:                  -0.571
REMARK UNBOUND:                -0.831
REMARK  Name = 
REMARK  8 active torsions:
REMARK  status: ('A' for Active; 'I' for Inactive)
REMARK    1  A    between atoms: N_1  and  C_2
REMARK    2  A    between atoms: C_2  and  C_3
REMARK    3  A    between atoms: C_7  and  C_8
REMARK    4  A    between atoms: C_8  and  C_9
REMARK    5  A    between atoms: C_9  and  C_10
REMARK    6  A    between atoms: C_10  and  C_11
REMARK    7  A    between atoms: C_13  and  C_14
REMARK    8  A    between atoms: C_14  and  N_15
REMARK                            x       y       z     vdW  Elec       q    Type
REMARK                         _______ _______ _______ _____ _____    ______ ____
ROOT
ATOM      1  C   UNL     1      45.035   5.174   9.994  0.00  0.00    +0.000 C 
ENDROOT
BRANCH   1   2
ATOM      2  C   UNL     1      44.153   4.235   9.166  0.00  0.00    +0.000 C 
BRANCH   2   7
ATOM      3  C   UNL     1      46.613   2.592   6.743  0.00  0.00    +0.000 A 
ATOM      4  C   UNL     1      46.722   1.313   7.302  0.00  0.00    +0.000 A 
ATOM      5  C   UNL     1      45.979   0.969   8.432  0.00  0.00    +0.000 A 
ATOM      6  C   UNL     1      45.126   1.902   9.023  0.00  0.00    +0.000 A 
ATOM      7  C   UNL     1      45.000   3.187   8.482  0.00  0.00    +0.000 A 
ATOM      8  C   UNL     1      45.740   3.517   7.337  0.00  0.00    +0.000 A 
BRANCH   3   9
ATOM      9  C   UNL     1      47.419   2.977   5.528  0.00  0.00    +0.000 C 
BRANCH   9  10
ATOM     10  N   UNL     1      48.385   1.941   5.177  0.00  0.00    +0.000 NA
ATOM     11  H   UNL     1      49.041   1.824   5.946  0.00  0.00    +0.000 HD
ATOM     12  H   UNL     1      48.930   2.265   4.379  0.00  0.00    +0.000 HD
ENDBRANCH   9  10
ENDBRANCH   3   9
ENDBRANCH   2   7
ENDBRANCH   1   2
BRANCH   1  13
ATOM     13  C   UNL     1      45.183   4.709  11.444  0.00  0.00    +0.000 C 
BRANCH  13  14
ATOM     14  C   UNL     1      45.926   5.743  12.257  0.00  0.00    +0.000 A 
ATOM     15  C   UNL     1      45.616   7.099  12.138  0.00  0.00    +0.000 A 
ATOM     16  C   UNL     1      46.371   8.041  12.846  0.00  0.00    +0.000 A 
ATOM     17  C   UNL     1      47.412   7.579  13.654  0.00  0.00    +0.000 A 
ATOM     18  C   UNL     1      47.651   6.217  13.717  0.00  0.00    +0.000 A 
ATOM     19  N   UNL     1      46.937   5.294  13.037  0.00  0.00    +0.000 NA
BRANCH  16  20
ATOM     20  C   UNL     1      46.107   9.517  12.703  0.00  0.00    +0.000 C 
BRANCH  20  21
ATOM     21  N   UNL     1      44.683   9.805  12.589  0.00  0.00    +0.000 NA
ATOM     22  H   UNL     1      44.539  10.807  12.710  0.00  0.00    +0.000 HD
ATOM     23  H   UNL     1      44.189   9.350  13.354  0.00  0.00    +0.000 HD
ENDBRANCH  20  21
ENDBRANCH  16  20
ENDBRANCH  13  14
ENDBRANCH   1  13
TORSDOF 8
ENDMDL
MODEL 6
REMARK VINA RESULT:    -6.105      1.677      2.423
REMARK INTER + INTRA:          -9.434
REMARK INTER:                  -8.810
REMARK INTRA:                  -0.624
REMARK UNBOUND:                -0.831
REMARK  Name = 
REMARK  8 active torsions:
REMARK  status: ('A' for Active; 'I' for Inactive)
REMARK    1  A    between atoms: N_1  and  C_2
REMARK    2  A    between atoms: C_2  and  C_3
REMARK    3  A    between atoms: C_7  and  C_8
REMARK    4  A    between atoms: C_8  and  C_9
REMARK    5  A    between atoms: C_9  and  C_10
REMARK    6  A    between atoms: C_10  and  C_11
REMARK    7  A    between atoms: C_13  and  C_14
REMARK    8  A    between atoms: C_14  and  N_15
REMARK                            x       y       z     vdW  Elec       q    Type
REMARK                         _______ _______ _______ _____ _____    ______ ____
ROOT
ATOM      1  C   UNL     1      44.404   3.855  12.322  0.00  0.00    +0.000 C 
ENDROOT
BRANCH   1   2
ATOM      2  C   UNL     1      43.810   3.192  11.076  0.00  0.00    +0.000 C 
BRANCH   2   7
ATOM      3  C   UNL     1      46.116   2.232   8.182  0.00  0.00    +0.000 A 
ATOM      4  C   UNL     1      46.398   3.491   7.638  0.00  0.00    +0.000 A 
ATOM      5  C   UNL     1      45.877   4.646   8.222  0.00  0.00    +0.000 A 
ATOM      6  C   UNL     1      45.062   4.557   9.351  0.00  0.00    +0.000 A 
ATOM      7  C   UNL     1      44.767   3.309   9.913  0.00  0.00    +0.000 A 
ATOM      8  C   UNL     1      45.308   2.155   9.326  0.00  0.00    +0.000 A 
BRANCH   3   9
ATOM      9  C   UNL     1      46.666   0.977   7.553  0.00  0.00    +0.000 C 
BRANCH   9  10
ATOM     10  N   UNL     1      47.928   1.230   6.867  0.00  0.00    +0.000 NA
ATOM     11  H   UNL     1      48.065   0.523   6.148  0.00  0.00    +0.000 HD
ATOM     12  H   UNL     1      48.689   1.112   7.536  0.00  0.00    +0.000 HD
ENDBRANCH   9  10
ENDBRANCH   3   9
ENDBRANCH   2   7
ENDBRANCH   1   2
BRANCH   1  13
ATOM     13  C   UNL     1      45.750   3.249  12.721  0.00  0.00    +0.000 C 
BRANCH  13  14
ATOM     14  C   UNL     1      46.580   4.257  13.480  0.00  0.00    +0.000 A 
ATOM     15  C   UNL     1      46.922   4.037  14.816  0.00  0.00    +0.000 A 
ATOM     16  C   UNL     1      47.627   5.022  15.517  0.00  0.00    +0.000 A 
ATOM     17  C   UNL     1      47.965   6.197  14.841  0.00  0.00    +0.000 A 
ATOM     18  C   UNL     1      47.589   6.335  13.516  0.00  0.00    +0.000 A 
ATOM     19  N   UNL     1      46.904   5.397  12.826  0.00  0.00    +0.000 NA
BRANCH  16  20
ATOM     20  C   UNL     1      47.967   4.849  16.973  0.00  0.00    +0.000 C 
BRANCH  20  21
ATOM     21  N   UNL     1      46.776   4.643  17.788  0.00  0.00    +0.000 NA
ATOM     22  H   UNL     1      46.698   3.652  18.012  0.00  0.00    +0.000 HD
ATOM     23  H   UNL     1      45.952   4.878  17.237  0.00  0.00    +0.000 HD
ENDBRANCH  20  21
ENDBRANCH  16  20
ENDBRANCH  13  14
ENDBRANCH   1  13
TORSDOF 8
ENDMDL
MODEL 7
REMARK VINA RESULT:    -6.019      2.214      6.812
REMARK INTER + INTRA:          -9.312
REMARK INTER:                  -8.843
REMARK INTRA:                  -0.469
REMARK UNBOUND:                -0.831
REMARK  Name = 
REMARK  8 active torsions:
REMARK  status: ('A' for Active; 'I' for Inactive)
REMARK    1  A    between atoms: N_1  and  C_2
REMARK    2  A    between atoms: C_2  and  C_3
REMARK    3  A    between atoms: C_7  and  C_8
REMARK    4  A    between atoms: C_8  and  C_9
REMARK    5  A    between atoms: C_9  and  C_10
REMARK    6  A    between atoms: C_10  and  C_11
REMARK    7  A    between atoms: C_13  and  C_14
REMARK    8  A    between atoms: C_14  and  N_15
REMARK                            x       y       z     vdW  Elec       q    Type
REMARK                         _______ _______ _______ _____ _____    ______ ____
ROOT
ATOM      1  C   UNL     1      45.164   5.873  12.812  0.00  0.00    +0.000 C 
ENDROOT
BRANCH   1   2
ATOM      2  C   UNL     1      46.522   5.165  12.811  0.00  0.00    +0.000 C 
BRANCH   2   7
ATOM      3  C   UNL     1      47.917   4.615  16.328  0.00  0.00    +0.000 A 
ATOM      4  C   UNL     1      48.719   5.754  16.477  0.00  0.00    +0.000 A 
ATOM      5  C   UNL     1      48.781   6.712  15.464  0.00  0.00    +0.000 A 
ATOM      6  C   UNL     1      48.050   6.540  14.288  0.00  0.00    +0.000 A 
ATOM      7  C   UNL     1      47.242   5.410  14.116  0.00  0.00    +0.000 A 
ATOM      8  C   UNL     1      47.175   4.460  15.147  0.00  0.00    +0.000 A 
BRANCH   3   9
ATOM      9  C   UNL     1      47.850   3.569  17.412  0.00  0.00    +0.000 C 
BRANCH   9  10
ATOM     10  N   UNL     1      46.506   3.019  17.543  0.00  0.00    +0.000 NA
ATOM     11  H   UNL     1      46.571   2.032  17.781  0.00  0.00    +0.000 HD
ATOM     12  H   UNL     1      46.046   3.067  16.634  0.00  0.00    +0.000 HD
ENDBRANCH   9  10
ENDBRANCH   3   9
ENDBRANCH   2   7
ENDBRANCH   1   2
BRANCH   1  13
ATOM     13  C   UNL     1      44.605   6.064  11.401  0.00  0.00    +0.000 C 
BRANCH  13  14
ATOM     14  C   UNL     1      44.660   4.766  10.630  0.00  0.00    +0.000 A 
ATOM     15  C   UNL     1      45.318   4.696   9.400  0.00  0.00    +0.000 A 
ATOM     16  C   UNL     1      45.290   3.501   8.673  0.00  0.00    +0.000 A 
ATOM     17  C   UNL     1      44.599   2.415   9.216  0.00  0.00    +0.000 A 
ATOM     18  C   UNL     1      43.976   2.568  10.442  0.00  0.00    +0.000 A 
ATOM     19  N   UNL     1      43.989   3.715  11.156  0.00  0.00    +0.000 NA
BRANCH  16  20
ATOM     20  C   UNL     1      45.937   3.399   7.318  0.00  0.00    +0.000 C 
BRANCH  20  21
ATOM     21  N   UNL     1      47.008   4.375   7.152  0.00  0.00    +0.000 NA
ATOM     22  H   UNL     1      47.781   4.122   7.766  0.00  0.00    +0.000 HD
ATOM     23  H   UNL     1      46.679   5.286   7.467  0.00  0.00    +0.000 HD
ENDBRANCH  20  21
ENDBRANCH  16  20
ENDBRANCH  13  14
ENDBRANCH   1  13
TORSDOF 8
ENDMDL
MODEL 8
REMARK VINA RESULT:    -6.016      2.243      3.762
REMARK INTER + INTRA:          -9.309
REMARK INTER:                  -8.766
REMARK INTRA:                  -0.542
REMARK UNBOUND:                -0.831
REMARK  Name = 
REMARK  8 active torsions:
REMARK  status: ('A' for Active; 'I' for Inactive)
REMARK    1  A    between atoms: N_1  and  C_2
REMARK    2  A    between atoms: C_2  and  C_3
REMARK    3  A    between atoms: C_7  and  C_8
REMARK    4  A    between atoms: C_8  and  C_9
REMARK    5  A    between atoms: C_9  and  C_10
REMARK    6  A    between atoms: C_10  and  C_11
REMARK    7  A    between atoms: C_13  and  C_14
REMARK    8  A    between atoms: C_14  and  N_15
REMARK                            x       y       z     vdW  Elec       q    Type
REMARK                         _______ _______ _______ _____ _____    ______ ____
ROOT
ATOM      1  C   UNL     1      45.493   6.005  12.818  0.00  0.00    +0.000 C 
ENDROOT
BRANCH   1   2
ATOM      2  C   UNL     1      45.024   6.283  11.387  0.00  0.00    +0.000 C 
BRANCH   2   7
ATOM      3  C   UNL     1      45.305   3.510   8.770  0.00  0.00    +0.000 A 
ATOM      4  C   UNL     1      44.516   2.512   9.355  0.00  0.00    +0.000 A 
ATOM      5  C   UNL     1      43.866   2.744  10.568  0.00  0.00    +0.000 A 
ATOM      6  C   UNL     1      44.005   3.972  11.215  0.00  0.00    +0.000 A 
ATOM      7  C   UNL     1      44.789   4.985  10.651  0.00  0.00    +0.000 A 
ATOM      8  C   UNL     1      45.426   4.746   9.423  0.00  0.00    +0.000 A 
BRANCH   3   9
ATOM      9  C   UNL     1      46.019   3.265   7.465  0.00  0.00    +0.000 C 
BRANCH   9  10
ATOM     10  N   UNL     1      46.822   4.418   7.070  0.00  0.00    +0.000 NA
ATOM     11  H   UNL     1      47.320   4.199   6.211  0.00  0.00    +0.000 HD
ATOM     12  H   UNL     1      47.532   4.578   7.784  0.00  0.00    +0.000 HD
ENDBRANCH   9  10
ENDBRANCH   3   9
ENDBRANCH   2   7
ENDBRANCH   1   2
BRANCH   1  13
ATOM     13  C   UNL     1      46.792   5.198  12.860  0.00  0.00    +0.000 C 
BRANCH  13  14
ATOM     14  C   UNL     1      47.507   5.418  14.173  0.00  0.00    +0.000 A 
ATOM     15  C   UNL     1      47.184   4.654  15.296  0.00  0.00    +0.000 A 
ATOM     16  C   UNL     1      47.809   4.929  16.517  0.00  0.00    +0.000 A 
ATOM     17  C   UNL     1      48.744   5.966  16.560  0.00  0.00    +0.000 A 
ATOM     18  C   UNL     1      49.008   6.673  15.400  0.00  0.00    +0.000 A 
ATOM     19  N   UNL     1      48.410   6.425  14.214  0.00  0.00    +0.000 NA
BRANCH  16  20
ATOM     20  C   UNL     1      47.449   4.167  17.765  0.00  0.00    +0.000 C 
BRANCH  20  21
ATOM     21  N   UNL     1      46.575   3.036  17.478  0.00  0.00    +0.000 NA
ATOM     22  H   UNL     1      47.002   2.188  17.846  0.00  0.00    +0.000 HD
ATOM     23  H   UNL     1      46.513   2.912  16.469  0.00  0.00    +0.000 HD
ENDBRANCH  20  21
ENDBRANCH  16  20
ENDBRANCH  13  14
ENDBRANCH   1  13
TORSDOF 8
ENDMDL
MODEL 9
REMARK VINA RESULT:    -6.007      1.915      2.578
REMARK INTER + INTRA:          -9.296
REMARK INTER:                  -8.656
REMARK INTRA:                  -0.639
REMARK UNBOUND:                -0.831
REMARK  Name = 
REMARK  8 active torsions:
REMARK  status: ('A' for Active; 'I' for Inactive)
REMARK    1  A    between atoms: N_1  and  C_2
REMARK    2  A    between atoms: C_2  and  C_3
REMARK    3  A    between atoms: C_7  and  C_8
REMARK    4  A    between atoms: C_8  and  C_9
REMARK    5  A    between atoms: C_9  and  C_10
REMARK    6  A    between atoms: C_10  and  C_11
REMARK    7  A    between atoms: C_13  and  C_14
REMARK    8  A    between atoms: C_14  and  N_15
REMARK                            x       y       z     vdW  Elec       q    Type
REMARK                         _______ _______ _______ _____ _____    ______ ____
ROOT
ATOM      1  C   UNL     1      45.609   5.631  10.172  0.00  0.00    +0.000 C 
ENDROOT
BRANCH   1   2
ATOM      2  C   UNL     1      44.588   4.830   9.359  0.00  0.00    +0.000 C 
BRANCH   2   7
ATOM      3  C   UNL     1      46.972   2.706   7.255  0.00  0.00    +0.000 A 
ATOM      4  C   UNL     1      46.618   1.417   7.672  0.00  0.00    +0.000 A 
ATOM      5  C   UNL     1      45.592   1.231   8.599  0.00  0.00    +0.000 A 
ATOM      6  C   UNL     1      44.913   2.330   9.126  0.00  0.00    +0.000 A 
ATOM      7  C   UNL     1      45.249   3.628   8.725  0.00  0.00    +0.000 A 
ATOM      8  C   UNL     1      46.273   3.804   7.781  0.00  0.00    +0.000 A 
BRANCH   3   9
ATOM      9  C   UNL     1      48.086   2.919   6.262  0.00  0.00    +0.000 C 
BRANCH   9  10
ATOM     10  N   UNL     1      48.504   1.663   5.648  0.00  0.00    +0.000 NA
ATOM     11  H   UNL     1      47.895   1.460   4.859  0.00  0.00    +0.000 HD
ATOM     12  H   UNL     1      48.364   0.911   6.322  0.00  0.00    +0.000 HD
ENDBRANCH   9  10
ENDBRANCH   3   9
ENDBRANCH   2   7
ENDBRANCH   1   2
BRANCH   1  13
ATOM     13  C   UNL     1      45.479   5.385  11.676  0.00  0.00    +0.000 C 
BRANCH  13  14
ATOM     14  C   UNL     1      46.649   5.993  12.413  0.00  0.00    +0.000 A 
ATOM     15  C   UNL     1      47.550   6.830  11.752  0.00  0.00    +0.000 A 
ATOM     16  C   UNL     1      48.667   7.318  12.440  0.00  0.00    +0.000 A 
ATOM     17  C   UNL     1      48.833   6.946  13.776  0.00  0.00    +0.000 A 
ATOM     18  C   UNL     1      47.892   6.113  14.357  0.00  0.00    +0.000 A 
ATOM     19  N   UNL     1      46.811   5.628  13.707  0.00  0.00    +0.000 NA
BRANCH  16  20
ATOM     20  C   UNL     1      49.692   8.178  11.750  0.00  0.00    +0.000 C 
BRANCH  20  21
ATOM     21  N   UNL     1      51.044   7.884  12.209  0.00  0.00    +0.000 NA
ATOM     22  H   UNL     1      51.710   8.324  11.574  0.00  0.00    +0.000 HD
ATOM     23  H   UNL     1      51.207   6.881  12.144  0.00  0.00    +0.000 HD
ENDBRANCH  20  21
ENDBRANCH  16  20
ENDBRANCH  13  14
ENDBRANCH   1  13
TORSDOF 8
ENDMDL
