MODEL 1
REMARK VINA RESULT:    -8.649      0.000      0.000
REMARK INTER + INTRA:         -12.597
REMARK INTER:                 -11.683
REMARK INTRA:                  -0.914
REMARK UNBOUND:                -0.914
REMARK  Name = 
REMARK  6 active torsions:
REMARK  status: ('A' for Active; 'I' for Inactive)
REMARK    1  A    between atoms: C_2  and  C_4
REMARK    2  A    between atoms: C_7  and  O_8
REMARK    3  A    between atoms: O_8  and  C_9
REMARK    4  A    between atoms: C_9  and  C_10
REMARK    5  A    between atoms: C_10  and  C_11
REMARK    6  A    between atoms: C_15  and  C_16
REMARK                            x       y       z     vdW  Elec       q    Type
REMARK                         _______ _______ _______ _____ _____    ______ ____
ROOT
ATOM      1  C   UNL     1      43.342   5.091  12.258  0.00  0.00    +0.000 C 
ENDROOT
BRANCH   1   2
ATOM      2  C   UNL     1      44.774   5.301  12.680  0.00  0.00    +0.000 A 
ATOM      3  C   UNL     1      45.523   4.267  13.242  0.00  0.00    +0.000 A 
ATOM      4  C   UNL     1      46.853   4.484  13.591  0.00  0.00    +0.000 A 
ATOM      5  C   UNL     1      47.445   5.734  13.373  0.00  0.00    +0.000 A 
ATOM      6  C   UNL     1      46.742   6.787  12.759  0.00  0.00    +0.000 A 
ATOM      7  C   UNL     1      45.399   6.535  12.424  0.00  0.00    +0.000 A 
BRANCH   6   8
ATOM      8  C   UNL     1      47.417   8.052  12.355  0.00  0.00    +0.000 A 
ATOM      9  C   UNL     1      48.801   8.015  12.065  0.00  0.00    +0.000 A 
ATOM     10  C   UNL     1      49.487   9.119  11.549  0.00  0.00    +0.000 A 
ATOM     11  C   UNL     1      48.804  10.297  11.287  0.00  0.00    +0.000 A 
ATOM     12  C   UNL     1      47.450  10.386  11.594  0.00  0.00    +0.000 A 
ATOM     13  C   UNL     1      46.767   9.292  12.150  0.00  0.00    +0.000 A 
ATOM     14 CL   UNL     1      45.121   9.593  12.604  0.00  0.00    +0.000 Cl
ENDBRANCH   6   8
ENDBRANCH   1   2
BRANCH   1  15
ATOM     15  C   UNL     1      43.262   4.066  11.131  0.00  0.00    +0.000 C 
BRANCH  15  16
ATOM     16  O   UNL     1      43.577   4.694   9.883  0.00  0.00    +0.000 OA
BRANCH  16  20
ATOM     17  C   UNL     1      46.356   2.475   7.804  0.00  0.00    +0.000 A 
ATOM     18  C   UNL     1      45.497   1.839   8.704  0.00  0.00    +0.000 A 
ATOM     19  C   UNL     1      44.558   2.600   9.401  0.00  0.00    +0.000 A 
ATOM     20  C   UNL     1      44.511   3.967   9.171  0.00  0.00    +0.000 A 
ATOM     21  N   UNL     1      45.333   4.605   8.309  0.00  0.00    +0.000 NA
ATOM     22  C   UNL     1      46.244   3.849   7.653  0.00  0.00    +0.000 A 
BRANCH  17  24
ATOM     23  N   UNL     1      48.412   2.519   6.506  0.00  0.00    +0.000 N 
ATOM     24  C   UNL     1      47.389   1.771   7.019  0.00  0.00    +0.000 C 
ATOM     25  O   UNL     1      47.361   0.562   6.869  0.00  0.00    +0.000 OA
ATOM     26  H   UNL     1      49.167   1.999   6.075  0.00  0.00    +0.000 HD
ATOM     27  H   UNL     1      48.611   3.458   6.818  0.00  0.00    +0.000 HD
ENDBRANCH  17  24
ENDBRANCH  16  20
ENDBRANCH  15  16
ENDBRANCH   1  15
TORSDOF 6
ENDMDL
MODEL 2
REMARK VINA RESULT:    -8.503      2.054      3.753
REMARK INTER + INTRA:         -12.400
REMARK INTER:                 -11.526
REMARK INTRA:                  -0.875
REMARK UNBOUND:                -0.914
REMARK  Name = 
REMARK  6 active torsions:
REMARK  status: ('A' for Active; 'I' for Inactive)
REMARK    1  A    between atoms: C_2  and  C_4
REMARK    2  A    between atoms: C_7  and  O_8
REMARK    3  A    between atoms: O_8  and  C_9
REMARK    4  A    between atoms: C_9  and  C_10
REMARK    5  A    between atoms: C_10  and  C_11
REMARK    6  A    between atoms: C_15  and  C_16
REMARK                            x       y       z     vdW  Elec       q    Type
REMARK                         _______ _______ _______ _____ _____    ______ ____
ROOT
ATOM      1  C   UNL     1      43.874   5.648  12.011  0.00  0.00    +0.000 C 
ENDROOT
BRANCH   1   2
ATOM      2  C   UNL     1      45.330   5.832  12.357  0.00  0.00    +0.000 A 
ATOM      3  C   UNL     1      46.166   6.622  11.568  0.00  0.00    +0.000 A 
ATOM      4  C   UNL     1      47.499   6.800  11.933  0.00  0.00    +0.000 A 
ATOM      5  C   UNL     1      48.000   6.195  13.092  0.00  0.00    +0.000 A 
ATOM      6  C   UNL     1      47.176   5.435  13.944  0.00  0.00    +0.000 A 
ATOM      7  C   UNL     1      45.837   5.273  13.543  0.00  0.00    +0.000 A 
BRANCH   6   8
ATOM      8  C   UNL     1      47.653   4.947  15.268  0.00  0.00    +0.000 A 
ATOM      9  C   UNL     1      47.407   3.600  15.619  0.00  0.00    +0.000 A 
ATOM     10  C   UNL     1      47.934   3.019  16.776  0.00  0.00    +0.000 A 
ATOM     11  C   UNL     1      48.746   3.766  17.617  0.00  0.00    +0.000 A 
ATOM     12  C   UNL     1      48.981   5.106  17.327  0.00  0.00    +0.000 A 
ATOM     13  C   UNL     1      48.420   5.703  16.186  0.00  0.00    +0.000 A 
ATOM     14 CL   UNL     1      48.690   7.408  16.028  0.00  0.00    +0.000 Cl
ENDBRANCH   6   8
ENDBRANCH   1   2
BRANCH   1  15
ATOM     15  C   UNL     1      43.671   4.360  11.220  0.00  0.00    +0.000 C 
BRANCH  15  16
ATOM     16  O   UNL     1      43.617   4.655   9.820  0.00  0.00    +0.000 OA
BRANCH  16  20
ATOM     17  C   UNL     1      46.373   2.402   7.746  0.00  0.00    +0.000 A 
ATOM     18  C   UNL     1      45.512   1.778   8.653  0.00  0.00    +0.000 A 
ATOM     19  C   UNL     1      44.581   2.550   9.349  0.00  0.00    +0.000 A 
ATOM     20  C   UNL     1      44.543   3.916   9.109  0.00  0.00    +0.000 A 
ATOM     21  N   UNL     1      45.367   4.542   8.241  0.00  0.00    +0.000 NA
ATOM     22  C   UNL     1      46.270   3.775   7.586  0.00  0.00    +0.000 A 
BRANCH  17  24
ATOM     23  N   UNL     1      48.415   2.425   6.426  0.00  0.00    +0.000 N 
ATOM     24  C   UNL     1      47.397   1.685   6.963  0.00  0.00    +0.000 C 
ATOM     25  O   UNL     1      47.370   0.473   6.834  0.00  0.00    +0.000 OA
ATOM     26  H   UNL     1      49.165   1.898   5.995  0.00  0.00    +0.000 HD
ATOM     27  H   UNL     1      48.616   3.369   6.718  0.00  0.00    +0.000 HD
ENDBRANCH  17  24
ENDBRANCH  16  20
ENDBRANCH  15  16
ENDBRANCH   1  15
TORSDOF 6
ENDMDL
MODEL 3
REMARK VINA RESULT:    -7.995      1.146      1.608
REMARK INTER + INTRA:         -11.713
REMARK INTER:                 -10.726
REMARK INTRA:                  -0.988
REMARK UNBOUND:                -0.914
REMARK  Name = 
REMARK  6 active torsions:
REMARK  status: ('A' for Active; 'I' for Inactive)
REMARK    1  A    between atoms: C_2  and  C_4
REMARK    2  A    between atoms: C_7  and  O_8
REMARK    3  A    between atoms: O_8  and  C_9
REMARK    4  A    between atoms: C_9  and  C_10
REMARK    5  A    between atoms: C_10  and  C_11
REMARK    6  A    between atoms: C_15  and  C_16
REMARK                            x       y       z     vdW  Elec       q    Type
REMARK                         _______ _______ _______ _____ _____    ______ ____
ROOT
ATOM      1  C   UNL     1      44.428   6.003  11.491  0.00  0.00    +0.000 C 
ENDROOT
BRANCH   1   2
ATOM      2  C   UNL     1      45.703   6.125  12.286  0.00  0.00    +0.000 A 
ATOM      3  C   UNL     1      45.992   5.246  13.330  0.00  0.00    +0.000 A 
ATOM      4  C   UNL     1      47.194   5.364  14.024  0.00  0.00    +0.000 A 
ATOM      5  C   UNL     1      48.117   6.356  13.672  0.00  0.00    +0.000 A 
ATOM      6  C   UNL     1      47.889   7.227  12.591  0.00  0.00    +0.000 A 
ATOM      7  C   UNL     1      46.663   7.083  11.915  0.00  0.00    +0.000 A 
BRANCH   6   8
ATOM      8  C   UNL     1      48.942   8.157  12.095  0.00  0.00    +0.000 A 
ATOM      9  C   UNL     1      50.201   7.621  11.739  0.00  0.00    +0.000 A 
ATOM     10  C   UNL     1      51.201   8.392  11.138  0.00  0.00    +0.000 A 
ATOM     11  C   UNL     1      50.965   9.730  10.855  0.00  0.00    +0.000 A 
ATOM     12  C   UNL     1      49.754  10.304  11.224  0.00  0.00    +0.000 A 
ATOM     13  C   UNL     1      48.763   9.541  11.864  0.00  0.00    +0.000 A 
ATOM     14 CL   UNL     1      47.363  10.422  12.384  0.00  0.00    +0.000 Cl
ENDBRANCH   6   8
ENDBRANCH   1   2
BRANCH   1  15
ATOM     15  C   UNL     1      44.054   4.537  11.302  0.00  0.00    +0.000 C 
BRANCH  15  16
ATOM     16  O   UNL     1      43.639   4.314   9.949  0.00  0.00    +0.000 OA
BRANCH  16  20
ATOM     17  C   UNL     1      46.603   2.550   7.697  0.00  0.00    +0.000 A 
ATOM     18  C   UNL     1      46.425   3.935   7.643  0.00  0.00    +0.000 A 
ATOM     19  C   UNL     1      45.420   4.523   8.412  0.00  0.00    +0.000 A 
ATOM     20  C   UNL     1      44.632   3.704   9.207  0.00  0.00    +0.000 A 
ATOM     21  N   UNL     1      44.781   2.363   9.273  0.00  0.00    +0.000 NA
ATOM     22  C   UNL     1      45.755   1.814   8.510  0.00  0.00    +0.000 A 
BRANCH  17  24
ATOM     23  N   UNL     1      48.515   2.569   6.194  0.00  0.00    +0.000 N 
ATOM     24  C   UNL     1      47.629   1.825   6.923  0.00  0.00    +0.000 C 
ATOM     25  O   UNL     1      47.717   0.610   6.963  0.00  0.00    +0.000 OA
ATOM     26  H   UNL     1      49.278   2.057   5.769  0.00  0.00    +0.000 HD
ATOM     27  H   UNL     1      48.640   3.560   6.335  0.00  0.00    +0.000 HD
ENDBRANCH  17  24
ENDBRANCH  16  20
ENDBRANCH  15  16
ENDBRANCH   1  15
TORSDOF 6
ENDMDL
MODEL 4
REMARK VINA RESULT:    -7.555      1.872      2.333
REMARK INTER + INTRA:         -11.118
REMARK INTER:                 -10.840
REMARK INTRA:                  -0.279
REMARK UNBOUND:                -0.914
REMARK  Name = 
REMARK  6 active torsions:
REMARK  status: ('A' for Active; 'I' for Inactive)
REMARK    1  A    between atoms: C_2  and  C_4
REMARK    2  A    between atoms: C_7  and  O_8
REMARK    3  A    between atoms: O_8  and  C_9
REMARK    4  A    between atoms: C_9  and  C_10
REMARK    5  A    between atoms: C_10  and  C_11
REMARK    6  A    between atoms: C_15  and  C_16
REMARK                            x       y       z     vdW  Elec       q    Type
REMARK                         _______ _______ _______ _____ _____    ______ ____
ROOT
ATOM      1  C   UNL     1      45.520   5.751  10.945  0.00  0.00    +0.000 C 
ENDROOT
BRANCH   1   2
ATOM      2  C   UNL     1      46.222   5.616  12.272  0.00  0.00    +0.000 A 
ATOM      3  C   UNL     1      45.878   4.610  13.175  0.00  0.00    +0.000 A 
ATOM      4  C   UNL     1      46.568   4.491  14.378  0.00  0.00    +0.000 A 
ATOM      5  C   UNL     1      47.613   5.373  14.682  0.00  0.00    +0.000 A 
ATOM      6  C   UNL     1      48.028   6.366  13.776  0.00  0.00    +0.000 A 
ATOM      7  C   UNL     1      47.305   6.461  12.572  0.00  0.00    +0.000 A 
BRANCH   6   8
ATOM      8  C   UNL     1      49.252   7.182  14.011  0.00  0.00    +0.000 A 
ATOM      9  C   UNL     1      49.873   7.116  15.280  0.00  0.00    +0.000 A 
ATOM     10  C   UNL     1      51.097   7.736  15.548  0.00  0.00    +0.000 A 
ATOM     11  C   UNL     1      51.754   8.433  14.544  0.00  0.00    +0.000 A 
ATOM     12  C   UNL     1      51.158   8.554  13.293  0.00  0.00    +0.000 A 
ATOM     13  C   UNL     1      49.909   7.965  13.033  0.00  0.00    +0.000 A 
ATOM     14 CL   UNL     1      49.231   8.312  11.476  0.00  0.00    +0.000 Cl
ENDBRANCH   6   8
ENDBRANCH   1   2
BRANCH   1  15
ATOM     15  C   UNL     1      44.149   5.083  10.995  0.00  0.00    +0.000 C 
BRANCH  15  16
ATOM     16  O   UNL     1      43.707   4.786   9.667  0.00  0.00    +0.000 OA
BRANCH  16  20
ATOM     17  C   UNL     1      46.332   2.239   7.771  0.00  0.00    +0.000 A 
ATOM     18  C   UNL     1      45.486   1.744   8.766  0.00  0.00    +0.000 A 
ATOM     19  C   UNL     1      44.599   2.615   9.401  0.00  0.00    +0.000 A 
ATOM     20  C   UNL     1      44.589   3.947   9.014  0.00  0.00    +0.000 A 
ATOM     21  N   UNL     1      45.400   4.450   8.057  0.00  0.00    +0.000 NA
ATOM     22  C   UNL     1      46.260   3.589   7.464  0.00  0.00    +0.000 A 
BRANCH  17  24
ATOM     23  N   UNL     1      48.438   2.029   6.574  0.00  0.00    +0.000 N 
ATOM     24  C   UNL     1      47.311   1.411   7.040  0.00  0.00    +0.000 C 
ATOM     25  O   UNL     1      47.149   0.212   6.894  0.00  0.00    +0.000 OA
ATOM     26  H   UNL     1      49.146   1.419   6.182  0.00  0.00    +0.000 HD
ATOM     27  H   UNL     1      48.731   2.941   6.890  0.00  0.00    +0.000 HD
ENDBRANCH  17  24
ENDBRANCH  16  20
ENDBRANCH  15  16
ENDBRANCH   1  15
TORSDOF 6
ENDMDL
MODEL 5
REMARK VINA RESULT:    -7.537      4.177      7.490
REMARK INTER + INTRA:         -11.095
REMARK INTER:                  -9.949
REMARK INTRA:                  -1.146
REMARK UNBOUND:                -0.914
REMARK  Name = 
REMARK  6 active torsions:
REMARK  status: ('A' for Active; 'I' for Inactive)
REMARK    1  A    between atoms: C_2  and  C_4
REMARK    2  A    between atoms: C_7  and  O_8
REMARK    3  A    between atoms: O_8  and  C_9
REMARK    4  A    between atoms: C_9  and  C_10
REMARK    5  A    between atoms: C_10  and  C_11
REMARK    6  A    between atoms: C_15  and  C_16
REMARK                            x       y       z     vdW  Elec       q    Type
REMARK                         _______ _______ _______ _____ _____    ______ ____
ROOT
ATOM      1  C   UNL     1      48.899   8.075  12.123  0.00  0.00    +0.000 C 
ENDROOT
BRANCH   1   2
ATOM      2  C   UNL     1      47.425   7.796  11.972  0.00  0.00    +0.000 A 
ATOM      3  C   UNL     1      46.468   8.738  12.350  0.00  0.00    +0.000 A 
ATOM      4  C   UNL     1      45.115   8.463  12.168  0.00  0.00    +0.000 A 
ATOM      5  C   UNL     1      44.712   7.249  11.599  0.00  0.00    +0.000 A 
ATOM      6  C   UNL     1      45.646   6.295  11.155  0.00  0.00    +0.000 A 
ATOM      7  C   UNL     1      47.004   6.603  11.359  0.00  0.00    +0.000 A 
BRANCH   6   8
ATOM      8  C   UNL     1      45.232   5.090  10.383  0.00  0.00    +0.000 A 
ATOM      9  C   UNL     1      45.635   4.983   9.032  0.00  0.00    +0.000 A 
ATOM     10  C   UNL     1      45.411   3.831   8.273  0.00  0.00    +0.000 A 
ATOM     11  C   UNL     1      44.789   2.733   8.849  0.00  0.00    +0.000 A 
ATOM     12  C   UNL     1      44.342   2.812  10.164  0.00  0.00    +0.000 A 
ATOM     13  C   UNL     1      44.531   3.984  10.916  0.00  0.00    +0.000 A 
ATOM     14 CL   UNL     1      43.804   3.983  12.491  0.00  0.00    +0.000 Cl
ENDBRANCH   6   8
ENDBRANCH   1   2
BRANCH   1  15
ATOM     15  C   UNL     1      49.509   7.169  13.187  0.00  0.00    +0.000 C 
BRANCH  15  16
ATOM     16  O   UNL     1      49.147   7.640  14.490  0.00  0.00    +0.000 OA
BRANCH  16  20
ATOM     17  C   UNL     1      48.009   4.565  16.982  0.00  0.00    +0.000 A 
ATOM     18  C   UNL     1      48.878   5.551  17.454  0.00  0.00    +0.000 A 
ATOM     19  C   UNL     1      49.256   6.590  16.602  0.00  0.00    +0.000 A 
ATOM     20  C   UNL     1      48.747   6.604  15.312  0.00  0.00    +0.000 A 
ATOM     21  N   UNL     1      47.909   5.661  14.832  0.00  0.00    +0.000 NA
ATOM     22  C   UNL     1      47.565   4.657  15.672  0.00  0.00    +0.000 A 
BRANCH  17  24
ATOM     23  N   UNL     1      48.250   3.130  18.932  0.00  0.00    +0.000 N 
ATOM     24  C   UNL     1      47.549   3.420  17.793  0.00  0.00    +0.000 C 
ATOM     25  O   UNL     1      46.557   2.782  17.490  0.00  0.00    +0.000 OA
ATOM     26  H   UNL     1      47.847   2.419  19.529  0.00  0.00    +0.000 HD
ATOM     27  H   UNL     1      48.903   3.776  19.349  0.00  0.00    +0.000 HD
ENDBRANCH  17  24
ENDBRANCH  16  20
ENDBRANCH  15  16
ENDBRANCH   1  15
TORSDOF 6
ENDMDL
MODEL 6
REMARK VINA RESULT:    -7.406      1.556      2.621
REMARK INTER + INTRA:         -10.917
REMARK INTER:                 -10.027
REMARK INTRA:                  -0.890
REMARK UNBOUND:                -0.914
REMARK  Name = 
REMARK  6 active torsions:
REMARK  status: ('A' for Active; 'I' for Inactive)
REMARK    1  A    between atoms: C_2  and  C_4
REMARK    2  A    between atoms: C_7  and  O_8
REMARK    3  A    between atoms: O_8  and  C_9
REMARK    4  A    between atoms: C_9  and  C_10
REMARK    5  A    between atoms: C_10  and  C_11
REMARK    6  A    between atoms: C_15  and  C_16
REMARK                            x       y       z     vdW  Elec       q    Type
REMARK                         _______ _______ _______ _____ _____    ______ ____
ROOT
ATOM      1  C   UNL     1      44.169   6.522  11.870  0.00  0.00    +0.000 C 
ENDROOT
BRANCH   1   2
ATOM      2  C   UNL     1      45.059   7.738  11.869  0.00  0.00    +0.000 A 
ATOM      3  C   UNL     1      44.528   9.023  11.758  0.00  0.00    +0.000 A 
ATOM      4  C   UNL     1      45.374  10.129  11.793  0.00  0.00    +0.000 A 
ATOM      5  C   UNL     1      46.754   9.957  11.948  0.00  0.00    +0.000 A 
ATOM      6  C   UNL     1      47.325   8.682  12.117  0.00  0.00    +0.000 A 
ATOM      7  C   UNL     1      46.442   7.587  12.072  0.00  0.00    +0.000 A 
BRANCH   6   8
ATOM      8  C   UNL     1      48.762   8.504  12.468  0.00  0.00    +0.000 A 
ATOM      9  C   UNL     1      49.673   8.182  11.435  0.00  0.00    +0.000 A 
ATOM     10  C   UNL     1      51.055   8.131  11.644  0.00  0.00    +0.000 A 
ATOM     11  C   UNL     1      51.575   8.421  12.896  0.00  0.00    +0.000 A 
ATOM     12  C   UNL     1      50.711   8.705  13.948  0.00  0.00    +0.000 A 
ATOM     13  C   UNL     1      49.320   8.718  13.750  0.00  0.00    +0.000 A 
ATOM     14 CL   UNL     1      48.365   8.955  15.178  0.00  0.00    +0.000 Cl
ENDBRANCH   6   8
ENDBRANCH   1   2
BRANCH   1  15
ATOM     15  C   UNL     1      44.889   5.331  11.245  0.00  0.00    +0.000 C 
BRANCH  15  16
ATOM     16  O   UNL     1      44.164   4.875  10.098  0.00  0.00    +0.000 OA
BRANCH  16  20
ATOM     17  C   UNL     1      46.507   2.485   7.696  0.00  0.00    +0.000 A 
ATOM     18  C   UNL     1      45.669   1.898   8.648  0.00  0.00    +0.000 A 
ATOM     19  C   UNL     1      44.878   2.717   9.455  0.00  0.00    +0.000 A 
ATOM     20  C   UNL     1      44.952   4.091   9.277  0.00  0.00    +0.000 A 
ATOM     21  N   UNL     1      45.758   4.681   8.367  0.00  0.00    +0.000 NA
ATOM     22  C   UNL     1      46.524   3.868   7.604  0.00  0.00    +0.000 A 
BRANCH  17  24
ATOM     23  N   UNL     1      48.441   2.379   6.225  0.00  0.00    +0.000 N 
ATOM     24  C   UNL     1      47.389   1.717   6.796  0.00  0.00    +0.000 C 
ATOM     25  O   UNL     1      47.219   0.526   6.600  0.00  0.00    +0.000 OA
ATOM     26  H   UNL     1      49.096   1.805   5.708  0.00  0.00    +0.000 HD
ATOM     27  H   UNL     1      48.765   3.275   6.555  0.00  0.00    +0.000 HD
ENDBRANCH  17  24
ENDBRANCH  16  20
ENDBRANCH  15  16
ENDBRANCH   1  15
TORSDOF 6
ENDMDL
MODEL 7
REMARK VINA RESULT:    -6.868      5.307      8.462
REMARK INTER + INTRA:         -10.191
REMARK INTER:                  -9.285
REMARK INTRA:                  -0.906
REMARK UNBOUND:                -0.914
REMARK  Name = 
REMARK  6 active torsions:
REMARK  status: ('A' for Active; 'I' for Inactive)
REMARK    1  A    between atoms: C_2  and  C_4
REMARK    2  A    between atoms: C_7  and  O_8
REMARK    3  A    between atoms: O_8  and  C_9
REMARK    4  A    between atoms: C_9  and  C_10
REMARK    5  A    between atoms: C_10  and  C_11
REMARK    6  A    between atoms: C_15  and  C_16
REMARK                            x       y       z     vdW  Elec       q    Type
REMARK                         _______ _______ _______ _____ _____    ______ ____
ROOT
ATOM      1  C   UNL     1      48.731   7.297  13.237  0.00  0.00    +0.000 C 
ENDROOT
BRANCH   1   2
ATOM      2  C   UNL     1      47.325   7.262  12.694  0.00  0.00    +0.000 A 
ATOM      3  C   UNL     1      46.459   8.343  12.858  0.00  0.00    +0.000 A 
ATOM      4  C   UNL     1      45.177   8.293  12.315  0.00  0.00    +0.000 A 
ATOM      5  C   UNL     1      44.758   7.167  11.598  0.00  0.00    +0.000 A 
ATOM      6  C   UNL     1      45.619   6.078  11.363  0.00  0.00    +0.000 A 
ATOM      7  C   UNL     1      46.904   6.160  11.929  0.00  0.00    +0.000 A 
BRANCH   6   8
ATOM      8  C   UNL     1      45.245   4.964  10.447  0.00  0.00    +0.000 A 
ATOM      9  C   UNL     1      45.673   5.025   9.101  0.00  0.00    +0.000 A 
ATOM     10  C   UNL     1      45.487   3.966   8.207  0.00  0.00    +0.000 A 
ATOM     11  C   UNL     1      44.880   2.796   8.639  0.00  0.00    +0.000 A 
ATOM     12  C   UNL     1      44.410   2.710   9.945  0.00  0.00    +0.000 A 
ATOM     13  C   UNL     1      44.560   3.789  10.834  0.00  0.00    +0.000 A 
ATOM     14 CL   UNL     1      43.808   3.587  12.383  0.00  0.00    +0.000 Cl
ENDBRANCH   6   8
ENDBRANCH   1   2
BRANCH   1  15
ATOM     15  C   UNL     1      48.725   7.099  14.750  0.00  0.00    +0.000 C 
BRANCH  15  16
ATOM     16  O   UNL     1      48.372   5.746  15.059  0.00  0.00    +0.000 OA
BRANCH  16  20
ATOM     17  C   UNL     1      49.008   4.958  19.052  0.00  0.00    +0.000 A 
ATOM     18  C   UNL     1      48.991   6.281  18.603  0.00  0.00    +0.000 A 
ATOM     19  C   UNL     1      48.772   6.537  17.248  0.00  0.00    +0.000 A 
ATOM     20  C   UNL     1      48.577   5.460  16.395  0.00  0.00    +0.000 A 
ATOM     21  N   UNL     1      48.593   4.173  16.805  0.00  0.00    +0.000 NA
ATOM     22  C   UNL     1      48.818   3.948  18.120  0.00  0.00    +0.000 A 
BRANCH  17  24
ATOM     23  N   UNL     1      50.516   4.639  20.933  0.00  0.00    +0.000 N 
ATOM     24  C   UNL     1      49.235   4.573  20.458  0.00  0.00    +0.000 C 
ATOM     25  O   UNL     1      48.314   4.251  21.188  0.00  0.00    +0.000 OA
ATOM     26  H   UNL     1      50.628   4.484  21.927  0.00  0.00    +0.000 HD
ATOM     27  H   UNL     1      51.251   5.137  20.453  0.00  0.00    +0.000 HD
ENDBRANCH  17  24
ENDBRANCH  16  20
ENDBRANCH  15  16
ENDBRANCH   1  15
TORSDOF 6
ENDMDL
MODEL 8
REMARK VINA RESULT:    -6.668      5.150      6.920
REMARK INTER + INTRA:          -9.921
REMARK INTER:                  -9.042
REMARK INTRA:                  -0.879
REMARK UNBOUND:                -0.914
REMARK  Name = 
REMARK  6 active torsions:
REMARK  status: ('A' for Active; 'I' for Inactive)
REMARK    1  A    between atoms: C_2  and  C_4
REMARK    2  A    between atoms: C_7  and  O_8
REMARK    3  A    between atoms: O_8  and  C_9
REMARK    4  A    between atoms: C_9  and  C_10
REMARK    5  A    between atoms: C_10  and  C_11
REMARK    6  A    between atoms: C_15  and  C_16
REMARK                            x       y       z     vdW  Elec       q    Type
REMARK                         _______ _______ _______ _____ _____    ______ ____
ROOT
ATOM      1  C   UNL     1      48.391   2.813  16.649  0.00  0.00    +0.000 C 
ENDROOT
BRANCH   1   2
ATOM      2  C   UNL     1      49.130   3.740  17.579  0.00  0.00    +0.000 A 
ATOM      3  C   UNL     1      50.504   3.617  17.784  0.00  0.00    +0.000 A 
ATOM      4  C   UNL     1      51.164   4.510  18.624  0.00  0.00    +0.000 A 
ATOM      5  C   UNL     1      50.454   5.538  19.258  0.00  0.00    +0.000 A 
ATOM      6  C   UNL     1      49.078   5.731  19.035  0.00  0.00    +0.000 A 
ATOM      7  C   UNL     1      48.443   4.808  18.185  0.00  0.00    +0.000 A 
BRANCH   6   8
ATOM      8  C   UNL     1      48.359   6.927  19.555  0.00  0.00    +0.000 A 
ATOM      9  C   UNL     1      47.922   6.919  20.901  0.00  0.00    +0.000 A 
ATOM     10  C   UNL     1      47.363   8.045  21.513  0.00  0.00    +0.000 A 
ATOM     11  C   UNL     1      47.238   9.229  20.801  0.00  0.00    +0.000 A 
ATOM     12  C   UNL     1      47.620   9.267  19.464  0.00  0.00    +0.000 A 
ATOM     13  C   UNL     1      48.145   8.126  18.835  0.00  0.00    +0.000 A 
ATOM     14 CL   UNL     1      48.451   8.285  17.136  0.00  0.00    +0.000 Cl
ENDBRANCH   6   8
ENDBRANCH   1   2
BRANCH   1  15
ATOM     15  C   UNL     1      47.411   3.595  15.780  0.00  0.00    +0.000 C 
BRANCH  15  16
ATOM     16  O   UNL     1      47.568   3.213  14.409  0.00  0.00    +0.000 OA
BRANCH  16  20
ATOM     17  C   UNL     1      44.796   5.116  12.029  0.00  0.00    +0.000 A 
ATOM     18  C   UNL     1      45.724   5.872  12.749  0.00  0.00    +0.000 A 
ATOM     19  C   UNL     1      46.661   5.217  13.550  0.00  0.00    +0.000 A 
ATOM     20  C   UNL     1      46.635   3.831  13.599  0.00  0.00    +0.000 A 
ATOM     21  N   UNL     1      45.745   3.079  12.916  0.00  0.00    +0.000 NA
ATOM     22  C   UNL     1      44.839   3.736  12.155  0.00  0.00    +0.000 A 
BRANCH  17  24
ATOM     23  N   UNL     1      43.411   7.007  11.379  0.00  0.00    +0.000 N 
ATOM     24  C   UNL     1      43.760   5.703  11.157  0.00  0.00    +0.000 C 
ATOM     25  O   UNL     1      43.263   5.070  10.242  0.00  0.00    +0.000 OA
ATOM     26  H   UNL     1      42.788   7.420  10.697  0.00  0.00    +0.000 HD
ATOM     27  H   UNL     1      43.969   7.632  11.941  0.00  0.00    +0.000 HD
ENDBRANCH  17  24
ENDBRANCH  16  20
ENDBRANCH  15  16
ENDBRANCH   1  15
TORSDOF 6
ENDMDL
MODEL 9
REMARK VINA RESULT:    -6.484      5.455      7.175
REMARK INTER + INTRA:          -9.673
REMARK INTER:                  -8.808
REMARK INTRA:                  -0.865
REMARK UNBOUND:                -0.914
REMARK  Name = 
REMARK  6 active torsions:
REMARK  status: ('A' for Active; 'I' for Inactive)
REMARK    1  A    between atoms: C_2  and  C_4
REMARK    2  A    between atoms: C_7  and  O_8
REMARK    3  A    between atoms: O_8  and  C_9
REMARK    4  A    between atoms: C_9  and  C_10
REMARK    5  A    between atoms: C_10  and  C_11
REMARK    6  A    between atoms: C_15  and  C_16
REMARK                            x       y       z     vdW  Elec       q    Type
REMARK                         _______ _______ _______ _____ _____    ______ ____
ROOT
ATOM      1  C   UNL     1      47.630   3.106  16.865  0.00  0.00    +0.000 C 
ENDROOT
BRANCH   1   2
ATOM      2  C   UNL     1      49.084   3.129  17.260  0.00  0.00    +0.000 A 
ATOM      3  C   UNL     1      49.928   2.056  16.975  0.00  0.00    +0.000 A 
ATOM      4  C   UNL     1      51.275   2.121  17.323  0.00  0.00    +0.000 A 
ATOM      5  C   UNL     1      51.787   3.263  17.951  0.00  0.00    +0.000 A 
ATOM      6  C   UNL     1      50.981   4.389  18.208  0.00  0.00    +0.000 A 
ATOM      7  C   UNL     1      49.625   4.287  17.847  0.00  0.00    +0.000 A 
BRANCH   6   8
ATOM      8  C   UNL     1      51.557   5.670  18.703  0.00  0.00    +0.000 A 
ATOM      9  C   UNL     1      51.412   5.990  20.073  0.00  0.00    +0.000 A 
ATOM     10  C   UNL     1      52.035   7.100  20.653  0.00  0.00    +0.000 A 
ATOM     11  C   UNL     1      52.843   7.921  19.881  0.00  0.00    +0.000 A 
ATOM     12  C   UNL     1      52.980   7.663  18.521  0.00  0.00    +0.000 A 
ATOM     13  C   UNL     1      52.324   6.571  17.928  0.00  0.00    +0.000 A 
ATOM     14 CL   UNL     1      52.480   6.454  16.205  0.00  0.00    +0.000 Cl
ENDBRANCH   6   8
ENDBRANCH   1   2
BRANCH   1  15
ATOM     15  C   UNL     1      47.349   4.157  15.795  0.00  0.00    +0.000 C 
BRANCH  15  16
ATOM     16  O   UNL     1      47.422   3.557  14.497  0.00  0.00    +0.000 OA
BRANCH  16  20
ATOM     17  C   UNL     1      44.361   4.909  12.094  0.00  0.00    +0.000 A 
ATOM     18  C   UNL     1      45.068   5.815  12.888  0.00  0.00    +0.000 A 
ATOM     19  C   UNL     1      46.105   5.347  13.696  0.00  0.00    +0.000 A 
ATOM     20  C   UNL     1      46.397   3.991  13.679  0.00  0.00    +0.000 A 
ATOM     21  N   UNL     1      45.724   3.095  12.924  0.00  0.00    +0.000 NA
ATOM     22  C   UNL     1      44.716   3.570  12.156  0.00  0.00    +0.000 A 
BRANCH  17  24
ATOM     23  N   UNL     1      42.230   6.029  11.753  0.00  0.00    +0.000 N 
ATOM     24  C   UNL     1      43.245   5.292  11.208  0.00  0.00    +0.000 C 
ATOM     25  O   UNL     1      43.244   5.005  10.024  0.00  0.00    +0.000 OA
ATOM     26  H   UNL     1      41.538   6.379  11.101  0.00  0.00    +0.000 HD
ATOM     27  H   UNL     1      42.313   6.500  12.641  0.00  0.00    +0.000 HD
ENDBRANCH  17  24
ENDBRANCH  16  20
ENDBRANCH  15  16
ENDBRANCH   1  15
TORSDOF 6
ENDMDL
