MODEL 1
REMARK VINA RESULT:    -7.962      0.000      0.000
REMARK INTER + INTRA:         -11.135
REMARK INTER:                 -10.289
REMARK INTRA:                  -0.846
REMARK UNBOUND:                -0.846
REMARK  Name = 
REMARK  6 active torsions:
REMARK  status: ('A' for Active; 'I' for Inactive)
REMARK    1  A    between atoms: C_1  and  C_2
REMARK    2  A    between atoms: C_6  and  C_7
REMARK    3  A    between atoms: C_7  and  C_8
REMARK    4  A    between atoms: C_11  and  C_12
REMARK    5  A    between atoms: C_12  and  N_13
REMARK    6  A    between atoms: C_14  and  C_16
REMARK                            x       y       z     vdW  Elec       q    Type
REMARK                         _______ _______ _______ _____ _____    ______ ____
ROOT
ATOM      1  C   UNL     1      46.828   7.830  13.163  0.00  0.00    +0.000 C 
ENDROOT
BRANCH   1   5
ATOM      2  C   UNL     1      44.850   5.149  10.597  0.00  0.00    +0.000 A 
ATOM      3  C   UNL     1      44.376   5.407  11.879  0.00  0.00    +0.000 A 
ATOM      4  N   UNL     1      44.999   6.248  12.738  0.00  0.00    +0.000 NA
ATOM      5  C   UNL     1      46.125   6.846  12.269  0.00  0.00    +0.000 A 
ATOM      6  C   UNL     1      46.620   6.563  11.002  0.00  0.00    +0.000 A 
ATOM      7  N   UNL     1      45.997   5.721  10.143  0.00  0.00    +0.000 NA
BRANCH   2   8
ATOM      8  C   UNL     1      44.062   4.294   9.641  0.00  0.00    +0.000 C 
BRANCH   8  14
ATOM      9  C   UNL     1      46.913   3.635   5.741  0.00  0.00    +0.000 C 
ATOM     10  C   UNL     1      46.311   3.049   6.981  0.00  0.00    +0.000 A 
ATOM     11  C   UNL     1      46.533   1.718   7.319  0.00  0.00    +0.000 A 
ATOM     12  C   UNL     1      45.913   1.204   8.451  0.00  0.00    +0.000 A 
ATOM     13  C   UNL     1      45.092   2.028   9.211  0.00  0.00    +0.000 A 
ATOM     14  C   UNL     1      44.932   3.360   8.831  0.00  0.00    +0.000 A 
ATOM     15  N   UNL     1      45.529   3.872   7.725  0.00  0.00    +0.000 NA
ENDBRANCH   8  14
ENDBRANCH   2   8
ENDBRANCH   1   5
BRANCH   1  16
ATOM     16  N   UNL     1      47.310   7.222  14.382  0.00  0.00    +0.000 N 
ATOM     17  C   UNL     1      48.597   6.766  14.496  0.00  0.00    +0.000 C 
ATOM     18  O   UNL     1      49.412   6.897  13.585  0.00  0.00    +0.000 OA
ATOM     19  H   UNL     1      46.600   6.899  15.033  0.00  0.00    +0.000 HD
BRANCH  17  20
ATOM     20  C   UNL     1      48.975   6.167  15.778  0.00  0.00    +0.000 A 
ATOM     21  C   UNL     1      50.033   6.705  16.498  0.00  0.00    +0.000 A 
ATOM     22  S   UNL     1      50.336   5.904  17.973  0.00  0.00    +0.000 S 
ATOM     23  C   UNL     1      49.091   4.781  17.679  0.00  0.00    +0.000 A 
ATOM     24  N   UNL     1      48.836   3.773  18.558  0.00  0.00    +0.000 NA
ATOM     25  C   UNL     1      47.888   2.973  18.190  0.00  0.00    +0.000 A 
ATOM     26  N   UNL     1      47.165   3.101  17.036  0.00  0.00    +0.000 N 
ATOM     27  C   UNL     1      47.350   4.132  16.148  0.00  0.00    +0.000 A 
ATOM     28  O   UNL     1      46.622   4.274  15.172  0.00  0.00    +0.000 OA
ATOM     29  C   UNL     1      48.432   5.033  16.489  0.00  0.00    +0.000 A 
ATOM     30  H   UNL     1      46.418   2.455  16.821  0.00  0.00    +0.000 HD
ENDBRANCH  17  20
ENDBRANCH   1  16
TORSDOF 5
ENDMDL
MODEL 2
REMARK VINA RESULT:    -7.646      2.155      3.875
REMARK INTER + INTRA:         -10.727
REMARK INTER:                  -9.816
REMARK INTRA:                  -0.912
REMARK UNBOUND:                -0.846
REMARK  Name = 
REMARK  6 active torsions:
REMARK  status: ('A' for Active; 'I' for Inactive)
REMARK    1  A    between atoms: C_1  and  C_2
REMARK    2  A    between atoms: C_6  and  C_7
REMARK    3  A    between atoms: C_7  and  C_8
REMARK    4  A    between atoms: C_11  and  C_12
REMARK    5  A    between atoms: C_12  and  N_13
REMARK    6  A    between atoms: C_14  and  C_16
REMARK                            x       y       z     vdW  Elec       q    Type
REMARK                         _______ _______ _______ _____ _____    ______ ____
ROOT
ATOM      1  C   UNL     1      46.200   4.697  14.205  0.00  0.00    +0.000 C 
ENDROOT
BRANCH   1   5
ATOM      2  C   UNL     1      44.968   4.194  10.216  0.00  0.00    +0.000 A 
ATOM      3  C   UNL     1      45.555   5.378  10.648  0.00  0.00    +0.000 A 
ATOM      4  N   UNL     1      45.945   5.582  11.929  0.00  0.00    +0.000 NA
ATOM      5  C   UNL     1      45.738   4.545  12.783  0.00  0.00    +0.000 A 
ATOM      6  C   UNL     1      45.119   3.375  12.361  0.00  0.00    +0.000 A 
ATOM      7  N   UNL     1      44.728   3.171  11.080  0.00  0.00    +0.000 NA
BRANCH   2   8
ATOM      8  C   UNL     1      44.655   3.974   8.760  0.00  0.00    +0.000 C 
BRANCH   8  14
ATOM      9  C   UNL     1      46.707  -0.332   7.752  0.00  0.00    +0.000 C 
ATOM     10  C   UNL     1      46.705   1.150   7.535  0.00  0.00    +0.000 A 
ATOM     11  C   UNL     1      47.671   1.752   6.736  0.00  0.00    +0.000 A 
ATOM     12  C   UNL     1      47.661   3.135   6.603  0.00  0.00    +0.000 A 
ATOM     13  C   UNL     1      46.691   3.875   7.269  0.00  0.00    +0.000 A 
ATOM     14  C   UNL     1      45.736   3.207   8.034  0.00  0.00    +0.000 A 
ATOM     15  N   UNL     1      45.739   1.857   8.175  0.00  0.00    +0.000 NA
ENDBRANCH   8  14
ENDBRANCH   2   8
ENDBRANCH   1   5
BRANCH   1  16
ATOM     16  N   UNL     1      47.081   5.829  14.381  0.00  0.00    +0.000 N 
ATOM     17  C   UNL     1      48.112   5.802  15.283  0.00  0.00    +0.000 C 
ATOM     18  O   UNL     1      48.364   4.799  15.947  0.00  0.00    +0.000 OA
ATOM     19  H   UNL     1      46.745   6.719  14.025  0.00  0.00    +0.000 HD
BRANCH  17  20
ATOM     20  C   UNL     1      48.941   7.007  15.375  0.00  0.00    +0.000 A 
ATOM     21  C   UNL     1      49.177   7.580  16.618  0.00  0.00    +0.000 A 
ATOM     22  S   UNL     1      50.169   8.965  16.556  0.00  0.00    +0.000 S 
ATOM     23  C   UNL     1      50.281   8.874  14.860  0.00  0.00    +0.000 A 
ATOM     24  N   UNL     1      50.976   9.807  14.153  0.00  0.00    +0.000 NA
ATOM     25  C   UNL     1      50.947   9.634  12.872  0.00  0.00    +0.000 A 
ATOM     26  N   UNL     1      50.302   8.608  12.238  0.00  0.00    +0.000 N 
ATOM     27  C   UNL     1      49.636   7.614  12.913  0.00  0.00    +0.000 A 
ATOM     28  O   UNL     1      49.151   6.654  12.323  0.00  0.00    +0.000 OA
ATOM     29  C   UNL     1      49.599   7.783  14.351  0.00  0.00    +0.000 A 
ATOM     30  H   UNL     1      50.342   8.516  11.233  0.00  0.00    +0.000 HD
ENDBRANCH  17  20
ENDBRANCH   1  16
TORSDOF 5
ENDMDL
MODEL 3
REMARK VINA RESULT:    -7.192      1.995      2.375
REMARK INTER + INTRA:         -10.141
REMARK INTER:                  -9.510
REMARK INTRA:                  -0.630
REMARK UNBOUND:                -0.846
REMARK  Name = 
REMARK  6 active torsions:
REMARK  status: ('A' for Active; 'I' for Inactive)
REMARK    1  A    between atoms: C_1  and  C_2
REMARK    2  A    between atoms: C_6  and  C_7
REMARK    3  A    between atoms: C_7  and  C_8
REMARK    4  A    between atoms: C_11  and  C_12
REMARK    5  A    between atoms: C_12  and  N_13
REMARK    6  A    between atoms: C_14  and  C_16
REMARK                            x       y       z     vdW  Elec       q    Type
REMARK                         _______ _______ _______ _____ _____    ______ ____
ROOT
ATOM      1  C   UNL     1      48.572   6.989  13.932  0.00  0.00    +0.000 C 
ENDROOT
BRANCH   1   5
ATOM      2  C   UNL     1      45.297   5.732  11.612  0.00  0.00    +0.000 A 
ATOM      3  C   UNL     1      45.802   7.024  11.511  0.00  0.00    +0.000 A 
ATOM      4  N   UNL     1      46.841   7.468  12.257  0.00  0.00    +0.000 NA
ATOM      5  C   UNL     1      47.382   6.565  13.117  0.00  0.00    +0.000 A 
ATOM      6  C   UNL     1      46.856   5.285  13.245  0.00  0.00    +0.000 A 
ATOM      7  N   UNL     1      45.816   4.841  12.499  0.00  0.00    +0.000 NA
BRANCH   2   8
ATOM      8  C   UNL     1      44.215   5.251  10.683  0.00  0.00    +0.000 C 
BRANCH   8  14
ATOM      9  C   UNL     1      46.742   3.901   6.738  0.00  0.00    +0.000 C 
ATOM     10  C   UNL     1      45.896   3.484   7.902  0.00  0.00    +0.000 A 
ATOM     11  C   UNL     1      45.546   2.151   8.085  0.00  0.00    +0.000 A 
ATOM     12  C   UNL     1      44.718   1.817   9.150  0.00  0.00    +0.000 A 
ATOM     13  C   UNL     1      44.264   2.820   9.998  0.00  0.00    +0.000 A 
ATOM     14  C   UNL     1      44.673   4.133   9.773  0.00  0.00    +0.000 A 
ATOM     15  N   UNL     1      45.477   4.472   8.734  0.00  0.00    +0.000 NA
ENDBRANCH   8  14
ENDBRANCH   2   8
ENDBRANCH   1   5
BRANCH   1  16
ATOM     16  N   UNL     1      48.258   7.126  15.336  0.00  0.00    +0.000 N 
ATOM     17  C   UNL     1      49.096   6.650  16.309  0.00  0.00    +0.000 C 
ATOM     18  O   UNL     1      50.174   6.129  16.033  0.00  0.00    +0.000 OA
ATOM     19  H   UNL     1      47.288   7.331  15.561  0.00  0.00    +0.000 HD
BRANCH  17  20
ATOM     20  C   UNL     1      48.675   6.845  17.698  0.00  0.00    +0.000 A 
ATOM     21  C   UNL     1      48.335   8.118  18.137  0.00  0.00    +0.000 A 
ATOM     22  S   UNL     1      47.854   8.174  19.772  0.00  0.00    +0.000 S 
ATOM     23  C   UNL     1      48.127   6.504  19.963  0.00  0.00    +0.000 A 
ATOM     24  N   UNL     1      47.938   5.898  21.167  0.00  0.00    +0.000 NA
ATOM     25  C   UNL     1      48.218   4.635  21.177  0.00  0.00    +0.000 A 
ATOM     26  N   UNL     1      48.653   3.925  20.092  0.00  0.00    +0.000 N 
ATOM     27  C   UNL     1      48.805   4.482  18.846  0.00  0.00    +0.000 A 
ATOM     28  O   UNL     1      49.102   3.800  17.872  0.00  0.00    +0.000 OA
ATOM     29  C   UNL     1      48.547   5.907  18.789  0.00  0.00    +0.000 A 
ATOM     30  H   UNL     1      48.828   2.932  20.162  0.00  0.00    +0.000 HD
ENDBRANCH  17  20
ENDBRANCH   1  16
TORSDOF 5
ENDMDL
MODEL 4
REMARK VINA RESULT:    -7.180      3.147      5.204
REMARK INTER + INTRA:         -10.125
REMARK INTER:                  -9.484
REMARK INTRA:                  -0.641
REMARK UNBOUND:                -0.846
REMARK  Name = 
REMARK  6 active torsions:
REMARK  status: ('A' for Active; 'I' for Inactive)
REMARK    1  A    between atoms: C_1  and  C_2
REMARK    2  A    between atoms: C_6  and  C_7
REMARK    3  A    between atoms: C_7  and  C_8
REMARK    4  A    between atoms: C_11  and  C_12
REMARK    5  A    between atoms: C_12  and  N_13
REMARK    6  A    between atoms: C_14  and  C_16
REMARK                            x       y       z     vdW  Elec       q    Type
REMARK                         _______ _______ _______ _____ _____    ______ ____
ROOT
ATOM      1  C   UNL     1      47.882   3.449  17.361  0.00  0.00    +0.000 C 
ENDROOT
BRANCH   1   5
ATOM      2  C   UNL     1      47.282   5.457  13.715  0.00  0.00    +0.000 A 
ATOM      3  C   UNL     1      46.803   4.168  13.918  0.00  0.00    +0.000 A 
ATOM      4  N   UNL     1      46.996   3.485  15.071  0.00  0.00    +0.000 NA
ATOM      5  C   UNL     1      47.684   4.141  16.041  0.00  0.00    +0.000 A 
ATOM      6  C   UNL     1      48.195   5.416  15.827  0.00  0.00    +0.000 A 
ATOM      7  N   UNL     1      48.003   6.100  14.674  0.00  0.00    +0.000 NA
BRANCH   2   8
ATOM      8  C   UNL     1      46.946   6.217  12.460  0.00  0.00    +0.000 C 
BRANCH   8  14
ATOM      9  C   UNL     1      44.607   3.842   8.902  0.00  0.00    +0.000 C 
ATOM     10  C   UNL     1      44.510   4.644  10.164  0.00  0.00    +0.000 A 
ATOM     11  C   UNL     1      43.271   4.988  10.694  0.00  0.00    +0.000 A 
ATOM     12  C   UNL     1      43.230   5.776  11.838  0.00  0.00    +0.000 A 
ATOM     13  C   UNL     1      44.421   6.197  12.418  0.00  0.00    +0.000 A 
ATOM     14  C   UNL     1      45.629   5.795  11.850  0.00  0.00    +0.000 A 
ATOM     15  N   UNL     1      45.682   5.030  10.730  0.00  0.00    +0.000 NA
ENDBRANCH   8  14
ENDBRANCH   2   8
ENDBRANCH   1   5
BRANCH   1  16
ATOM     16  N   UNL     1      49.278   3.249  17.675  0.00  0.00    +0.000 N 
ATOM     17  C   UNL     1      50.028   2.296  17.037  0.00  0.00    +0.000 C 
ATOM     18  O   UNL     1      49.560   1.603  16.136  0.00  0.00    +0.000 OA
ATOM     19  H   UNL     1      49.600   3.637  18.558  0.00  0.00    +0.000 HD
BRANCH  17  20
ATOM     20  C   UNL     1      51.433   2.183  17.437  0.00  0.00    +0.000 A 
ATOM     21  C   UNL     1      51.988   0.925  17.632  0.00  0.00    +0.000 A 
ATOM     22  S   UNL     1      53.633   0.965  18.081  0.00  0.00    +0.000 S 
ATOM     23  C   UNL     1      53.648   2.667  18.074  0.00  0.00    +0.000 A 
ATOM     24  N   UNL     1      54.771   3.358  18.412  0.00  0.00    +0.000 NA
ATOM     25  C   UNL     1      54.629   4.644  18.399  0.00  0.00    +0.000 A 
ATOM     26  N   UNL     1      53.475   5.297  18.063  0.00  0.00    +0.000 N 
ATOM     27  C   UNL     1      52.335   4.643  17.662  0.00  0.00    +0.000 A 
ATOM     28  O   UNL     1      51.348   5.257  17.274  0.00  0.00    +0.000 OA
ATOM     29  C   UNL     1      52.426   3.197  17.702  0.00  0.00    +0.000 A 
ATOM     30  H   UNL     1      53.439   6.306  18.047  0.00  0.00    +0.000 HD
ENDBRANCH  17  20
ENDBRANCH   1  16
TORSDOF 5
ENDMDL
MODEL 5
REMARK VINA RESULT:    -7.089      1.855      2.749
REMARK INTER + INTRA:         -10.008
REMARK INTER:                  -9.665
REMARK INTRA:                  -0.343
REMARK UNBOUND:                -0.846
REMARK  Name = 
REMARK  6 active torsions:
REMARK  status: ('A' for Active; 'I' for Inactive)
REMARK    1  A    between atoms: C_1  and  C_2
REMARK    2  A    between atoms: C_6  and  C_7
REMARK    3  A    between atoms: C_7  and  C_8
REMARK    4  A    between atoms: C_11  and  C_12
REMARK    5  A    between atoms: C_12  and  N_13
REMARK    6  A    between atoms: C_14  and  C_16
REMARK                            x       y       z     vdW  Elec       q    Type
REMARK                         _______ _______ _______ _____ _____    ______ ____
ROOT
ATOM      1  C   UNL     1      46.848   6.661  13.683  0.00  0.00    +0.000 C 
ENDROOT
BRANCH   1   5
ATOM      2  C   UNL     1      45.155   4.300  10.642  0.00  0.00    +0.000 A 
ATOM      3  C   UNL     1      45.251   3.836  11.949  0.00  0.00    +0.000 A 
ATOM      4  N   UNL     1      45.808   4.561  12.948  0.00  0.00    +0.000 NA
ATOM      5  C   UNL     1      46.267   5.792  12.602  0.00  0.00    +0.000 A 
ATOM      6  C   UNL     1      46.204   6.243  11.289  0.00  0.00    +0.000 A 
ATOM      7  N   UNL     1      45.648   5.518  10.290  0.00  0.00    +0.000 NA
BRANCH   2   8
ATOM      8  C   UNL     1      44.427   3.505   9.592  0.00  0.00    +0.000 C 
BRANCH   8  14
ATOM      9  C   UNL     1      46.825  -0.317   7.743  0.00  0.00    +0.000 C 
ATOM     10  C   UNL     1      46.475   1.135   7.624  0.00  0.00    +0.000 A 
ATOM     11  C   UNL     1      47.004   1.912   6.599  0.00  0.00    +0.000 A 
ATOM     12  C   UNL     1      46.692   3.265   6.557  0.00  0.00    +0.000 A 
ATOM     13  C   UNL     1      45.863   3.803   7.535  0.00  0.00    +0.000 A 
ATOM     14  C   UNL     1      45.346   2.963   8.520  0.00  0.00    +0.000 A 
ATOM     15  N   UNL     1      45.647   1.641   8.574  0.00  0.00    +0.000 NA
ENDBRANCH   8  14
ENDBRANCH   2   8
ENDBRANCH   1   5
BRANCH   1  16
ATOM     16  N   UNL     1      47.479   5.890  14.730  0.00  0.00    +0.000 N 
ATOM     17  C   UNL     1      48.336   6.468  15.629  0.00  0.00    +0.000 C 
ATOM     18  O   UNL     1      48.568   7.674  15.617  0.00  0.00    +0.000 OA
ATOM     19  H   UNL     1      47.484   4.881  14.604  0.00  0.00    +0.000 HD
BRANCH  17  20
ATOM     20  C   UNL     1      48.917   5.589  16.647  0.00  0.00    +0.000 A 
ATOM     21  C   UNL     1      48.092   4.730  17.360  0.00  0.00    +0.000 A 
ATOM     22  S   UNL     1      48.923   3.765  18.495  0.00  0.00    +0.000 S 
ATOM     23  C   UNL     1      50.410   4.495  18.104  0.00  0.00    +0.000 A 
ATOM     24  N   UNL     1      51.554   4.144  18.753  0.00  0.00    +0.000 NA
ATOM     25  C   UNL     1      52.602   4.804  18.380  0.00  0.00    +0.000 A 
ATOM     26  N   UNL     1      52.611   5.768  17.410  0.00  0.00    +0.000 N 
ATOM     27  C   UNL     1      51.494   6.116  16.691  0.00  0.00    +0.000 A 
ATOM     28  O   UNL     1      51.553   6.912  15.761  0.00  0.00    +0.000 OA
ATOM     29  C   UNL     1      50.280   5.437  17.099  0.00  0.00    +0.000 A 
ATOM     30  H   UNL     1      53.472   6.228  17.147  0.00  0.00    +0.000 HD
ENDBRANCH  17  20
ENDBRANCH   1  16
TORSDOF 5
ENDMDL
MODEL 6
REMARK VINA RESULT:    -7.003      3.931      9.455
REMARK INTER + INTRA:          -9.896
REMARK INTER:                  -8.959
REMARK INTRA:                  -0.937
REMARK UNBOUND:                -0.846
REMARK  Name = 
REMARK  6 active torsions:
REMARK  status: ('A' for Active; 'I' for Inactive)
REMARK    1  A    between atoms: C_1  and  C_2
REMARK    2  A    between atoms: C_6  and  C_7
REMARK    3  A    between atoms: C_7  and  C_8
REMARK    4  A    between atoms: C_11  and  C_12
REMARK    5  A    between atoms: C_12  and  N_13
REMARK    6  A    between atoms: C_14  and  C_16
REMARK                            x       y       z     vdW  Elec       q    Type
REMARK                         _______ _______ _______ _____ _____    ______ ____
ROOT
ATOM      1  C   UNL     1      47.783   3.991  16.124  0.00  0.00    +0.000 C 
ENDROOT
BRANCH   1   5
ATOM      2  C   UNL     1      48.138   6.464  19.506  0.00  0.00    +0.000 A 
ATOM      3  C   UNL     1      46.948   5.808  19.211  0.00  0.00    +0.000 A 
ATOM      4  N   UNL     1      46.793   5.021  18.121  0.00  0.00    +0.000 NA
ATOM      5  C   UNL     1      47.884   4.895  17.321  0.00  0.00    +0.000 A 
ATOM      6  C   UNL     1      49.062   5.578  17.594  0.00  0.00    +0.000 A 
ATOM      7  N   UNL     1      49.218   6.367  18.684  0.00  0.00    +0.000 NA
BRANCH   2   8
ATOM      8  C   UNL     1      48.297   7.237  20.788  0.00  0.00    +0.000 C 
BRANCH   8  14
ATOM      9  C   UNL     1      47.348  11.405  18.443  0.00  0.00    +0.000 C 
ATOM     10  C   UNL     1      47.100  10.544  19.644  0.00  0.00    +0.000 A 
ATOM     11  C   UNL     1      46.273  10.982  20.673  0.00  0.00    +0.000 A 
ATOM     12  C   UNL     1      46.112  10.172  21.791  0.00  0.00    +0.000 A 
ATOM     13  C   UNL     1      46.777   8.953  21.849  0.00  0.00    +0.000 A 
ATOM     14  C   UNL     1      47.570   8.563  20.771  0.00  0.00    +0.000 A 
ATOM     15  N   UNL     1      47.739   9.348  19.677  0.00  0.00    +0.000 NA
ENDBRANCH   8  14
ENDBRANCH   2   8
ENDBRANCH   1   5
BRANCH   1  16
ATOM     16  N   UNL     1      46.872   4.499  15.124  0.00  0.00    +0.000 N 
ATOM     17  C   UNL     1      47.283   5.383  14.161  0.00  0.00    +0.000 C 
ATOM     18  O   UNL     1      48.454   5.745  14.075  0.00  0.00    +0.000 OA
ATOM     19  H   UNL     1      45.881   4.398  15.327  0.00  0.00    +0.000 HD
BRANCH  17  20
ATOM     20  C   UNL     1      46.272   5.830  13.200  0.00  0.00    +0.000 A 
ATOM     21  C   UNL     1      46.128   7.187  12.942  0.00  0.00    +0.000 A 
ATOM     22  S   UNL     1      44.921   7.541  11.791  0.00  0.00    +0.000 S 
ATOM     23  C   UNL     1      44.517   5.895  11.630  0.00  0.00    +0.000 A 
ATOM     24  N   UNL     1      43.510   5.499  10.805  0.00  0.00    +0.000 NA
ATOM     25  C   UNL     1      43.288   4.225  10.809  0.00  0.00    +0.000 A 
ATOM     26  N   UNL     1      43.992   3.314  11.548  0.00  0.00    +0.000 N 
ATOM     27  C   UNL     1      45.052   3.661  12.351  0.00  0.00    +0.000 A 
ATOM     28  O   UNL     1      45.725   2.813  12.924  0.00  0.00    +0.000 OA
ATOM     29  C   UNL     1      45.314   5.085  12.418  0.00  0.00    +0.000 A 
ATOM     30  H   UNL     1      43.785   2.327  11.484  0.00  0.00    +0.000 HD
ENDBRANCH  17  20
ENDBRANCH   1  16
TORSDOF 5
ENDMDL
MODEL 7
REMARK VINA RESULT:    -6.980      2.598      3.202
REMARK INTER + INTRA:          -9.866
REMARK INTER:                  -8.996
REMARK INTRA:                  -0.870
REMARK UNBOUND:                -0.846
REMARK  Name = 
REMARK  6 active torsions:
REMARK  status: ('A' for Active; 'I' for Inactive)
REMARK    1  A    between atoms: C_1  and  C_2
REMARK    2  A    between atoms: C_6  and  C_7
REMARK    3  A    between atoms: C_7  and  C_8
REMARK    4  A    between atoms: C_11  and  C_12
REMARK    5  A    between atoms: C_12  and  N_13
REMARK    6  A    between atoms: C_14  and  C_16
REMARK                            x       y       z     vdW  Elec       q    Type
REMARK                         _______ _______ _______ _____ _____    ______ ____
ROOT
ATOM      1  C   UNL     1      48.390   7.070  13.947  0.00  0.00    +0.000 C 
ENDROOT
BRANCH   1   5
ATOM      2  C   UNL     1      45.189   5.677  11.602  0.00  0.00    +0.000 A 
ATOM      3  C   UNL     1      45.657   6.981  11.486  0.00  0.00    +0.000 A 
ATOM      4  N   UNL     1      46.672   7.468  12.238  0.00  0.00    +0.000 NA
ATOM      5  C   UNL     1      47.225   6.597  13.122  0.00  0.00    +0.000 A 
ATOM      6  C   UNL     1      46.735   5.305  13.265  0.00  0.00    +0.000 A 
ATOM      7  N   UNL     1      45.720   4.817  12.512  0.00  0.00    +0.000 NA
BRANCH   2   8
ATOM      8  C   UNL     1      44.135   5.148  10.666  0.00  0.00    +0.000 C 
BRANCH   8  14
ATOM      9  C   UNL     1      46.777   3.922   6.756  0.00  0.00    +0.000 C 
ATOM     10  C   UNL     1      45.927   3.466   7.902  0.00  0.00    +0.000 A 
ATOM     11  C   UNL     1      45.624   2.119   8.070  0.00  0.00    +0.000 A 
ATOM     12  C   UNL     1      44.791   1.748   9.117  0.00  0.00    +0.000 A 
ATOM     13  C   UNL     1      44.286   2.726   9.965  0.00  0.00    +0.000 A 
ATOM     14  C   UNL     1      44.649   4.056   9.756  0.00  0.00    +0.000 A 
ATOM     15  N   UNL     1      45.459   4.431   8.734  0.00  0.00    +0.000 NA
ENDBRANCH   8  14
ENDBRANCH   2   8
ENDBRANCH   1   5
BRANCH   1  16
ATOM     16  N   UNL     1      48.094   7.085  15.361  0.00  0.00    +0.000 N 
ATOM     17  C   UNL     1      48.965   6.567  16.283  0.00  0.00    +0.000 C 
ATOM     18  O   UNL     1      50.058   6.111  15.953  0.00  0.00    +0.000 OA
ATOM     19  H   UNL     1      47.121   7.234  15.614  0.00  0.00    +0.000 HD
BRANCH  17  20
ATOM     20  C   UNL     1      48.559   6.638  17.689  0.00  0.00    +0.000 A 
ATOM     21  C   UNL     1      48.568   5.484  18.461  0.00  0.00    +0.000 A 
ATOM     22  S   UNL     1      48.084   5.737  20.076  0.00  0.00    +0.000 S 
ATOM     23  C   UNL     1      47.802   7.390  19.788  0.00  0.00    +0.000 A 
ATOM     24  N   UNL     1      47.326   8.202  20.772  0.00  0.00    +0.000 NA
ATOM     25  C   UNL     1      47.124   9.425  20.403  0.00  0.00    +0.000 A 
ATOM     26  N   UNL     1      47.369   9.910  19.148  0.00  0.00    +0.000 N 
ATOM     27  C   UNL     1      47.900   9.143  18.140  0.00  0.00    +0.000 A 
ATOM     28  O   UNL     1      48.200   9.630  17.056  0.00  0.00    +0.000 OA
ATOM     29  C   UNL     1      48.104   7.751  18.487  0.00  0.00    +0.000 A 
ATOM     30  H   UNL     1      47.215  10.886  18.933  0.00  0.00    +0.000 HD
ENDBRANCH  17  20
ENDBRANCH   1  16
TORSDOF 5
ENDMDL
MODEL 8
REMARK VINA RESULT:    -6.894      2.411      3.303
REMARK INTER + INTRA:          -9.755
REMARK INTER:                  -9.110
REMARK INTRA:                  -0.644
REMARK UNBOUND:                -0.846
REMARK  Name = 
REMARK  6 active torsions:
REMARK  status: ('A' for Active; 'I' for Inactive)
REMARK    1  A    between atoms: C_1  and  C_2
REMARK    2  A    between atoms: C_6  and  C_7
REMARK    3  A    between atoms: C_7  and  C_8
REMARK    4  A    between atoms: C_11  and  C_12
REMARK    5  A    between atoms: C_12  and  N_13
REMARK    6  A    between atoms: C_14  and  C_16
REMARK                            x       y       z     vdW  Elec       q    Type
REMARK                         _______ _______ _______ _____ _____    ______ ____
ROOT
ATOM      1  C   UNL     1      49.131   7.486  15.167  0.00  0.00    +0.000 C 
ENDROOT
BRANCH   1   5
ATOM      2  C   UNL     1      46.043   5.623  13.004  0.00  0.00    +0.000 A 
ATOM      3  C   UNL     1      46.972   4.880  13.724  0.00  0.00    +0.000 A 
ATOM      4  N   UNL     1      47.990   5.446  14.414  0.00  0.00    +0.000 NA
ATOM      5  C   UNL     1      48.051   6.802  14.375  0.00  0.00    +0.000 A 
ATOM      6  C   UNL     1      47.145   7.545  13.627  0.00  0.00    +0.000 A 
ATOM      7  N   UNL     1      46.126   6.979  12.936  0.00  0.00    +0.000 NA
BRANCH   2   8
ATOM      8  C   UNL     1      44.864   4.956  12.346  0.00  0.00    +0.000 C 
BRANCH   8  14
ATOM      9  C   UNL     1      44.758   1.547   8.862  0.00  0.00    +0.000 C 
ATOM     10  C   UNL     1      45.055   2.968   9.233  0.00  0.00    +0.000 A 
ATOM     11  C   UNL     1      45.566   3.856   8.293  0.00  0.00    +0.000 A 
ATOM     12  C   UNL     1      45.875   5.150   8.695  0.00  0.00    +0.000 A 
ATOM     13  C   UNL     1      45.664   5.520  10.018  0.00  0.00    +0.000 A 
ATOM     14  C   UNL     1      45.124   4.589  10.903  0.00  0.00    +0.000 A 
ATOM     15  N   UNL     1      44.824   3.321  10.524  0.00  0.00    +0.000 NA
ENDBRANCH   8  14
ENDBRANCH   2   8
ENDBRANCH   1   5
BRANCH   1  16
ATOM     16  N   UNL     1      50.096   6.553  15.702  0.00  0.00    +0.000 N 
ATOM     17  C   UNL     1      50.082   6.184  17.021  0.00  0.00    +0.000 C 
ATOM     18  O   UNL     1      49.219   6.591  17.796  0.00  0.00    +0.000 OA
ATOM     19  H   UNL     1      50.933   6.404  15.145  0.00  0.00    +0.000 HD
BRANCH  17  20
ATOM     20  C   UNL     1      51.108   5.232  17.453  0.00  0.00    +0.000 A 
ATOM     21  C   UNL     1      52.316   5.707  17.947  0.00  0.00    +0.000 A 
ATOM     22  S   UNL     1      53.396   4.474  18.418  0.00  0.00    +0.000 S 
ATOM     23  C   UNL     1      52.304   3.261  17.935  0.00  0.00    +0.000 A 
ATOM     24  N   UNL     1      52.631   1.944  18.037  0.00  0.00    +0.000 NA
ATOM     25  C   UNL     1      51.723   1.133  17.599  0.00  0.00    +0.000 A 
ATOM     26  N   UNL     1      50.515   1.521  17.087  0.00  0.00    +0.000 N 
ATOM     27  C   UNL     1      50.120   2.834  17.016  0.00  0.00    +0.000 A 
ATOM     28  O   UNL     1      48.994   3.145  16.643  0.00  0.00    +0.000 OA
ATOM     29  C   UNL     1      51.120   3.788  17.452  0.00  0.00    +0.000 A 
ATOM     30  H   UNL     1      49.838   0.834  16.787  0.00  0.00    +0.000 HD
ENDBRANCH  17  20
ENDBRANCH   1  16
TORSDOF 5
ENDMDL
MODEL 9
REMARK VINA RESULT:    -6.804      2.961      8.478
REMARK INTER + INTRA:          -9.638
REMARK INTER:                  -8.649
REMARK INTRA:                  -0.989
REMARK UNBOUND:                -0.846
REMARK  Name = 
REMARK  6 active torsions:
REMARK  status: ('A' for Active; 'I' for Inactive)
REMARK    1  A    between atoms: C_1  and  C_2
REMARK    2  A    between atoms: C_6  and  C_7
REMARK    3  A    between atoms: C_7  and  C_8
REMARK    4  A    between atoms: C_11  and  C_12
REMARK    5  A    between atoms: C_12  and  N_13
REMARK    6  A    between atoms: C_14  and  C_16
REMARK                            x       y       z     vdW  Elec       q    Type
REMARK                         _______ _______ _______ _____ _____    ______ ____
ROOT
ATOM      1  C   UNL     1      47.913   7.869  11.812  0.00  0.00    +0.000 C 
ENDROOT
BRANCH   1   5
ATOM      2  C   UNL     1      49.341   8.310  15.743  0.00  0.00    +0.000 A 
ATOM      3  C   UNL     1      48.180   8.947  15.319  0.00  0.00    +0.000 A 
ATOM      4  N   UNL     1      47.703   8.843  14.057  0.00  0.00    +0.000 NA
ATOM      5  C   UNL     1      48.426   8.061  13.213  0.00  0.00    +0.000 A 
ATOM      6  C   UNL     1      49.605   7.453  13.624  0.00  0.00    +0.000 A 
ATOM      7  N   UNL     1      50.083   7.557  14.887  0.00  0.00    +0.000 NA
BRANCH   2   8
ATOM      8  C   UNL     1      49.769   8.364  17.185  0.00  0.00    +0.000 C 
BRANCH   8  14
ATOM      9  C   UNL     1      47.317   4.211  17.900  0.00  0.00    +0.000 C 
ATOM     10  C   UNL     1      47.737   5.542  18.445  0.00  0.00    +0.000 A 
ATOM     11  C   UNL     1      47.301   5.968  19.695  0.00  0.00    +0.000 A 
ATOM     12  C   UNL     1      47.674   7.231  20.138  0.00  0.00    +0.000 A 
ATOM     13  C   UNL     1      48.468   8.030  19.324  0.00  0.00    +0.000 A 
ATOM     14  C   UNL     1      48.891   7.533  18.093  0.00  0.00    +0.000 A 
ATOM     15  N   UNL     1      48.529   6.303  17.647  0.00  0.00    +0.000 NA
ENDBRANCH   8  14
ENDBRANCH   2   8
ENDBRANCH   1   5
BRANCH   1  16
ATOM     16  N   UNL     1      47.128   6.664  11.673  0.00  0.00    +0.000 N 
ATOM     17  C   UNL     1      45.762   6.682  11.774  0.00  0.00    +0.000 C 
ATOM     18  O   UNL     1      45.140   7.729  11.940  0.00  0.00    +0.000 OA
ATOM     19  H   UNL     1      47.630   5.786  11.775  0.00  0.00    +0.000 HD
BRANCH  17  20
ATOM     20  C   UNL     1      45.070   5.400  11.616  0.00  0.00    +0.000 A 
ATOM     21  C   UNL     1      44.358   4.871  12.684  0.00  0.00    +0.000 A 
ATOM     22  S   UNL     1      43.600   3.384  12.333  0.00  0.00    +0.000 S 
ATOM     23  C   UNL     1      44.236   3.373  10.754  0.00  0.00    +0.000 A 
ATOM     24  N   UNL     1      43.995   2.333   9.910  0.00  0.00    +0.000 NA
ATOM     25  C   UNL     1      44.569   2.439   8.756  0.00  0.00    +0.000 A 
ATOM     26  N   UNL     1      45.347   3.495   8.367  0.00  0.00    +0.000 N 
ATOM     27  C   UNL     1      45.573   4.590   9.164  0.00  0.00    +0.000 A 
ATOM     28  O   UNL     1      46.193   5.564   8.753  0.00  0.00    +0.000 OA
ATOM     29  C   UNL     1      44.988   4.503  10.487  0.00  0.00    +0.000 A 
ATOM     30  H   UNL     1      45.745   3.528   7.439  0.00  0.00    +0.000 HD
ENDBRANCH  17  20
ENDBRANCH   1  16
TORSDOF 5
ENDMDL
