MODEL 1
REMARK VINA RESULT:    -7.044      0.000      0.000
REMARK INTER + INTRA:         -10.865
REMARK INTER:                 -10.133
REMARK INTRA:                  -0.732
REMARK UNBOUND:                -0.732
REMARK  Name = 
REMARK  9 active torsions:
REMARK  status: ('A' for Active; 'I' for Inactive)
REMARK    1  A    between atoms: C_1  and  C_2
REMARK    2  A    between atoms: C_5  and  C_6
REMARK    3  A    between atoms: C_6  and  C_7
REMARK    4  A    between atoms: C_7  and  C_8
REMARK    5  A    between atoms: C_12  and  C_13
REMARK    6  A    between atoms: C_13  and  C_14
REMARK    7  A    between atoms: C_14  and  O_15
REMARK    8  A    between atoms: C_18  and  C_19
REMARK    9  A    between atoms: C_20  and  C_21
REMARK                            x       y       z     vdW  Elec       q    Type
REMARK                         _______ _______ _______ _____ _____    ______ ____
ROOT
ATOM      1  C   UNL     1      43.661   4.817  11.519  0.00  0.00    +0.000 C 
ENDROOT
BRANCH   1   6
ATOM      2  C   UNL     1      48.498   6.778  13.970  0.00  0.00    +0.000 C 
ATOM      3  C   UNL     1      47.264   6.138  13.415  0.00  0.00    +0.000 A 
ATOM      4  C   UNL     1      46.619   6.791  12.364  0.00  0.00    +0.000 A 
ATOM      5  N   UNL     1      45.484   6.374  11.774  0.00  0.00    +0.000 NA
ATOM      6  C   UNL     1      44.918   5.243  12.235  0.00  0.00    +0.000 A 
ATOM      7  C   UNL     1      45.500   4.506  13.269  0.00  0.00    +0.000 A 
ATOM      8  C   UNL     1      46.689   4.944  13.883  0.00  0.00    +0.000 A 
BRANCH   8   9
ATOM      9  C   UNL     1      47.160   4.110  15.015  0.00  0.00    +0.000 C 
ATOM     10  C   UNL     1      47.288   4.464  16.298  0.00  0.00    +0.000 C 
BRANCH  10  11
ATOM     11  C   UNL     1      47.795   3.577  17.290  0.00  0.00    +0.000 C 
ATOM     12  N   UNL     1      48.214   2.834  18.078  0.00  0.00    +0.000 NA
ENDBRANCH  10  11
ENDBRANCH   8   9
ENDBRANCH   1   6
BRANCH   1  13
ATOM     13  C   UNL     1      43.702   4.942   9.993  0.00  0.00    +0.000 C 
BRANCH  13  14
ATOM     14  C   UNL     1      44.514   3.846   9.349  0.00  0.00    +0.000 A 
ATOM     15  C   UNL     1      44.302   2.499   9.654  0.00  0.00    +0.000 A 
ATOM     16  C   UNL     1      45.053   1.508   9.018  0.00  0.00    +0.000 A 
ATOM     17  C   UNL     1      45.997   1.853   8.046  0.00  0.00    +0.000 A 
ATOM     18  C   UNL     1      46.203   3.195   7.711  0.00  0.00    +0.000 A 
ATOM     19  C   UNL     1      45.478   4.182   8.392  0.00  0.00    +0.000 A 
BRANCH  18  20
ATOM     20  C   UNL     1      47.124   3.605   6.585  0.00  0.00    +0.000 C 
BRANCH  20  21
ATOM     21  C   UNL     1      47.251   2.524   5.507  0.00  0.00    +0.000 C 
BRANCH  21  22
ATOM     22  O   UNL     1      48.517   1.869   5.558  0.00  0.00    +0.000 OA
ATOM     23  H   UNL     1      48.736   1.766   6.504  0.00  0.00    +0.000 HD
ENDBRANCH  21  22
ENDBRANCH  20  21
ENDBRANCH  18  20
ENDBRANCH  13  14
ENDBRANCH   1  13
TORSDOF 8
ENDMDL
MODEL 2
REMARK VINA RESULT:    -6.941      1.910      3.885
REMARK INTER + INTRA:         -10.717
REMARK INTER:                 -10.454
REMARK INTRA:                  -0.263
REMARK UNBOUND:                -0.732
REMARK  Name = 
REMARK  9 active torsions:
REMARK  status: ('A' for Active; 'I' for Inactive)
REMARK    1  A    between atoms: C_1  and  C_2
REMARK    2  A    between atoms: C_5  and  C_6
REMARK    3  A    between atoms: C_6  and  C_7
REMARK    4  A    between atoms: C_7  and  C_8
REMARK    5  A    between atoms: C_12  and  C_13
REMARK    6  A    between atoms: C_13  and  C_14
REMARK    7  A    between atoms: C_14  and  O_15
REMARK    8  A    between atoms: C_18  and  C_19
REMARK    9  A    between atoms: C_20  and  C_21
REMARK                            x       y       z     vdW  Elec       q    Type
REMARK                         _______ _______ _______ _____ _____    ______ ____
ROOT
ATOM      1  C   UNL     1      43.433   3.739  11.970  0.00  0.00    +0.000 C 
ENDROOT
BRANCH   1   6
ATOM      2  C   UNL     1      48.033   6.447  14.151  0.00  0.00    +0.000 C 
ATOM      3  C   UNL     1      46.770   5.884  13.577  0.00  0.00    +0.000 A 
ATOM      4  C   UNL     1      46.642   4.495  13.549  0.00  0.00    +0.000 A 
ATOM      5  N   UNL     1      45.592   3.824  13.039  0.00  0.00    +0.000 NA
ATOM      6  C   UNL     1      44.589   4.546  12.505  0.00  0.00    +0.000 A 
ATOM      7  C   UNL     1      44.615   5.942  12.505  0.00  0.00    +0.000 A 
ATOM      8  C   UNL     1      45.713   6.640  13.042  0.00  0.00    +0.000 A 
BRANCH   8   9
ATOM      9  C   UNL     1      45.649   8.116  12.912  0.00  0.00    +0.000 C 
ATOM     10  C   UNL     1      45.041   8.832  11.960  0.00  0.00    +0.000 C 
BRANCH  10  11
ATOM     11  C   UNL     1      45.088  10.254  11.925  0.00  0.00    +0.000 C 
ATOM     12  N   UNL     1      45.107  11.415  11.877  0.00  0.00    +0.000 NA
ENDBRANCH  10  11
ENDBRANCH   8   9
ENDBRANCH   1   6
BRANCH   1  13
ATOM     13  C   UNL     1      43.817   2.562  11.066  0.00  0.00    +0.000 C 
BRANCH  13  14
ATOM     14  C   UNL     1      44.602   3.002   9.856  0.00  0.00    +0.000 A 
ATOM     15  C   UNL     1      44.707   4.349   9.497  0.00  0.00    +0.000 A 
ATOM     16  C   UNL     1      45.465   4.722   8.385  0.00  0.00    +0.000 A 
ATOM     17  C   UNL     1      46.154   3.758   7.644  0.00  0.00    +0.000 A 
ATOM     18  C   UNL     1      46.080   2.409   8.005  0.00  0.00    +0.000 A 
ATOM     19  C   UNL     1      45.276   2.042   9.093  0.00  0.00    +0.000 A 
BRANCH  18  20
ATOM     20  C   UNL     1      46.901   1.349   7.308  0.00  0.00    +0.000 C 
BRANCH  20  21
ATOM     21  C   UNL     1      47.280   1.746   5.877  0.00  0.00    +0.000 C 
BRANCH  21  22
ATOM     22  O   UNL     1      48.694   1.789   5.695  0.00  0.00    +0.000 OA
ATOM     23  H   UNL     1      49.032   0.912   5.958  0.00  0.00    +0.000 HD
ENDBRANCH  21  22
ENDBRANCH  20  21
ENDBRANCH  18  20
ENDBRANCH  13  14
ENDBRANCH   1  13
TORSDOF 8
ENDMDL
MODEL 3
REMARK VINA RESULT:    -6.391      2.222      4.062
REMARK INTER + INTRA:          -9.925
REMARK INTER:                  -9.178
REMARK INTRA:                  -0.747
REMARK UNBOUND:                -0.732
REMARK  Name = 
REMARK  9 active torsions:
REMARK  status: ('A' for Active; 'I' for Inactive)
REMARK    1  A    between atoms: C_1  and  C_2
REMARK    2  A    between atoms: C_5  and  C_6
REMARK    3  A    between atoms: C_6  and  C_7
REMARK    4  A    between atoms: C_7  and  C_8
REMARK    5  A    between atoms: C_12  and  C_13
REMARK    6  A    between atoms: C_13  and  C_14
REMARK    7  A    between atoms: C_14  and  O_15
REMARK    8  A    between atoms: C_18  and  C_19
REMARK    9  A    between atoms: C_20  and  C_21
REMARK                            x       y       z     vdW  Elec       q    Type
REMARK                         _______ _______ _______ _____ _____    ______ ____
ROOT
ATOM      1  C   UNL     1      45.107   5.053  11.992  0.00  0.00    +0.000 C 
ENDROOT
BRANCH   1   6
ATOM      2  C   UNL     1      49.737   7.391  14.513  0.00  0.00    +0.000 C 
ATOM      3  C   UNL     1      48.538   6.905  13.759  0.00  0.00    +0.000 A 
ATOM      4  C   UNL     1      47.832   5.831  14.302  0.00  0.00    +0.000 A 
ATOM      5  N   UNL     1      46.755   5.248  13.741  0.00  0.00    +0.000 NA
ATOM      6  C   UNL     1      46.328   5.732  12.558  0.00  0.00    +0.000 A 
ATOM      7  C   UNL     1      46.955   6.819  11.947  0.00  0.00    +0.000 A 
ATOM      8  C   UNL     1      48.079   7.427  12.538  0.00  0.00    +0.000 A 
BRANCH   8   9
ATOM      9  C   UNL     1      48.694   8.522  11.749  0.00  0.00    +0.000 C 
ATOM     10  C   UNL     1      48.353   9.815  11.733  0.00  0.00    +0.000 C 
BRANCH  10  11
ATOM     11  C   UNL     1      49.000  10.767  10.895  0.00  0.00    +0.000 C 
ATOM     12  N   UNL     1      49.522  11.528  10.188  0.00  0.00    +0.000 NA
ENDBRANCH  10  11
ENDBRANCH   8   9
ENDBRANCH   1   6
BRANCH   1  13
ATOM     13  C   UNL     1      44.834   5.326  10.509  0.00  0.00    +0.000 C 
BRANCH  13  14
ATOM     14  C   UNL     1      45.110   4.121   9.645  0.00  0.00    +0.000 A 
ATOM     15  C   UNL     1      44.658   2.846   9.995  0.00  0.00    +0.000 A 
ATOM     16  C   UNL     1      44.908   1.758   9.156  0.00  0.00    +0.000 A 
ATOM     17  C   UNL     1      45.578   1.941   7.943  0.00  0.00    +0.000 A 
ATOM     18  C   UNL     1      46.015   3.215   7.566  0.00  0.00    +0.000 A 
ATOM     19  C   UNL     1      45.802   4.290   8.439  0.00  0.00    +0.000 A 
BRANCH  18  20
ATOM     20  C   UNL     1      46.636   3.479   6.214  0.00  0.00    +0.000 C 
BRANCH  20  21
ATOM     21  C   UNL     1      47.609   2.374   5.789  0.00  0.00    +0.000 C 
BRANCH  21  22
ATOM     22  O   UNL     1      48.894   2.542   6.383  0.00  0.00    +0.000 OA
ATOM     23  H   UNL     1      48.870   3.394   6.858  0.00  0.00    +0.000 HD
ENDBRANCH  21  22
ENDBRANCH  20  21
ENDBRANCH  18  20
ENDBRANCH  13  14
ENDBRANCH   1  13
TORSDOF 8
ENDMDL
MODEL 4
REMARK VINA RESULT:    -6.281      2.929      4.072
REMARK INTER + INTRA:          -9.767
REMARK INTER:                  -9.177
REMARK INTRA:                  -0.590
REMARK UNBOUND:                -0.732
REMARK  Name = 
REMARK  9 active torsions:
REMARK  status: ('A' for Active; 'I' for Inactive)
REMARK    1  A    between atoms: C_1  and  C_2
REMARK    2  A    between atoms: C_5  and  C_6
REMARK    3  A    between atoms: C_6  and  C_7
REMARK    4  A    between atoms: C_7  and  C_8
REMARK    5  A    between atoms: C_12  and  C_13
REMARK    6  A    between atoms: C_13  and  C_14
REMARK    7  A    between atoms: C_14  and  O_15
REMARK    8  A    between atoms: C_18  and  C_19
REMARK    9  A    between atoms: C_20  and  C_21
REMARK                            x       y       z     vdW  Elec       q    Type
REMARK                         _______ _______ _______ _____ _____    ______ ____
ROOT
ATOM      1  C   UNL     1      45.669   5.873  11.797  0.00  0.00    +0.000 C 
ENDROOT
BRANCH   1   6
ATOM      2  C   UNL     1      47.985  11.139  12.197  0.00  0.00    +0.000 C 
ATOM      3  C   UNL     1      47.526   9.722  12.050  0.00  0.00    +0.000 A 
ATOM      4  C   UNL     1      46.153   9.482  12.129  0.00  0.00    +0.000 A 
ATOM      5  N   UNL     1      45.574   8.269  12.053  0.00  0.00    +0.000 NA
ATOM      6  C   UNL     1      46.379   7.200  11.898  0.00  0.00    +0.000 A 
ATOM      7  C   UNL     1      47.763   7.341  11.786  0.00  0.00    +0.000 A 
ATOM      8  C   UNL     1      48.366   8.611  11.863  0.00  0.00    +0.000 A 
BRANCH   8   9
ATOM      9  C   UNL     1      49.847   8.613  11.805  0.00  0.00    +0.000 C 
ATOM     10  C   UNL     1      50.642   7.820  11.078  0.00  0.00    +0.000 C 
BRANCH  10  11
ATOM     11  C   UNL     1      52.062   7.895  11.143  0.00  0.00    +0.000 C 
ATOM     12  N   UNL     1      53.219   7.980  11.208  0.00  0.00    +0.000 NA
ENDBRANCH  10  11
ENDBRANCH   8   9
ENDBRANCH   1   6
BRANCH   1  13
ATOM     13  C   UNL     1      44.740   5.716  10.590  0.00  0.00    +0.000 C 
BRANCH  13  14
ATOM     14  C   UNL     1      44.938   4.400   9.881  0.00  0.00    +0.000 A 
ATOM     15  C   UNL     1      44.269   3.241  10.282  0.00  0.00    +0.000 A 
ATOM     16  C   UNL     1      44.455   2.045   9.585  0.00  0.00    +0.000 A 
ATOM     17  C   UNL     1      45.283   2.006   8.459  0.00  0.00    +0.000 A 
ATOM     18  C   UNL     1      45.940   3.163   8.029  0.00  0.00    +0.000 A 
ATOM     19  C   UNL     1      45.784   4.345   8.767  0.00  0.00    +0.000 A 
BRANCH  18  20
ATOM     20  C   UNL     1      46.747   3.196   6.752  0.00  0.00    +0.000 C 
BRANCH  20  21
ATOM     21  C   UNL     1      47.947   2.243   6.791  0.00  0.00    +0.000 C 
BRANCH  21  22
ATOM     22  O   UNL     1      48.448   1.967   5.485  0.00  0.00    +0.000 OA
ATOM     23  H   UNL     1      48.202   1.044   5.285  0.00  0.00    +0.000 HD
ENDBRANCH  21  22
ENDBRANCH  20  21
ENDBRANCH  18  20
ENDBRANCH  13  14
ENDBRANCH   1  13
TORSDOF 8
ENDMDL
MODEL 5
REMARK VINA RESULT:    -6.204      2.011      2.927
REMARK INTER + INTRA:          -9.656
REMARK INTER:                  -9.189
REMARK INTRA:                  -0.467
REMARK UNBOUND:                -0.732
REMARK  Name = 
REMARK  9 active torsions:
REMARK  status: ('A' for Active; 'I' for Inactive)
REMARK    1  A    between atoms: C_1  and  C_2
REMARK    2  A    between atoms: C_5  and  C_6
REMARK    3  A    between atoms: C_6  and  C_7
REMARK    4  A    between atoms: C_7  and  C_8
REMARK    5  A    between atoms: C_12  and  C_13
REMARK    6  A    between atoms: C_13  and  C_14
REMARK    7  A    between atoms: C_14  and  O_15
REMARK    8  A    between atoms: C_18  and  C_19
REMARK    9  A    between atoms: C_20  and  C_21
REMARK                            x       y       z     vdW  Elec       q    Type
REMARK                         _______ _______ _______ _____ _____    ______ ____
ROOT
ATOM      1  C   UNL     1      46.369   6.359  11.123  0.00  0.00    +0.000 C 
ENDROOT
BRANCH   1   6
ATOM      2  C   UNL     1      47.599   4.378  16.397  0.00  0.00    +0.000 C 
ATOM      3  C   UNL     1      47.364   5.018  15.065  0.00  0.00    +0.000 A 
ATOM      4  C   UNL     1      46.428   4.418  14.221  0.00  0.00    +0.000 A 
ATOM      5  N   UNL     1      46.121   4.841  12.980  0.00  0.00    +0.000 NA
ATOM      6  C   UNL     1      46.772   5.922  12.509  0.00  0.00    +0.000 A 
ATOM      7  C   UNL     1      47.710   6.604  13.286  0.00  0.00    +0.000 A 
ATOM      8  C   UNL     1      48.027   6.161  14.584  0.00  0.00    +0.000 A 
BRANCH   8   9
ATOM      9  C   UNL     1      49.092   6.930  15.273  0.00  0.00    +0.000 C 
ATOM     10  C   UNL     1      50.140   7.554  14.725  0.00  0.00    +0.000 C 
BRANCH  10  11
ATOM     11  C   UNL     1      51.122   8.228  15.505  0.00  0.00    +0.000 C 
ATOM     12  N   UNL     1      51.905   8.797  16.147  0.00  0.00    +0.000 NA
ENDBRANCH  10  11
ENDBRANCH   8   9
ENDBRANCH   1   6
BRANCH   1  13
ATOM     13  C   UNL     1      44.985   5.888  10.664  0.00  0.00    +0.000 C 
BRANCH  13  14
ATOM     14  C   UNL     1      45.043   4.580   9.917  0.00  0.00    +0.000 A 
ATOM     15  C   UNL     1      44.256   3.486  10.288  0.00  0.00    +0.000 A 
ATOM     16  C   UNL     1      44.314   2.299   9.555  0.00  0.00    +0.000 A 
ATOM     17  C   UNL     1      45.132   2.206   8.425  0.00  0.00    +0.000 A 
ATOM     18  C   UNL     1      45.906   3.299   8.026  0.00  0.00    +0.000 A 
ATOM     19  C   UNL     1      45.876   4.468   8.798  0.00  0.00    +0.000 A 
BRANCH  18  20
ATOM     20  C   UNL     1      46.711   3.284   6.747  0.00  0.00    +0.000 C 
BRANCH  20  21
ATOM     21  C   UNL     1      47.888   2.305   6.805  0.00  0.00    +0.000 C 
BRANCH  21  22
ATOM     22  O   UNL     1      48.407   2.021   5.508  0.00  0.00    +0.000 OA
ATOM     23  H   UNL     1      48.921   1.195   5.591  0.00  0.00    +0.000 HD
ENDBRANCH  21  22
ENDBRANCH  20  21
ENDBRANCH  18  20
ENDBRANCH  13  14
ENDBRANCH   1  13
TORSDOF 8
ENDMDL
MODEL 6
REMARK VINA RESULT:    -6.072      2.618      5.184
REMARK INTER + INTRA:          -9.466
REMARK INTER:                  -8.526
REMARK INTRA:                  -0.940
REMARK UNBOUND:                -0.732
REMARK  Name = 
REMARK  9 active torsions:
REMARK  status: ('A' for Active; 'I' for Inactive)
REMARK    1  A    between atoms: C_1  and  C_2
REMARK    2  A    between atoms: C_5  and  C_6
REMARK    3  A    between atoms: C_6  and  C_7
REMARK    4  A    between atoms: C_7  and  C_8
REMARK    5  A    between atoms: C_12  and  C_13
REMARK    6  A    between atoms: C_13  and  C_14
REMARK    7  A    between atoms: C_14  and  O_15
REMARK    8  A    between atoms: C_18  and  C_19
REMARK    9  A    between atoms: C_20  and  C_21
REMARK                            x       y       z     vdW  Elec       q    Type
REMARK                         _______ _______ _______ _____ _____    ______ ____
ROOT
ATOM      1  C   UNL     1      47.013   4.984  14.361  0.00  0.00    +0.000 C 
ENDROOT
BRANCH   1   6
ATOM      2  C   UNL     1      49.221   9.400  11.381  0.00  0.00    +0.000 C 
ATOM      3  C   UNL     1      48.528   8.348  12.189  0.00  0.00    +0.000 A 
ATOM      4  C   UNL     1      49.238   7.178  12.462  0.00  0.00    +0.000 A 
ATOM      5  N   UNL     1      48.756   6.120  13.142  0.00  0.00    +0.000 NA
ATOM      6  C   UNL     1      47.487   6.190  13.588  0.00  0.00    +0.000 A 
ATOM      7  C   UNL     1      46.704   7.328  13.385  0.00  0.00    +0.000 A 
ATOM      8  C   UNL     1      47.212   8.432  12.675  0.00  0.00    +0.000 A 
BRANCH   8   9
ATOM      9  C   UNL     1      46.254   9.544  12.465  0.00  0.00    +0.000 C 
ATOM     10  C   UNL     1      45.062   9.498  11.860  0.00  0.00    +0.000 C 
BRANCH  10  11
ATOM     11  C   UNL     1      44.248  10.654  11.684  0.00  0.00    +0.000 C 
ATOM     12  N   UNL     1      43.577  11.594  11.567  0.00  0.00    +0.000 NA
ENDBRANCH  10  11
ENDBRANCH   8   9
ENDBRANCH   1   6
BRANCH   1  13
ATOM     13  C   UNL     1      46.727   3.737  13.519  0.00  0.00    +0.000 C 
BRANCH  13  14
ATOM     14  C   UNL     1      45.475   3.880  12.691  0.00  0.00    +0.000 A 
ATOM     15  C   UNL     1      44.366   4.595  13.152  0.00  0.00    +0.000 A 
ATOM     16  C   UNL     1      43.234   4.730  12.346  0.00  0.00    +0.000 A 
ATOM     17  C   UNL     1      43.212   4.183  11.060  0.00  0.00    +0.000 A 
ATOM     18  C   UNL     1      44.323   3.485  10.574  0.00  0.00    +0.000 A 
ATOM     19  C   UNL     1      45.434   3.314  11.411  0.00  0.00    +0.000 A 
BRANCH  18  20
ATOM     20  C   UNL     1      44.390   2.981   9.151  0.00  0.00    +0.000 C 
BRANCH  20  21
ATOM     21  C   UNL     1      45.480   3.681   8.332  0.00  0.00    +0.000 C 
BRANCH  21  22
ATOM     22  O   UNL     1      45.431   5.097   8.485  0.00  0.00    +0.000 OA
ATOM     23  H   UNL     1      44.490   5.348   8.436  0.00  0.00    +0.000 HD
ENDBRANCH  21  22
ENDBRANCH  20  21
ENDBRANCH  18  20
ENDBRANCH  13  14
ENDBRANCH   1  13
TORSDOF 8
ENDMDL
MODEL 7
REMARK VINA RESULT:    -6.020      1.881      2.388
REMARK INTER + INTRA:          -9.391
REMARK INTER:                  -8.770
REMARK INTRA:                  -0.620
REMARK UNBOUND:                -0.732
REMARK  Name = 
REMARK  9 active torsions:
REMARK  status: ('A' for Active; 'I' for Inactive)
REMARK    1  A    between atoms: C_1  and  C_2
REMARK    2  A    between atoms: C_5  and  C_6
REMARK    3  A    between atoms: C_6  and  C_7
REMARK    4  A    between atoms: C_7  and  C_8
REMARK    5  A    between atoms: C_12  and  C_13
REMARK    6  A    between atoms: C_13  and  C_14
REMARK    7  A    between atoms: C_14  and  O_15
REMARK    8  A    between atoms: C_18  and  C_19
REMARK    9  A    between atoms: C_20  and  C_21
REMARK                            x       y       z     vdW  Elec       q    Type
REMARK                         _______ _______ _______ _____ _____    ______ ____
ROOT
ATOM      1  C   UNL     1      45.483   5.967  12.064  0.00  0.00    +0.000 C 
ENDROOT
BRANCH   1   6
ATOM      2  C   UNL     1      50.704   8.225  13.014  0.00  0.00    +0.000 C 
ATOM      3  C   UNL     1      49.361   7.570  12.907  0.00  0.00    +0.000 A 
ATOM      4  C   UNL     1      48.710   7.640  11.675  0.00  0.00    +0.000 A 
ATOM      5  N   UNL     1      47.488   7.138  11.416  0.00  0.00    +0.000 NA
ATOM      6  C   UNL     1      46.836   6.527  12.423  0.00  0.00    +0.000 A 
ATOM      7  C   UNL     1      47.414   6.387  13.687  0.00  0.00    +0.000 A 
ATOM      8  C   UNL     1      48.693   6.912  13.954  0.00  0.00    +0.000 A 
BRANCH   8   9
ATOM      9  C   UNL     1      49.159   6.761  15.354  0.00  0.00    +0.000 C 
ATOM     10  C   UNL     1      48.881   7.546  16.401  0.00  0.00    +0.000 C 
BRANCH  10  11
ATOM     11  C   UNL     1      49.428   7.315  17.695  0.00  0.00    +0.000 C 
ATOM     12  N   UNL     1      49.899   7.129  18.740  0.00  0.00    +0.000 NA
ENDBRANCH  10  11
ENDBRANCH   8   9
ENDBRANCH   1   6
BRANCH   1  13
ATOM     13  C   UNL     1      45.109   6.056  10.581  0.00  0.00    +0.000 C 
BRANCH  13  14
ATOM     14  C   UNL     1      45.105   4.706   9.909  0.00  0.00    +0.000 A 
ATOM     15  C   UNL     1      44.281   3.668  10.351  0.00  0.00    +0.000 A 
ATOM     16  C   UNL     1      44.282   2.439   9.687  0.00  0.00    +0.000 A 
ATOM     17  C   UNL     1      45.079   2.250   8.554  0.00  0.00    +0.000 A 
ATOM     18  C   UNL     1      45.891   3.287   8.084  0.00  0.00    +0.000 A 
ATOM     19  C   UNL     1      45.917   4.498   8.788  0.00  0.00    +0.000 A 
BRANCH  18  20
ATOM     20  C   UNL     1      46.676   3.168   6.798  0.00  0.00    +0.000 C 
BRANCH  20  21
ATOM     21  C   UNL     1      47.667   2.000   6.823  0.00  0.00    +0.000 C 
BRANCH  21  22
ATOM     22  O   UNL     1      48.426   1.923   5.618  0.00  0.00    +0.000 OA
ATOM     23  H   UNL     1      48.389   0.992   5.327  0.00  0.00    +0.000 HD
ENDBRANCH  21  22
ENDBRANCH  20  21
ENDBRANCH  18  20
ENDBRANCH  13  14
ENDBRANCH   1  13
TORSDOF 8
ENDMDL
MODEL 8
REMARK VINA RESULT:    -5.780      3.588      7.849
REMARK INTER + INTRA:          -9.046
REMARK INTER:                  -8.486
REMARK INTRA:                  -0.559
REMARK UNBOUND:                -0.732
REMARK  Name = 
REMARK  9 active torsions:
REMARK  status: ('A' for Active; 'I' for Inactive)
REMARK    1  A    between atoms: C_1  and  C_2
REMARK    2  A    between atoms: C_5  and  C_6
REMARK    3  A    between atoms: C_6  and  C_7
REMARK    4  A    between atoms: C_7  and  C_8
REMARK    5  A    between atoms: C_12  and  C_13
REMARK    6  A    between atoms: C_13  and  C_14
REMARK    7  A    between atoms: C_14  and  O_15
REMARK    8  A    between atoms: C_18  and  C_19
REMARK    9  A    between atoms: C_20  and  C_21
REMARK                            x       y       z     vdW  Elec       q    Type
REMARK                         _______ _______ _______ _____ _____    ______ ____
ROOT
ATOM      1  C   UNL     1      45.248   6.838  11.075  0.00  0.00    +0.000 C 
ENDROOT
BRANCH   1   6
ATOM      2  C   UNL     1      44.287   1.520   9.061  0.00  0.00    +0.000 C 
ATOM      3  C   UNL     1      44.651   2.911   9.478  0.00  0.00    +0.000 A 
ATOM      4  C   UNL     1      44.050   3.412  10.634  0.00  0.00    +0.000 A 
ATOM      5  N   UNL     1      44.238   4.649  11.130  0.00  0.00    +0.000 NA
ATOM      6  C   UNL     1      45.063   5.474  10.457  0.00  0.00    +0.000 A 
ATOM      7  C   UNL     1      45.728   5.057   9.302  0.00  0.00    +0.000 A 
ATOM      8  C   UNL     1      45.531   3.762   8.787  0.00  0.00    +0.000 A 
BRANCH   8   9
ATOM      9  C   UNL     1      46.238   3.472   7.516  0.00  0.00    +0.000 C 
ATOM     10  C   UNL     1      47.052   2.446   7.244  0.00  0.00    +0.000 C 
BRANCH  10  11
ATOM     11  C   UNL     1      47.707   2.302   5.988  0.00  0.00    +0.000 C 
ATOM     12  N   UNL     1      48.218   2.175   4.953  0.00  0.00    +0.000 NA
ENDBRANCH  10  11
ENDBRANCH   8   9
ENDBRANCH   1   6
BRANCH   1  13
ATOM     13  C   UNL     1      45.680   6.838  12.545  0.00  0.00    +0.000 C 
BRANCH  13  14
ATOM     14  C   UNL     1      47.162   7.067  12.707  0.00  0.00    +0.000 A 
ATOM     15  C   UNL     1      47.980   7.385  11.620  0.00  0.00    +0.000 A 
ATOM     16  C   UNL     1      49.343   7.618  11.812  0.00  0.00    +0.000 A 
ATOM     17  C   UNL     1      49.894   7.571  13.096  0.00  0.00    +0.000 A 
ATOM     18  C   UNL     1      49.084   7.279  14.198  0.00  0.00    +0.000 A 
ATOM     19  C   UNL     1      47.727   6.998  13.986  0.00  0.00    +0.000 A 
BRANCH  18  20
ATOM     20  C   UNL     1      49.610   7.334  15.613  0.00  0.00    +0.000 C 
BRANCH  20  21
ATOM     21  C   UNL     1      49.229   6.095  16.430  0.00  0.00    +0.000 C 
BRANCH  21  22
ATOM     22  O   UNL     1      48.088   6.331  17.252  0.00  0.00    +0.000 OA
ATOM     23  H   UNL     1      48.306   7.100  17.812  0.00  0.00    +0.000 HD
ENDBRANCH  21  22
ENDBRANCH  20  21
ENDBRANCH  18  20
ENDBRANCH  13  14
ENDBRANCH   1  13
TORSDOF 8
ENDMDL
MODEL 9
REMARK VINA RESULT:    -5.684      4.139      8.487
REMARK INTER + INTRA:          -8.908
REMARK INTER:                  -8.270
REMARK INTRA:                  -0.638
REMARK UNBOUND:                -0.732
REMARK  Name = 
REMARK  9 active torsions:
REMARK  status: ('A' for Active; 'I' for Inactive)
REMARK    1  A    between atoms: C_1  and  C_2
REMARK    2  A    between atoms: C_5  and  C_6
REMARK    3  A    between atoms: C_6  and  C_7
REMARK    4  A    between atoms: C_7  and  C_8
REMARK    5  A    between atoms: C_12  and  C_13
REMARK    6  A    between atoms: C_13  and  C_14
REMARK    7  A    between atoms: C_14  and  O_15
REMARK    8  A    between atoms: C_18  and  C_19
REMARK    9  A    between atoms: C_20  and  C_21
REMARK                            x       y       z     vdW  Elec       q    Type
REMARK                         _______ _______ _______ _____ _____    ______ ____
ROOT
ATOM      1  C   UNL     1      48.058   4.237  17.089  0.00  0.00    +0.000 C 
ENDROOT
BRANCH   1   6
ATOM      2  C   UNL     1      47.704   7.170  12.137  0.00  0.00    +0.000 C 
ATOM      3  C   UNL     1      47.663   6.337  13.380  0.00  0.00    +0.000 A 
ATOM      4  C   UNL     1      48.577   6.646  14.389  0.00  0.00    +0.000 A 
ATOM      5  N   UNL     1      48.700   5.980  15.553  0.00  0.00    +0.000 NA
ATOM      6  C   UNL     1      47.886   4.928  15.760  0.00  0.00    +0.000 A 
ATOM      7  C   UNL     1      46.924   4.554  14.819  0.00  0.00    +0.000 A 
ATOM      8  C   UNL     1      46.796   5.254  13.605  0.00  0.00    +0.000 A 
BRANCH   8   9
ATOM      9  C   UNL     1      45.788   4.710  12.663  0.00  0.00    +0.000 C 
ATOM     10  C   UNL     1      44.811   3.834  12.923  0.00  0.00    +0.000 C 
BRANCH  10  11
ATOM     11  C   UNL     1      43.926   3.355  11.915  0.00  0.00    +0.000 C 
ATOM     12  N   UNL     1      43.190   2.987  11.096  0.00  0.00    +0.000 NA
ENDBRANCH  10  11
ENDBRANCH   8   9
ENDBRANCH   1   6
BRANCH   1  13
ATOM     13  C   UNL     1      48.702   2.848  17.028  0.00  0.00    +0.000 C 
BRANCH  13  14
ATOM     14  C   UNL     1      50.161   2.876  17.408  0.00  0.00    +0.000 A 
ATOM     15  C   UNL     1      50.768   4.030  17.909  0.00  0.00    +0.000 A 
ATOM     16  C   UNL     1      52.115   4.012  18.277  0.00  0.00    +0.000 A 
ATOM     17  C   UNL     1      52.857   2.831  18.182  0.00  0.00    +0.000 A 
ATOM     18  C   UNL     1      52.258   1.660  17.707  0.00  0.00    +0.000 A 
ATOM     19  C   UNL     1      50.919   1.705  17.294  0.00  0.00    +0.000 A 
BRANCH  18  20
ATOM     20  C   UNL     1      52.985   0.336  17.699  0.00  0.00    +0.000 C 
BRANCH  20  21
ATOM     21  C   UNL     1      54.131   0.301  16.682  0.00  0.00    +0.000 C 
BRANCH  21  22
ATOM     22  O   UNL     1      54.112  -0.893  15.903  0.00  0.00    +0.000 OA
ATOM     23  H   UNL     1      54.545  -0.676  15.056  0.00  0.00    +0.000 HD
ENDBRANCH  21  22
ENDBRANCH  20  21
ENDBRANCH  18  20
ENDBRANCH  13  14
ENDBRANCH   1  13
TORSDOF 8
ENDMDL
