MODEL 1
REMARK VINA RESULT:    -8.056      0.000      0.000
REMARK INTER + INTRA:         -13.568
REMARK INTER:                 -12.765
REMARK INTRA:                  -0.803
REMARK UNBOUND:                -0.803
REMARK  Name = 
REMARK  12 active torsions:
REMARK  status: ('A' for Active; 'I' for Inactive)
REMARK    1  A    between atoms: C_1  and  C_2
REMARK    2  A    between atoms: C_2  and  C_3
REMARK    3  A    between atoms: C_3  and  C_4
REMARK    4  A    between atoms: C_4  and  N_5
REMARK    5  A    between atoms: C_4  and  C_23
REMARK    6  A    between atoms: N_5  and  C_6
REMARK    7  A    between atoms: C_6  and  C_7
REMARK    8  A    between atoms: C_10  and  C_11
REMARK    9  A    between atoms: C_11  and  N_12
REMARK   10  A    between atoms: N_12  and  C_13
REMARK   11  A    between atoms: N_12  and  C_14
REMARK   12  A    between atoms: C_14  and  C_15
REMARK                            x       y       z     vdW  Elec       q    Type
REMARK                         _______ _______ _______ _____ _____    ______ ____
ROOT
ATOM      1  N   UNL     1      48.878   5.303  15.932  0.00  0.00    +0.000 NA
ATOM      2  H   UNL     1      49.801   5.045  15.585  0.00  0.00    +0.000 HD
ENDROOT
BRANCH   1   3
ATOM      3  C   UNL     1      48.998   5.709  17.344  0.00  0.00    +0.000 C 
BRANCH   3   4
ATOM      4  C   UNL     1      50.239   5.041  17.912  0.00  0.00    +0.000 A 
ATOM      5  C   UNL     1      51.239   5.700  18.614  0.00  0.00    +0.000 A 
ATOM      6  S   UNL     1      52.597   4.717  18.941  0.00  0.00    +0.000 S 
ATOM      7  C   UNL     1      51.892   3.380  18.162  0.00  0.00    +0.000 A 
ATOM      8  N   UNL     1      52.577   2.218  17.987  0.00  0.00    +0.000 NA
ATOM      9  C   UNL     1      51.913   1.299  17.364  0.00  0.00    +0.000 A 
ATOM     10  N   UNL     1      50.613   1.423  16.938  0.00  0.00    +0.000 N 
ATOM     11  C   UNL     1      49.860   2.553  17.163  0.00  0.00    +0.000 A 
ATOM     12  O   UNL     1      48.660   2.584  16.891  0.00  0.00    +0.000 OA
ATOM     13  C   UNL     1      50.600   3.654  17.746  0.00  0.00    +0.000 A 
ATOM     14  H   UNL     1      50.133   0.640  16.519  0.00  0.00    +0.000 HD
ENDBRANCH   3   4
BRANCH   3  15
ATOM     15  C   UNL     1      47.729   5.310  18.137  0.00  0.00    +0.000 C 
BRANCH  15  17
ATOM     16  C   UNL     1      47.751   7.704  18.818  0.00  0.00    +0.000 C 
ATOM     17  C   UNL     1      47.262   6.309  19.195  0.00  0.00    +0.000 C 
ENDBRANCH  15  17
ENDBRANCH   3  15
ENDBRANCH   1   3
BRANCH   1  18
ATOM     18  C   UNL     1      48.373   6.391  15.089  0.00  0.00    +0.000 C 
BRANCH  18  19
ATOM     19  C   UNL     1      47.576   5.904  13.907  0.00  0.00    +0.000 A 
ATOM     20  C   UNL     1      46.900   4.676  13.969  0.00  0.00    +0.000 A 
ATOM     21  C   UNL     1      46.026   4.299  12.950  0.00  0.00    +0.000 A 
ATOM     22  C   UNL     1      45.798   5.149  11.861  0.00  0.00    +0.000 A 
ATOM     23  C   UNL     1      46.496   6.362  11.784  0.00  0.00    +0.000 A 
ATOM     24  C   UNL     1      47.374   6.737  12.801  0.00  0.00    +0.000 A 
BRANCH  22  25
ATOM     25  C   UNL     1      44.788   4.775  10.795  0.00  0.00    +0.000 C 
BRANCH  25  26
ATOM     26  N   UNL     1      44.596   3.313  10.663  0.00  0.00    +0.000 NA
ATOM     27  C   UNL     1      43.508   2.842  11.530  0.00  0.00    +0.000 C 
BRANCH  26  28
ATOM     28  C   UNL     1      44.271   2.968   9.261  0.00  0.00    +0.000 C 
BRANCH  28  29
ATOM     29  C   UNL     1      45.462   2.544   8.419  0.00  0.00    +0.000 A 
ATOM     30  C   UNL     1      46.138   3.477   7.633  0.00  0.00    +0.000 A 
ATOM     31  C   UNL     1      47.229   3.055   6.881  0.00  0.00    +0.000 A 
ATOM     32  C   UNL     1      47.616   1.721   6.929  0.00  0.00    +0.000 A 
ATOM     33  C   UNL     1      46.887   0.858   7.729  0.00  0.00    +0.000 A 
ATOM     34  N   UNL     1      45.824   1.236   8.472  0.00  0.00    +0.000 NA
ENDBRANCH  28  29
ENDBRANCH  26  28
ENDBRANCH  25  26
ENDBRANCH  22  25
ENDBRANCH  18  19
ENDBRANCH   1  18
TORSDOF 10
ENDMDL
MODEL 2
REMARK VINA RESULT:    -8.008      2.147      3.073
REMARK INTER + INTRA:         -13.493
REMARK INTER:                 -11.712
REMARK INTRA:                  -1.781
REMARK UNBOUND:                -0.803
REMARK  Name = 
REMARK  12 active torsions:
REMARK  status: ('A' for Active; 'I' for Inactive)
REMARK    1  A    between atoms: C_1  and  C_2
REMARK    2  A    between atoms: C_2  and  C_3
REMARK    3  A    between atoms: C_3  and  C_4
REMARK    4  A    between atoms: C_4  and  N_5
REMARK    5  A    between atoms: C_4  and  C_23
REMARK    6  A    between atoms: N_5  and  C_6
REMARK    7  A    between atoms: C_6  and  C_7
REMARK    8  A    between atoms: C_10  and  C_11
REMARK    9  A    between atoms: C_11  and  N_12
REMARK   10  A    between atoms: N_12  and  C_13
REMARK   11  A    between atoms: N_12  and  C_14
REMARK   12  A    between atoms: C_14  and  C_15
REMARK                            x       y       z     vdW  Elec       q    Type
REMARK                         _______ _______ _______ _____ _____    ______ ____
ROOT
ATOM      1  N   UNL     1      47.681   8.102  15.015  0.00  0.00    +0.000 NA
ATOM      2  H   UNL     1      46.979   7.368  15.099  0.00  0.00    +0.000 HD
ENDROOT
BRANCH   1   3
ATOM      3  C   UNL     1      49.016   7.509  15.220  0.00  0.00    +0.000 C 
BRANCH   3   4
ATOM      4  C   UNL     1      48.967   6.695  16.503  0.00  0.00    +0.000 A 
ATOM      5  C   UNL     1      49.594   7.053  17.688  0.00  0.00    +0.000 A 
ATOM      6  S   UNL     1      49.524   5.836  18.884  0.00  0.00    +0.000 S 
ATOM      7  C   UNL     1      48.651   4.795  17.861  0.00  0.00    +0.000 A 
ATOM      8  N   UNL     1      48.351   3.522  18.232  0.00  0.00    +0.000 NA
ATOM      9  C   UNL     1      47.697   2.849  17.342  0.00  0.00    +0.000 A 
ATOM     10  N   UNL     1      47.282   3.348  16.131  0.00  0.00    +0.000 N 
ATOM     11  C   UNL     1      47.498   4.652  15.749  0.00  0.00    +0.000 A 
ATOM     12  O   UNL     1      46.997   5.108  14.720  0.00  0.00    +0.000 OA
ATOM     13  C   UNL     1      48.335   5.408  16.660  0.00  0.00    +0.000 A 
ATOM     14  H   UNL     1      46.715   2.788  15.512  0.00  0.00    +0.000 HD
ENDBRANCH   3   4
BRANCH   3  15
ATOM     15  C   UNL     1      50.099   8.613  15.293  0.00  0.00    +0.000 C 
BRANCH  15  17
ATOM     16  C   UNL     1      50.805   8.116  12.958  0.00  0.00    +0.000 C 
ATOM     17  C   UNL     1      51.301   8.430  14.367  0.00  0.00    +0.000 C 
ENDBRANCH  15  17
ENDBRANCH   3  15
ENDBRANCH   1   3
BRANCH   1  18
ATOM     18  C   UNL     1      47.545   8.700  13.684  0.00  0.00    +0.000 C 
BRANCH  18  19
ATOM     19  C   UNL     1      46.720   7.864  12.740  0.00  0.00    +0.000 A 
ATOM     20  C   UNL     1      47.347   7.058  11.778  0.00  0.00    +0.000 A 
ATOM     21  C   UNL     1      46.603   6.156  11.019  0.00  0.00    +0.000 A 
ATOM     22  C   UNL     1      45.222   6.030  11.219  0.00  0.00    +0.000 A 
ATOM     23  C   UNL     1      44.591   6.858  12.158  0.00  0.00    +0.000 A 
ATOM     24  C   UNL     1      45.335   7.763  12.915  0.00  0.00    +0.000 A 
BRANCH  22  25
ATOM     25  C   UNL     1      44.427   4.994  10.450  0.00  0.00    +0.000 C 
BRANCH  25  26
ATOM     26  N   UNL     1      44.941   3.618  10.628  0.00  0.00    +0.000 NA
ATOM     27  C   UNL     1      44.517   3.055  11.915  0.00  0.00    +0.000 C 
BRANCH  26  28
ATOM     28  C   UNL     1      44.444   2.746   9.539  0.00  0.00    +0.000 C 
BRANCH  28  29
ATOM     29  C   UNL     1      45.441   2.490   8.424  0.00  0.00    +0.000 A 
ATOM     30  C   UNL     1      45.675   3.459   7.450  0.00  0.00    +0.000 A 
ATOM     31  C   UNL     1      46.602   3.194   6.447  0.00  0.00    +0.000 A 
ATOM     32  C   UNL     1      47.267   1.974   6.440  0.00  0.00    +0.000 A 
ATOM     33  C   UNL     1      46.971   1.062   7.438  0.00  0.00    +0.000 A 
ATOM     34  N   UNL     1      46.079   1.290   8.426  0.00  0.00    +0.000 NA
ENDBRANCH  28  29
ENDBRANCH  26  28
ENDBRANCH  25  26
ENDBRANCH  22  25
ENDBRANCH  18  19
ENDBRANCH   1  18
TORSDOF 10
ENDMDL
MODEL 3
REMARK VINA RESULT:    -7.720      2.021      2.952
REMARK INTER + INTRA:         -13.035
REMARK INTER:                 -11.978
REMARK INTRA:                  -1.058
REMARK UNBOUND:                -0.803
REMARK  Name = 
REMARK  12 active torsions:
REMARK  status: ('A' for Active; 'I' for Inactive)
REMARK    1  A    between atoms: C_1  and  C_2
REMARK    2  A    between atoms: C_2  and  C_3
REMARK    3  A    between atoms: C_3  and  C_4
REMARK    4  A    between atoms: C_4  and  N_5
REMARK    5  A    between atoms: C_4  and  C_23
REMARK    6  A    between atoms: N_5  and  C_6
REMARK    7  A    between atoms: C_6  and  C_7
REMARK    8  A    between atoms: C_10  and  C_11
REMARK    9  A    between atoms: C_11  and  N_12
REMARK   10  A    between atoms: N_12  and  C_13
REMARK   11  A    between atoms: N_12  and  C_14
REMARK   12  A    between atoms: C_14  and  C_15
REMARK                            x       y       z     vdW  Elec       q    Type
REMARK                         _______ _______ _______ _____ _____    ______ ____
ROOT
ATOM      1  N   UNL     1      48.104   7.106  15.565  0.00  0.00    +0.000 NA
ATOM      2  H   UNL     1      47.197   6.640  15.565  0.00  0.00    +0.000 HD
ENDROOT
BRANCH   1   3
ATOM      3  C   UNL     1      49.008   6.385  16.480  0.00  0.00    +0.000 C 
BRANCH   3   4
ATOM      4  C   UNL     1      48.669   6.815  17.898  0.00  0.00    +0.000 A 
ATOM      5  C   UNL     1      48.530   8.133  18.311  0.00  0.00    +0.000 A 
ATOM      6  S   UNL     1      48.352   8.298  20.001  0.00  0.00    +0.000 S 
ATOM      7  C   UNL     1      48.450   6.616  20.236  0.00  0.00    +0.000 A 
ATOM      8  N   UNL     1      48.471   6.074  21.483  0.00  0.00    +0.000 NA
ATOM      9  C   UNL     1      48.563   4.784  21.499  0.00  0.00    +0.000 A 
ATOM     10  N   UNL     1      48.595   3.986  20.382  0.00  0.00    +0.000 N 
ATOM     11  C   UNL     1      48.498   4.488  19.105  0.00  0.00    +0.000 A 
ATOM     12  O   UNL     1      48.392   3.742  18.131  0.00  0.00    +0.000 OA
ATOM     13  C   UNL     1      48.519   5.936  19.032  0.00  0.00    +0.000 A 
ATOM     14  H   UNL     1      48.598   2.981  20.469  0.00  0.00    +0.000 HD
ENDBRANCH   3   4
BRANCH   3  15
ATOM     15  C   UNL     1      50.487   6.688  16.137  0.00  0.00    +0.000 C 
BRANCH  15  17
ATOM     16  C   UNL     1      51.834   4.971  17.337  0.00  0.00    +0.000 C 
ATOM     17  C   UNL     1      51.494   6.457  17.265  0.00  0.00    +0.000 C 
ENDBRANCH  15  17
ENDBRANCH   3  15
ENDBRANCH   1   3
BRANCH   1  18
ATOM     18  C   UNL     1      48.606   7.109  14.188  0.00  0.00    +0.000 C 
BRANCH  18  19
ATOM     19  C   UNL     1      47.687   6.409  13.221  0.00  0.00    +0.000 A 
ATOM     20  C   UNL     1      47.009   5.244  13.609  0.00  0.00    +0.000 A 
ATOM     21  C   UNL     1      46.031   4.688  12.785  0.00  0.00    +0.000 A 
ATOM     22  C   UNL     1      45.701   5.296  11.567  0.00  0.00    +0.000 A 
ATOM     23  C   UNL     1      46.400   6.443  11.166  0.00  0.00    +0.000 A 
ATOM     24  C   UNL     1      47.381   6.996  11.988  0.00  0.00    +0.000 A 
BRANCH  22  25
ATOM     25  C   UNL     1      44.583   4.738  10.710  0.00  0.00    +0.000 C 
BRANCH  25  26
ATOM     26  N   UNL     1      44.577   3.259  10.654  0.00  0.00    +0.000 NA
ATOM     27  C   UNL     1      43.579   2.698  11.574  0.00  0.00    +0.000 C 
BRANCH  26  28
ATOM     28  C   UNL     1      44.267   2.803   9.280  0.00  0.00    +0.000 C 
BRANCH  28  29
ATOM     29  C   UNL     1      45.482   2.508   8.419  0.00  0.00    +0.000 A 
ATOM     30  C   UNL     1      46.102   3.529   7.699  0.00  0.00    +0.000 A 
ATOM     31  C   UNL     1      47.218   3.224   6.927  0.00  0.00    +0.000 A 
ATOM     32  C   UNL     1      47.684   1.915   6.891  0.00  0.00    +0.000 A 
ATOM     33  C   UNL     1      47.007   0.959   7.628  0.00  0.00    +0.000 A 
ATOM     34  N   UNL     1      45.922   1.224   8.388  0.00  0.00    +0.000 NA
ENDBRANCH  28  29
ENDBRANCH  26  28
ENDBRANCH  25  26
ENDBRANCH  22  25
ENDBRANCH  18  19
ENDBRANCH   1  18
TORSDOF 10
ENDMDL
MODEL 4
REMARK VINA RESULT:    -7.533      0.989      1.155
REMARK INTER + INTRA:         -12.740
REMARK INTER:                 -11.929
REMARK INTRA:                  -0.811
REMARK UNBOUND:                -0.803
REMARK  Name = 
REMARK  12 active torsions:
REMARK  status: ('A' for Active; 'I' for Inactive)
REMARK    1  A    between atoms: C_1  and  C_2
REMARK    2  A    between atoms: C_2  and  C_3
REMARK    3  A    between atoms: C_3  and  C_4
REMARK    4  A    between atoms: C_4  and  N_5
REMARK    5  A    between atoms: C_4  and  C_23
REMARK    6  A    between atoms: N_5  and  C_6
REMARK    7  A    between atoms: C_6  and  C_7
REMARK    8  A    between atoms: C_10  and  C_11
REMARK    9  A    between atoms: C_11  and  N_12
REMARK   10  A    between atoms: N_12  and  C_13
REMARK   11  A    between atoms: N_12  and  C_14
REMARK   12  A    between atoms: C_14  and  C_15
REMARK                            x       y       z     vdW  Elec       q    Type
REMARK                         _______ _______ _______ _____ _____    ______ ____
ROOT
ATOM      1  N   UNL     1      48.098   6.469  16.265  0.00  0.00    +0.000 NA
ATOM      2  H   UNL     1      48.036   5.457  16.379  0.00  0.00    +0.000 HD
ENDROOT
BRANCH   1   3
ATOM      3  C   UNL     1      48.938   7.017  17.346  0.00  0.00    +0.000 C 
BRANCH   3   4
ATOM      4  C   UNL     1      50.094   6.055  17.565  0.00  0.00    +0.000 A 
ATOM      5  C   UNL     1      51.419   6.437  17.720  0.00  0.00    +0.000 A 
ATOM      6  S   UNL     1      52.505   5.119  17.741  0.00  0.00    +0.000 S 
ATOM      7  C   UNL     1      51.242   3.997  17.549  0.00  0.00    +0.000 A 
ATOM      8  N   UNL     1      51.490   2.670  17.384  0.00  0.00    +0.000 NA
ATOM      9  C   UNL     1      50.428   1.946  17.235  0.00  0.00    +0.000 A 
ATOM     10  N   UNL     1      49.142   2.423  17.277  0.00  0.00    +0.000 N 
ATOM     11  C   UNL     1      48.844   3.745  17.518  0.00  0.00    +0.000 A 
ATOM     12  O   UNL     1      47.683   4.119  17.685  0.00  0.00    +0.000 OA
ATOM     13  C   UNL     1      50.003   4.615  17.567  0.00  0.00    +0.000 A 
ATOM     14  H   UNL     1      48.357   1.791  17.222  0.00  0.00    +0.000 HD
ENDBRANCH   3   4
BRANCH   3  15
ATOM     15  C   UNL     1      48.108   7.205  18.640  0.00  0.00    +0.000 C 
BRANCH  15  17
ATOM     16  C   UNL     1      47.373   8.859  20.349  0.00  0.00    +0.000 C 
ATOM     17  C   UNL     1      48.572   8.324  19.573  0.00  0.00    +0.000 C 
ENDBRANCH  15  17
ENDBRANCH   3  15
ENDBRANCH   1   3
BRANCH   1  18
ATOM     18  C   UNL     1      48.664   6.736  14.941  0.00  0.00    +0.000 C 
BRANCH  18  19
ATOM     19  C   UNL     1      47.772   6.288  13.812  0.00  0.00    +0.000 A 
ATOM     20  C   UNL     1      46.967   5.148  13.959  0.00  0.00    +0.000 A 
ATOM     21  C   UNL     1      46.017   4.825  12.992  0.00  0.00    +0.000 A 
ATOM     22  C   UNL     1      45.842   5.644  11.869  0.00  0.00    +0.000 A 
ATOM     23  C   UNL     1      46.668   6.764  11.706  0.00  0.00    +0.000 A 
ATOM     24  C   UNL     1      47.621   7.086  12.673  0.00  0.00    +0.000 A 
BRANCH  22  25
ATOM     25  C   UNL     1      44.756   5.336  10.858  0.00  0.00    +0.000 C 
BRANCH  25  26
ATOM     26  N   UNL     1      44.706   3.908  10.473  0.00  0.00    +0.000 NA
ATOM     27  C   UNL     1      43.651   3.198  11.206  0.00  0.00    +0.000 C 
BRANCH  26  28
ATOM     28  C   UNL     1      44.446   3.782   9.021  0.00  0.00    +0.000 C 
BRANCH  28  29
ATOM     29  C   UNL     1      45.499   3.004   8.252  0.00  0.00    +0.000 A 
ATOM     30  C   UNL     1      46.229   3.621   7.237  0.00  0.00    +0.000 A 
ATOM     31  C   UNL     1      47.192   2.881   6.558  0.00  0.00    +0.000 A 
ATOM     32  C   UNL     1      47.401   1.551   6.906  0.00  0.00    +0.000 A 
ATOM     33  C   UNL     1      46.628   1.013   7.921  0.00  0.00    +0.000 A 
ATOM     34  N   UNL     1      45.687   1.705   8.599  0.00  0.00    +0.000 NA
ENDBRANCH  28  29
ENDBRANCH  26  28
ENDBRANCH  25  26
ENDBRANCH  22  25
ENDBRANCH  18  19
ENDBRANCH   1  18
TORSDOF 10
ENDMDL
MODEL 5
REMARK VINA RESULT:    -7.449      2.568      3.835
REMARK INTER + INTRA:         -12.606
REMARK INTER:                 -10.984
REMARK INTRA:                  -1.621
REMARK UNBOUND:                -0.803
REMARK  Name = 
REMARK  12 active torsions:
REMARK  status: ('A' for Active; 'I' for Inactive)
REMARK    1  A    between atoms: C_1  and  C_2
REMARK    2  A    between atoms: C_2  and  C_3
REMARK    3  A    between atoms: C_3  and  C_4
REMARK    4  A    between atoms: C_4  and  N_5
REMARK    5  A    between atoms: C_4  and  C_23
REMARK    6  A    between atoms: N_5  and  C_6
REMARK    7  A    between atoms: C_6  and  C_7
REMARK    8  A    between atoms: C_10  and  C_11
REMARK    9  A    between atoms: C_11  and  N_12
REMARK   10  A    between atoms: N_12  and  C_13
REMARK   11  A    between atoms: N_12  and  C_14
REMARK   12  A    between atoms: C_14  and  C_15
REMARK                            x       y       z     vdW  Elec       q    Type
REMARK                         _______ _______ _______ _____ _____    ______ ____
ROOT
ATOM      1  N   UNL     1      49.959   6.897  14.321  0.00  0.00    +0.000 NA
ATOM      2  H   UNL     1      50.648   6.638  13.615  0.00  0.00    +0.000 HD
ENDROOT
BRANCH   1   3
ATOM      3  C   UNL     1      50.665   7.458  15.488  0.00  0.00    +0.000 C 
BRANCH   3   4
ATOM      4  C   UNL     1      49.615   7.881  16.502  0.00  0.00    +0.000 A 
ATOM      5  C   UNL     1      49.362   9.194  16.875  0.00  0.00    +0.000 A 
ATOM      6  S   UNL     1      48.271   9.329  18.182  0.00  0.00    +0.000 S 
ATOM      7  C   UNL     1      48.097   7.640  18.289  0.00  0.00    +0.000 A 
ATOM      8  N   UNL     1      47.370   7.063  19.283  0.00  0.00    +0.000 NA
ATOM      9  C   UNL     1      47.344   5.770  19.240  0.00  0.00    +0.000 A 
ATOM     10  N   UNL     1      47.945   5.006  18.269  0.00  0.00    +0.000 N 
ATOM     11  C   UNL     1      48.625   5.552  17.205  0.00  0.00    +0.000 A 
ATOM     12  O   UNL     1      49.035   4.850  16.281  0.00  0.00    +0.000 OA
ATOM     13  C   UNL     1      48.786   6.991  17.278  0.00  0.00    +0.000 A 
ATOM     14  H   UNL     1      47.826   4.004  18.258  0.00  0.00    +0.000 HD
ENDBRANCH   3   4
BRANCH   3  15
ATOM     15  C   UNL     1      51.554   8.653  15.065  0.00  0.00    +0.000 C 
BRANCH  15  17
ATOM     16  C   UNL     1      53.397   7.092  15.670  0.00  0.00    +0.000 C 
ATOM     17  C   UNL     1      53.039   8.344  14.875  0.00  0.00    +0.000 C 
ENDBRANCH  15  17
ENDBRANCH   3  15
ENDBRANCH   1   3
BRANCH   1  18
ATOM     18  C   UNL     1      49.041   7.866  13.717  0.00  0.00    +0.000 C 
BRANCH  18  19
ATOM     19  C   UNL     1      47.704   7.271  13.357  0.00  0.00    +0.000 A 
ATOM     20  C   UNL     1      46.668   8.094  12.892  0.00  0.00    +0.000 A 
ATOM     21  C   UNL     1      45.490   7.535  12.397  0.00  0.00    +0.000 A 
ATOM     22  C   UNL     1      45.334   6.144  12.342  0.00  0.00    +0.000 A 
ATOM     23  C   UNL     1      46.356   5.323  12.837  0.00  0.00    +0.000 A 
ATOM     24  C   UNL     1      47.533   5.882  13.336  0.00  0.00    +0.000 A 
BRANCH  22  25
ATOM     25  C   UNL     1      44.087   5.536  11.732  0.00  0.00    +0.000 C 
BRANCH  25  26
ATOM     26  N   UNL     1      44.313   4.183  11.175  0.00  0.00    +0.000 NA
ATOM     27  C   UNL     1      43.467   3.188  11.845  0.00  0.00    +0.000 C 
BRANCH  26  28
ATOM     28  C   UNL     1      44.006   4.172   9.727  0.00  0.00    +0.000 C 
BRANCH  28  29
ATOM     29  C   UNL     1      45.075   3.537   8.856  0.00  0.00    +0.000 A 
ATOM     30  C   UNL     1      45.295   2.161   8.899  0.00  0.00    +0.000 A 
ATOM     31  C   UNL     1      46.277   1.612   8.081  0.00  0.00    +0.000 A 
ATOM     32  C   UNL     1      47.012   2.445   7.245  0.00  0.00    +0.000 A 
ATOM     33  C   UNL     1      46.736   3.801   7.268  0.00  0.00    +0.000 A 
ATOM     34  N   UNL     1      45.789   4.364   8.049  0.00  0.00    +0.000 NA
ENDBRANCH  28  29
ENDBRANCH  26  28
ENDBRANCH  25  26
ENDBRANCH  22  25
ENDBRANCH  18  19
ENDBRANCH   1  18
TORSDOF 10
ENDMDL
MODEL 6
REMARK VINA RESULT:    -7.226      2.298      3.151
REMARK INTER + INTRA:         -12.254
REMARK INTER:                 -10.982
REMARK INTRA:                  -1.272
REMARK UNBOUND:                -0.803
REMARK  Name = 
REMARK  12 active torsions:
REMARK  status: ('A' for Active; 'I' for Inactive)
REMARK    1  A    between atoms: C_1  and  C_2
REMARK    2  A    between atoms: C_2  and  C_3
REMARK    3  A    between atoms: C_3  and  C_4
REMARK    4  A    between atoms: C_4  and  N_5
REMARK    5  A    between atoms: C_4  and  C_23
REMARK    6  A    between atoms: N_5  and  C_6
REMARK    7  A    between atoms: C_6  and  C_7
REMARK    8  A    between atoms: C_10  and  C_11
REMARK    9  A    between atoms: C_11  and  N_12
REMARK   10  A    between atoms: N_12  and  C_13
REMARK   11  A    between atoms: N_12  and  C_14
REMARK   12  A    between atoms: C_14  and  C_15
REMARK                            x       y       z     vdW  Elec       q    Type
REMARK                         _______ _______ _______ _____ _____    ______ ____
ROOT
ATOM      1  N   UNL     1      48.372   7.781  15.435  0.00  0.00    +0.000 NA
ATOM      2  H   UNL     1      47.658   7.155  15.809  0.00  0.00    +0.000 HD
ENDROOT
BRANCH   1   3
ATOM      3  C   UNL     1      49.400   7.999  16.469  0.00  0.00    +0.000 C 
BRANCH   3   4
ATOM      4  C   UNL     1      48.777   7.672  17.816  0.00  0.00    +0.000 A 
ATOM      5  C   UNL     1      48.222   8.608  18.677  0.00  0.00    +0.000 A 
ATOM      6  S   UNL     1      47.791   7.959  20.197  0.00  0.00    +0.000 S 
ATOM      7  C   UNL     1      48.326   6.407  19.753  0.00  0.00    +0.000 A 
ATOM      8  N   UNL     1      48.341   5.380  20.644  0.00  0.00    +0.000 NA
ATOM      9  C   UNL     1      48.789   4.266  20.163  0.00  0.00    +0.000 A 
ATOM     10  N   UNL     1      49.184   4.077  18.861  0.00  0.00    +0.000 N 
ATOM     11  C   UNL     1      49.114   5.069  17.909  0.00  0.00    +0.000 A 
ATOM     12  O   UNL     1      49.346   4.833  16.724  0.00  0.00    +0.000 OA
ATOM     13  C   UNL     1      48.736   6.367  18.431  0.00  0.00    +0.000 A 
ATOM     14  H   UNL     1      49.459   3.162  18.535  0.00  0.00    +0.000 HD
ENDBRANCH   3   4
BRANCH   3  15
ATOM     15  C   UNL     1      49.917   9.458  16.426  0.00  0.00    +0.000 C 
BRANCH  15  17
ATOM     16  C   UNL     1      49.649  11.050  14.531  0.00  0.00    +0.000 C 
ATOM     17  C   UNL     1      48.980  10.478  15.778  0.00  0.00    +0.000 C 
ENDBRANCH  15  17
ENDBRANCH   3  15
ENDBRANCH   1   3
BRANCH   1  18
ATOM     18  C   UNL     1      48.928   7.157  14.231  0.00  0.00    +0.000 C 
BRANCH  18  19
ATOM     19  C   UNL     1      47.886   6.481  13.379  0.00  0.00    +0.000 A 
ATOM     20  C   UNL     1      47.081   5.467  13.920  0.00  0.00    +0.000 A 
ATOM     21  C   UNL     1      46.005   4.957  13.194  0.00  0.00    +0.000 A 
ATOM     22  C   UNL     1      45.704   5.462  11.923  0.00  0.00    +0.000 A 
ATOM     23  C   UNL     1      46.527   6.452  11.370  0.00  0.00    +0.000 A 
ATOM     24  C   UNL     1      47.606   6.960  12.094  0.00  0.00    +0.000 A 
BRANCH  22  25
ATOM     25  C   UNL     1      44.488   4.963  11.168  0.00  0.00    +0.000 C 
BRANCH  25  26
ATOM     26  N   UNL     1      44.507   3.502  10.935  0.00  0.00    +0.000 NA
ATOM     27  C   UNL     1      43.555   2.812  11.814  0.00  0.00    +0.000 C 
BRANCH  26  28
ATOM     28  C   UNL     1      44.155   3.208   9.527  0.00  0.00    +0.000 C 
BRANCH  28  29
ATOM     29  C   UNL     1      45.342   2.954   8.615  0.00  0.00    +0.000 A 
ATOM     30  C   UNL     1      45.842   1.663   8.449  0.00  0.00    +0.000 A 
ATOM     31  C   UNL     1      46.925   1.466   7.599  0.00  0.00    +0.000 A 
ATOM     32  C   UNL     1      47.480   2.556   6.940  0.00  0.00    +0.000 A 
ATOM     33  C   UNL     1      46.930   3.806   7.165  0.00  0.00    +0.000 A 
ATOM     34  N   UNL     1      45.878   4.030   7.982  0.00  0.00    +0.000 NA
ENDBRANCH  28  29
ENDBRANCH  26  28
ENDBRANCH  25  26
ENDBRANCH  22  25
ENDBRANCH  18  19
ENDBRANCH   1  18
TORSDOF 10
ENDMDL
MODEL 7
REMARK VINA RESULT:    -7.102      1.798      2.456
REMARK INTER + INTRA:         -12.056
REMARK INTER:                 -10.590
REMARK INTRA:                  -1.466
REMARK UNBOUND:                -0.803
REMARK  Name = 
REMARK  12 active torsions:
REMARK  status: ('A' for Active; 'I' for Inactive)
REMARK    1  A    between atoms: C_1  and  C_2
REMARK    2  A    between atoms: C_2  and  C_3
REMARK    3  A    between atoms: C_3  and  C_4
REMARK    4  A    between atoms: C_4  and  N_5
REMARK    5  A    between atoms: C_4  and  C_23
REMARK    6  A    between atoms: N_5  and  C_6
REMARK    7  A    between atoms: C_6  and  C_7
REMARK    8  A    between atoms: C_10  and  C_11
REMARK    9  A    between atoms: C_11  and  N_12
REMARK   10  A    between atoms: N_12  and  C_13
REMARK   11  A    between atoms: N_12  and  C_14
REMARK   12  A    between atoms: C_14  and  C_15
REMARK                            x       y       z     vdW  Elec       q    Type
REMARK                         _______ _______ _______ _____ _____    ______ ____
ROOT
ATOM      1  N   UNL     1      50.122   6.943  14.669  0.00  0.00    +0.000 NA
ATOM      2  H   UNL     1      50.897   6.607  14.098  0.00  0.00    +0.000 HD
ENDROOT
BRANCH   1   3
ATOM      3  C   UNL     1      50.642   7.331  15.993  0.00  0.00    +0.000 C 
BRANCH   3   4
ATOM      4  C   UNL     1      50.830   6.060  16.805  0.00  0.00    +0.000 A 
ATOM      5  C   UNL     1      52.008   5.698  17.443  0.00  0.00    +0.000 A 
ATOM      6  S   UNL     1      51.967   4.121  18.098  0.00  0.00    +0.000 S 
ATOM      7  C   UNL     1      50.374   3.873  17.556  0.00  0.00    +0.000 A 
ATOM      8  N   UNL     1      49.756   2.669  17.696  0.00  0.00    +0.000 NA
ATOM      9  C   UNL     1      48.553   2.632  17.221  0.00  0.00    +0.000 A 
ATOM     10  N   UNL     1      47.900   3.699  16.657  0.00  0.00    +0.000 N 
ATOM     11  C   UNL     1      48.460   4.953  16.565  0.00  0.00    +0.000 A 
ATOM     12  O   UNL     1      47.802   5.920  16.180  0.00  0.00    +0.000 OA
ATOM     13  C   UNL     1      49.850   5.013  16.970  0.00  0.00    +0.000 A 
ATOM     14  H   UNL     1      46.936   3.618  16.369  0.00  0.00    +0.000 HD
ENDBRANCH   3   4
BRANCH   3  15
ATOM     15  C   UNL     1      49.669   8.310  16.696  0.00  0.00    +0.000 C 
BRANCH  15  17
ATOM     16  C   UNL     1      48.422   8.207  18.848  0.00  0.00    +0.000 C 
ATOM     17  C   UNL     1      49.798   8.401  18.216  0.00  0.00    +0.000 C 
ENDBRANCH  15  17
ENDBRANCH   3  15
ENDBRANCH   1   3
BRANCH   1  18
ATOM     18  C   UNL     1      49.509   8.075  13.968  0.00  0.00    +0.000 C 
BRANCH  18  19
ATOM     19  C   UNL     1      48.226   7.712  13.266  0.00  0.00    +0.000 A 
ATOM     20  C   UNL     1      48.104   6.477  12.612  0.00  0.00    +0.000 A 
ATOM     21  C   UNL     1      46.871   6.064  12.110  0.00  0.00    +0.000 A 
ATOM     22  C   UNL     1      45.735   6.868  12.267  0.00  0.00    +0.000 A 
ATOM     23  C   UNL     1      45.864   8.116  12.891  0.00  0.00    +0.000 A 
ATOM     24  C   UNL     1      47.098   8.532  13.391  0.00  0.00    +0.000 A 
BRANCH  22  25
ATOM     25  C   UNL     1      44.380   6.383  11.791  0.00  0.00    +0.000 C 
BRANCH  25  26
ATOM     26  N   UNL     1      44.320   4.916  11.606  0.00  0.00    +0.000 NA
ATOM     27  C   UNL     1      43.491   4.284  12.639  0.00  0.00    +0.000 C 
BRANCH  26  28
ATOM     28  C   UNL     1      43.752   4.595  10.277  0.00  0.00    +0.000 C 
BRANCH  28  29
ATOM     29  C   UNL     1      44.677   3.814   9.361  0.00  0.00    +0.000 A 
ATOM     30  C   UNL     1      44.808   2.433   9.501  0.00  0.00    +0.000 A 
ATOM     31  C   UNL     1      45.659   1.749   8.639  0.00  0.00    +0.000 A 
ATOM     32  C   UNL     1      46.355   2.455   7.665  0.00  0.00    +0.000 A 
ATOM     33  C   UNL     1      46.175   3.826   7.598  0.00  0.00    +0.000 A 
ATOM     34  N   UNL     1      45.356   4.519   8.419  0.00  0.00    +0.000 NA
ENDBRANCH  28  29
ENDBRANCH  26  28
ENDBRANCH  25  26
ENDBRANCH  22  25
ENDBRANCH  18  19
ENDBRANCH   1  18
TORSDOF 10
ENDMDL
MODEL 8
REMARK VINA RESULT:    -7.039      2.593      3.233
REMARK INTER + INTRA:         -11.957
REMARK INTER:                 -10.382
REMARK INTRA:                  -1.575
REMARK UNBOUND:                -0.803
REMARK  Name = 
REMARK  12 active torsions:
REMARK  status: ('A' for Active; 'I' for Inactive)
REMARK    1  A    between atoms: C_1  and  C_2
REMARK    2  A    between atoms: C_2  and  C_3
REMARK    3  A    between atoms: C_3  and  C_4
REMARK    4  A    between atoms: C_4  and  N_5
REMARK    5  A    between atoms: C_4  and  C_23
REMARK    6  A    between atoms: N_5  and  C_6
REMARK    7  A    between atoms: C_6  and  C_7
REMARK    8  A    between atoms: C_10  and  C_11
REMARK    9  A    between atoms: C_11  and  N_12
REMARK   10  A    between atoms: N_12  and  C_13
REMARK   11  A    between atoms: N_12  and  C_14
REMARK   12  A    between atoms: C_14  and  C_15
REMARK                            x       y       z     vdW  Elec       q    Type
REMARK                         _______ _______ _______ _____ _____    ______ ____
ROOT
ATOM      1  N   UNL     1      50.109   6.873  14.676  0.00  0.00    +0.000 NA
ATOM      2  H   UNL     1      51.009   6.636  14.258  0.00  0.00    +0.000 HD
ENDROOT
BRANCH   1   3
ATOM      3  C   UNL     1      50.300   7.093  16.121  0.00  0.00    +0.000 C 
BRANCH   3   4
ATOM      4  C   UNL     1      49.478   6.049  16.859  0.00  0.00    +0.000 A 
ATOM      5  C   UNL     1      48.346   5.431  16.349  0.00  0.00    +0.000 A 
ATOM      6  S   UNL     1      47.529   4.461  17.493  0.00  0.00    +0.000 S 
ATOM      7  C   UNL     1      48.664   4.831  18.705  0.00  0.00    +0.000 A 
ATOM      8  N   UNL     1      48.500   4.402  19.985  0.00  0.00    +0.000 NA
ATOM      9  C   UNL     1      49.438   4.776  20.794  0.00  0.00    +0.000 A 
ATOM     10  N   UNL     1      50.543   5.505  20.430  0.00  0.00    +0.000 N 
ATOM     11  C   UNL     1      50.786   5.893  19.132  0.00  0.00    +0.000 A 
ATOM     12  O   UNL     1      51.849   6.425  18.813  0.00  0.00    +0.000 OA
ATOM     13  C   UNL     1      49.702   5.604  18.213  0.00  0.00    +0.000 A 
ATOM     14  H   UNL     1      51.271   5.703  21.100  0.00  0.00    +0.000 HD
ENDBRANCH   3   4
BRANCH   3  15
ATOM     15  C   UNL     1      49.874   8.528  16.516  0.00  0.00    +0.000 C 
BRANCH  15  17
ATOM     16  C   UNL     1      48.024  10.048  17.198  0.00  0.00    +0.000 C 
ATOM     17  C   UNL     1      48.594   8.640  17.344  0.00  0.00    +0.000 C 
ENDBRANCH  15  17
ENDBRANCH   3  15
ENDBRANCH   1   3
BRANCH   1  18
ATOM     18  C   UNL     1      49.605   8.072  14.000  0.00  0.00    +0.000 C 
BRANCH  18  19
ATOM     19  C   UNL     1      48.290   7.848  13.300  0.00  0.00    +0.000 A 
ATOM     20  C   UNL     1      48.102   6.714  12.496  0.00  0.00    +0.000 A 
ATOM     21  C   UNL     1      46.840   6.412  11.985  0.00  0.00    +0.000 A 
ATOM     22  C   UNL     1      45.741   7.227  12.281  0.00  0.00    +0.000 A 
ATOM     23  C   UNL     1      45.935   8.378  13.058  0.00  0.00    +0.000 A 
ATOM     24  C   UNL     1      47.198   8.683  13.566  0.00  0.00    +0.000 A 
BRANCH  22  25
ATOM     25  C   UNL     1      44.356   6.855  11.792  0.00  0.00    +0.000 C 
BRANCH  25  26
ATOM     26  N   UNL     1      44.083   5.403  11.868  0.00  0.00    +0.000 NA
ATOM     27  C   UNL     1      43.218   5.086  13.011  0.00  0.00    +0.000 C 
BRANCH  26  28
ATOM     28  C   UNL     1      43.419   4.944  10.627  0.00  0.00    +0.000 C 
BRANCH  28  29
ATOM     29  C   UNL     1      44.260   4.027   9.757  0.00  0.00    +0.000 A 
ATOM     30  C   UNL     1      45.189   4.557   8.864  0.00  0.00    +0.000 A 
ATOM     31  C   UNL     1      45.948   3.686   8.089  0.00  0.00    +0.000 A 
ATOM     32  C   UNL     1      45.762   2.316   8.223  0.00  0.00    +0.000 A 
ATOM     33  C   UNL     1      44.813   1.871   9.128  0.00  0.00    +0.000 A 
ATOM     34  N   UNL     1      44.062   2.690   9.895  0.00  0.00    +0.000 NA
ENDBRANCH  28  29
ENDBRANCH  26  28
ENDBRANCH  25  26
ENDBRANCH  22  25
ENDBRANCH  18  19
ENDBRANCH   1  18
TORSDOF 10
ENDMDL
MODEL 9
REMARK VINA RESULT:    -6.870      2.651      4.256
REMARK INTER + INTRA:         -11.688
REMARK INTER:                 -10.004
REMARK INTRA:                  -1.684
REMARK UNBOUND:                -0.803
REMARK  Name = 
REMARK  12 active torsions:
REMARK  status: ('A' for Active; 'I' for Inactive)
REMARK    1  A    between atoms: C_1  and  C_2
REMARK    2  A    between atoms: C_2  and  C_3
REMARK    3  A    between atoms: C_3  and  C_4
REMARK    4  A    between atoms: C_4  and  N_5
REMARK    5  A    between atoms: C_4  and  C_23
REMARK    6  A    between atoms: N_5  and  C_6
REMARK    7  A    between atoms: C_6  and  C_7
REMARK    8  A    between atoms: C_10  and  C_11
REMARK    9  A    between atoms: C_11  and  N_12
REMARK   10  A    between atoms: N_12  and  C_13
REMARK   11  A    between atoms: N_12  and  C_14
REMARK   12  A    between atoms: C_14  and  C_15
REMARK                            x       y       z     vdW  Elec       q    Type
REMARK                         _______ _______ _______ _____ _____    ______ ____
ROOT
ATOM      1  N   UNL     1      49.834   6.437  15.598  0.00  0.00    +0.000 NA
ATOM      2  H   UNL     1      50.826   6.578  15.784  0.00  0.00    +0.000 HD
ENDROOT
BRANCH   1   3
ATOM      3  C   UNL     1      49.099   6.490  16.876  0.00  0.00    +0.000 C 
BRANCH   3   4
ATOM      4  C   UNL     1      49.915   7.335  17.842  0.00  0.00    +0.000 A 
ATOM      5  C   UNL     1      51.100   6.928  18.438  0.00  0.00    +0.000 A 
ATOM      6  S   UNL     1      51.666   8.015  19.628  0.00  0.00    +0.000 S 
ATOM      7  C   UNL     1      50.351   9.064  19.381  0.00  0.00    +0.000 A 
ATOM      8  N   UNL     1      50.163  10.162  20.163  0.00  0.00    +0.000 NA
ATOM      9  C   UNL     1      49.111  10.852  19.863  0.00  0.00    +0.000 A 
ATOM     10  N   UNL     1      48.255  10.567  18.828  0.00  0.00    +0.000 N 
ATOM     11  C   UNL     1      48.451   9.512  17.967  0.00  0.00    +0.000 A 
ATOM     12  O   UNL     1      47.746   9.362  16.969  0.00  0.00    +0.000 OA
ATOM     13  C   UNL     1      49.546   8.638  18.338  0.00  0.00    +0.000 A 
ATOM     14  H   UNL     1      47.491  11.189  18.607  0.00  0.00    +0.000 HD
ENDBRANCH   3   4
BRANCH   3  15
ATOM     15  C   UNL     1      48.867   5.064  17.432  0.00  0.00    +0.000 C 
BRANCH  15  17
ATOM     16  C   UNL     1      47.643   3.283  16.195  0.00  0.00    +0.000 C 
ATOM     17  C   UNL     1      47.491   4.458  17.158  0.00  0.00    +0.000 C 
ENDBRANCH  15  17
ENDBRANCH   3  15
ENDBRANCH   1   3
BRANCH   1  18
ATOM     18  C   UNL     1      49.399   7.486  14.672  0.00  0.00    +0.000 C 
BRANCH  18  19
ATOM     19  C   UNL     1      48.097   7.167  13.984  0.00  0.00    +0.000 A 
ATOM     20  C   UNL     1      47.199   8.195  13.661  0.00  0.00    +0.000 A 
ATOM     21  C   UNL     1      46.077   7.932  12.876  0.00  0.00    +0.000 A 
ATOM     22  C   UNL     1      45.840   6.641  12.387  0.00  0.00    +0.000 A 
ATOM     23  C   UNL     1      46.720   5.607  12.737  0.00  0.00    +0.000 A 
ATOM     24  C   UNL     1      47.841   5.870  13.525  0.00  0.00    +0.000 A 
BRANCH  22  25
ATOM     25  C   UNL     1      44.665   6.372  11.469  0.00  0.00    +0.000 C 
BRANCH  25  26
ATOM     26  N   UNL     1      44.232   4.957  11.477  0.00  0.00    +0.000 NA
ATOM     27  C   UNL     1      43.196   4.725  12.491  0.00  0.00    +0.000 C 
BRANCH  26  28
ATOM     28  C   UNL     1      43.693   4.583  10.150  0.00  0.00    +0.000 C 
BRANCH  28  29
ATOM     29  C   UNL     1      44.655   3.808   9.268  0.00  0.00    +0.000 A 
ATOM     30  C   UNL     1      44.828   2.436   9.448  0.00  0.00    +0.000 A 
ATOM     31  C   UNL     1      45.712   1.756   8.616  0.00  0.00    +0.000 A 
ATOM     32  C   UNL     1      46.398   2.458   7.632  0.00  0.00    +0.000 A 
ATOM     33  C   UNL     1      46.175   3.820   7.524  0.00  0.00    +0.000 A 
ATOM     34  N   UNL     1      45.323   4.508   8.315  0.00  0.00    +0.000 NA
ENDBRANCH  28  29
ENDBRANCH  26  28
ENDBRANCH  25  26
ENDBRANCH  22  25
ENDBRANCH  18  19
ENDBRANCH   1  18
TORSDOF 10
ENDMDL
