MODEL 1
REMARK VINA RESULT:    -7.490      0.000      0.000
REMARK INTER + INTRA:         -10.285
REMARK INTER:                  -9.679
REMARK INTRA:                  -0.606
REMARK UNBOUND:                -0.606
REMARK  Name = 
REMARK  5 active torsions:
REMARK  status: ('A' for Active; 'I' for Inactive)
REMARK    1  A    between atoms: C_2  and  C_4
REMARK    2  A    between atoms: C_8  and  C_9
REMARK    3  A    between atoms: C_9  and  O_10
REMARK    4  A    between atoms: O_10  and  C_11
REMARK    5  A    between atoms: C_15  and  C_16
REMARK                            x       y       z     vdW  Elec       q    Type
REMARK                         _______ _______ _______ _____ _____    ______ ____
ROOT
ATOM      1  O   UNL     1      44.508   5.340  10.921  0.00  0.00    +0.000 OA
ENDROOT
BRANCH   1   2
ATOM      2  C   UNL     1      45.433   5.360  11.922  0.00  0.00    +0.000 A 
ATOM      3  C   UNL     1      45.252   4.496  12.987  0.00  0.00    +0.000 A 
ATOM      4  N   UNL     1      46.091   4.407  14.047  0.00  0.00    +0.000 NA
ATOM      5  C   UNL     1      47.160   5.238  14.045  0.00  0.00    +0.000 A 
ATOM      6  C   UNL     1      47.433   6.169  13.045  0.00  0.00    +0.000 A 
ATOM      7  C   UNL     1      46.526   6.217  11.981  0.00  0.00    +0.000 A 
BRANCH   6   8
ATOM      8  C   UNL     1      48.663   7.055  13.122  0.00  0.00    +0.000 C 
ATOM      9  C   UNL     1      48.973   7.593  14.529  0.00  0.00    +0.000 C 
ATOM     10  C   UNL     1      48.146   8.817  14.924  0.00  0.00    +0.000 C 
ATOM     11  N   UNL     1      48.156   9.872  13.914  0.00  0.00    +0.000 NA
ATOM     12  C   UNL     1      47.805   9.410  12.573  0.00  0.00    +0.000 C 
ATOM     13  C   UNL     1      48.640   8.215  12.113  0.00  0.00    +0.000 C 
ATOM     14  H   UNL     1      49.088  10.291  13.883  0.00  0.00    +0.000 HD
ENDBRANCH   6   8
ENDBRANCH   1   2
BRANCH   1  15
ATOM     15  C   UNL     1      45.031   5.416   9.588  0.00  0.00    +0.000 C 
BRANCH  15  20
ATOM     16  C   UNL     1      46.474   2.543   7.526  0.00  0.00    +0.000 A 
ATOM     17  C   UNL     1      45.783   1.448   8.057  0.00  0.00    +0.000 A 
ATOM     18  C   UNL     1      44.838   1.640   9.064  0.00  0.00    +0.000 A 
ATOM     19  C   UNL     1      44.593   2.921   9.557  0.00  0.00    +0.000 A 
ATOM     20  C   UNL     1      45.305   4.025   9.068  0.00  0.00    +0.000 A 
ATOM     21  C   UNL     1      46.232   3.828   8.032  0.00  0.00    +0.000 A 
BRANCH  16  23
ATOM     22  N   UNL     1      47.351   3.161   5.335  0.00  0.00    +0.000 N 
ATOM     23  C   UNL     1      47.494   2.388   6.455  0.00  0.00    +0.000 C 
ATOM     24  O   UNL     1      48.446   1.628   6.574  0.00  0.00    +0.000 OA
ATOM     25  H   UNL     1      48.101   3.111   4.657  0.00  0.00    +0.000 HD
ATOM     26  H   UNL     1      46.743   3.967   5.301  0.00  0.00    +0.000 HD
ENDBRANCH  16  23
ENDBRANCH  15  20
ENDBRANCH   1  15
TORSDOF 5
ENDMDL
MODEL 2
REMARK VINA RESULT:    -6.902      4.236      8.199
REMARK INTER + INTRA:          -9.526
REMARK INTER:                  -9.251
REMARK INTRA:                  -0.274
REMARK UNBOUND:                -0.606
REMARK  Name = 
REMARK  5 active torsions:
REMARK  status: ('A' for Active; 'I' for Inactive)
REMARK    1  A    between atoms: C_2  and  C_4
REMARK    2  A    between atoms: C_8  and  C_9
REMARK    3  A    between atoms: C_9  and  O_10
REMARK    4  A    between atoms: O_10  and  C_11
REMARK    5  A    between atoms: C_15  and  C_16
REMARK                            x       y       z     vdW  Elec       q    Type
REMARK                         _______ _______ _______ _____ _____    ______ ____
ROOT
ATOM      1  O   UNL     1      47.343   3.663  14.880  0.00  0.00    +0.000 OA
ENDROOT
BRANCH   1   2
ATOM      2  C   UNL     1      46.915   4.540  13.928  0.00  0.00    +0.000 A 
ATOM      3  C   UNL     1      47.565   5.757  13.829  0.00  0.00    +0.000 A 
ATOM      4  N   UNL     1      47.248   6.719  12.930  0.00  0.00    +0.000 NA
ATOM      5  C   UNL     1      46.216   6.453  12.095  0.00  0.00    +0.000 A 
ATOM      6  C   UNL     1      45.468   5.277  12.116  0.00  0.00    +0.000 A 
ATOM      7  C   UNL     1      45.840   4.325  13.072  0.00  0.00    +0.000 A 
BRANCH   6   8
ATOM      8  C   UNL     1      44.331   5.060  11.134  0.00  0.00    +0.000 C 
ATOM      9  C   UNL     1      43.139   4.271  11.704  0.00  0.00    +0.000 C 
ATOM     10  C   UNL     1      43.340   2.756  11.706  0.00  0.00    +0.000 C 
ATOM     11  N   UNL     1      43.788   2.229  10.419  0.00  0.00    +0.000 NA
ATOM     12  C   UNL     1      44.958   2.914   9.875  0.00  0.00    +0.000 C 
ATOM     13  C   UNL     1      44.787   4.432   9.807  0.00  0.00    +0.000 C 
ATOM     14  H   UNL     1      43.022   2.305   9.747  0.00  0.00    +0.000 HD
ENDBRANCH   6   8
ENDBRANCH   1   2
BRANCH   1  15
ATOM     15  C   UNL     1      47.120   4.062  16.239  0.00  0.00    +0.000 C 
BRANCH  15  20
ATOM     16  C   UNL     1      50.536   3.162  17.691  0.00  0.00    +0.000 A 
ATOM     17  C   UNL     1      50.878   4.349  18.348  0.00  0.00    +0.000 A 
ATOM     18  C   UNL     1      49.997   5.431  18.341  0.00  0.00    +0.000 A 
ATOM     19  C   UNL     1      48.783   5.339  17.662  0.00  0.00    +0.000 A 
ATOM     20  C   UNL     1      48.441   4.173  16.962  0.00  0.00    +0.000 A 
ATOM     21  C   UNL     1      49.319   3.077  17.002  0.00  0.00    +0.000 A 
BRANCH  16  23
ATOM     22  N   UNL     1      52.552   2.030  18.468  0.00  0.00    +0.000 N 
ATOM     23  C   UNL     1      51.443   1.984  17.668  0.00  0.00    +0.000 C 
ATOM     24  O   UNL     1      51.199   0.994  16.992  0.00  0.00    +0.000 OA
ATOM     25  H   UNL     1      53.109   1.186  18.511  0.00  0.00    +0.000 HD
ATOM     26  H   UNL     1      52.658   2.699  19.218  0.00  0.00    +0.000 HD
ENDBRANCH  16  23
ENDBRANCH  15  20
ENDBRANCH   1  15
TORSDOF 5
ENDMDL
MODEL 3
REMARK VINA RESULT:    -6.678      3.620      8.004
REMARK INTER + INTRA:          -9.236
REMARK INTER:                  -8.496
REMARK INTRA:                  -0.740
REMARK UNBOUND:                -0.606
REMARK  Name = 
REMARK  5 active torsions:
REMARK  status: ('A' for Active; 'I' for Inactive)
REMARK    1  A    between atoms: C_2  and  C_4
REMARK    2  A    between atoms: C_8  and  C_9
REMARK    3  A    between atoms: C_9  and  O_10
REMARK    4  A    between atoms: O_10  and  C_11
REMARK    5  A    between atoms: C_15  and  C_16
REMARK                            x       y       z     vdW  Elec       q    Type
REMARK                         _______ _______ _______ _____ _____    ______ ____
ROOT
ATOM      1  O   UNL     1      48.700   6.145  13.731  0.00  0.00    +0.000 OA
ENDROOT
BRANCH   1   2
ATOM      2  C   UNL     1      47.501   6.553  13.225  0.00  0.00    +0.000 A 
ATOM      3  C   UNL     1      47.438   7.806  12.642  0.00  0.00    +0.000 A 
ATOM      4  N   UNL     1      46.317   8.337  12.098  0.00  0.00    +0.000 NA
ATOM      5  C   UNL     1      45.197   7.578  12.154  0.00  0.00    +0.000 A 
ATOM      6  C   UNL     1      45.129   6.314  12.739  0.00  0.00    +0.000 A 
ATOM      7  C   UNL     1      46.319   5.824  13.289  0.00  0.00    +0.000 A 
BRANCH   6   8
ATOM      8  C   UNL     1      43.830   5.529  12.748  0.00  0.00    +0.000 C 
ATOM      9  C   UNL     1      43.985   4.047  13.129  0.00  0.00    +0.000 C 
ATOM     10  C   UNL     1      44.442   3.153  11.977  0.00  0.00    +0.000 C 
ATOM     11  N   UNL     1      43.657   3.331  10.758  0.00  0.00    +0.000 NA
ATOM     12  C   UNL     1      43.540   4.723  10.329  0.00  0.00    +0.000 C 
ATOM     13  C   UNL     1      43.039   5.651  11.436  0.00  0.00    +0.000 C 
ATOM     14  H   UNL     1      42.719   2.956  10.912  0.00  0.00    +0.000 HD
ENDBRANCH   6   8
ENDBRANCH   1   2
BRANCH   1  15
ATOM     15  C   UNL     1      49.311   7.033  14.677  0.00  0.00    +0.000 C 
BRANCH  15  20
ATOM     16  C   UNL     1      47.993   5.039  17.655  0.00  0.00    +0.000 A 
ATOM     17  C   UNL     1      47.979   6.016  18.657  0.00  0.00    +0.000 A 
ATOM     18  C   UNL     1      48.373   7.322  18.365  0.00  0.00    +0.000 A 
ATOM     19  C   UNL     1      48.801   7.651  17.080  0.00  0.00    +0.000 A 
ATOM     20  C   UNL     1      48.864   6.676  16.074  0.00  0.00    +0.000 A 
ATOM     21  C   UNL     1      48.434   5.372  16.368  0.00  0.00    +0.000 A 
BRANCH  16  23
ATOM     22  N   UNL     1      48.261   2.957  18.899  0.00  0.00    +0.000 N 
ATOM     23  C   UNL     1      47.586   3.633  17.919  0.00  0.00    +0.000 C 
ATOM     24  O   UNL     1      46.662   3.103  17.315  0.00  0.00    +0.000 OA
ATOM     25  H   UNL     1      47.912   2.035  19.129  0.00  0.00    +0.000 HD
ATOM     26  H   UNL     1      48.842   3.421  19.582  0.00  0.00    +0.000 HD
ENDBRANCH  16  23
ENDBRANCH  15  20
ENDBRANCH   1  15
TORSDOF 5
ENDMDL
MODEL 4
REMARK VINA RESULT:    -6.632      2.951      4.665
REMARK INTER + INTRA:          -9.177
REMARK INTER:                  -8.844
REMARK INTRA:                  -0.333
REMARK UNBOUND:                -0.606
REMARK  Name = 
REMARK  5 active torsions:
REMARK  status: ('A' for Active; 'I' for Inactive)
REMARK    1  A    between atoms: C_2  and  C_4
REMARK    2  A    between atoms: C_8  and  C_9
REMARK    3  A    between atoms: C_9  and  O_10
REMARK    4  A    between atoms: O_10  and  C_11
REMARK    5  A    between atoms: C_15  and  C_16
REMARK                            x       y       z     vdW  Elec       q    Type
REMARK                         _______ _______ _______ _____ _____    ______ ____
ROOT
ATOM      1  O   UNL     1      47.288   6.282  12.212  0.00  0.00    +0.000 OA
ENDROOT
BRANCH   1   2
ATOM      2  C   UNL     1      47.736   6.178  13.495  0.00  0.00    +0.000 A 
ATOM      3  C   UNL     1      48.719   7.060  13.911  0.00  0.00    +0.000 A 
ATOM      4  N   UNL     1      49.253   7.073  15.156  0.00  0.00    +0.000 NA
ATOM      5  C   UNL     1      48.788   6.144  16.024  0.00  0.00    +0.000 A 
ATOM      6  C   UNL     1      47.823   5.188  15.716  0.00  0.00    +0.000 A 
ATOM      7  C   UNL     1      47.315   5.223  14.412  0.00  0.00    +0.000 A 
BRANCH   6   8
ATOM      8  C   UNL     1      47.355   4.190  16.759  0.00  0.00    +0.000 C 
ATOM      9  C   UNL     1      47.336   4.734  18.197  0.00  0.00    +0.000 C 
ATOM     10  C   UNL     1      48.701   4.715  18.886  0.00  0.00    +0.000 C 
ATOM     11  N   UNL     1      49.380   3.425  18.791  0.00  0.00    +0.000 NA
ATOM     12  C   UNL     1      49.472   2.905  17.429  0.00  0.00    +0.000 C 
ATOM     13  C   UNL     1      48.122   2.858  16.713  0.00  0.00    +0.000 C 
ATOM     14  H   UNL     1      48.881   2.746  19.369  0.00  0.00    +0.000 HD
ENDBRANCH   6   8
ENDBRANCH   1   2
BRANCH   1  15
ATOM     15  C   UNL     1      45.926   6.704  12.060  0.00  0.00    +0.000 C 
BRANCH  15  20
ATOM     16  C   UNL     1      44.283   3.644  10.471  0.00  0.00    +0.000 A 
ATOM     17  C   UNL     1      43.355   3.287  11.456  0.00  0.00    +0.000 A 
ATOM     18  C   UNL     1      43.245   4.046  12.621  0.00  0.00    +0.000 A 
ATOM     19  C   UNL     1      44.073   5.150  12.816  0.00  0.00    +0.000 A 
ATOM     20  C   UNL     1      45.038   5.498  11.860  0.00  0.00    +0.000 A 
ATOM     21  C   UNL     1      45.121   4.749  10.676  0.00  0.00    +0.000 A 
BRANCH  16  23
ATOM     22  N   UNL     1      44.347   3.549   8.034  0.00  0.00    +0.000 N 
ATOM     23  C   UNL     1      44.440   2.863   9.215  0.00  0.00    +0.000 C 
ATOM     24  O   UNL     1      44.678   1.662   9.226  0.00  0.00    +0.000 OA
ATOM     25  H   UNL     1      44.547   3.021   7.194  0.00  0.00    +0.000 HD
ATOM     26  H   UNL     1      44.406   4.555   7.980  0.00  0.00    +0.000 HD
ENDBRANCH  16  23
ENDBRANCH  15  20
ENDBRANCH   1  15
TORSDOF 5
ENDMDL
MODEL 5
REMARK VINA RESULT:    -6.504      4.273      8.345
REMARK INTER + INTRA:          -9.011
REMARK INTER:                  -8.762
REMARK INTRA:                  -0.249
REMARK UNBOUND:                -0.606
REMARK  Name = 
REMARK  5 active torsions:
REMARK  status: ('A' for Active; 'I' for Inactive)
REMARK    1  A    between atoms: C_2  and  C_4
REMARK    2  A    between atoms: C_8  and  C_9
REMARK    3  A    between atoms: C_9  and  O_10
REMARK    4  A    between atoms: O_10  and  C_11
REMARK    5  A    between atoms: C_15  and  C_16
REMARK                            x       y       z     vdW  Elec       q    Type
REMARK                         _______ _______ _______ _____ _____    ______ ____
ROOT
ATOM      1  O   UNL     1      47.315   3.471  14.800  0.00  0.00    +0.000 OA
ENDROOT
BRANCH   1   2
ATOM      2  C   UNL     1      46.855   4.410  13.926  0.00  0.00    +0.000 A 
ATOM      3  C   UNL     1      47.393   5.683  14.001  0.00  0.00    +0.000 A 
ATOM      4  N   UNL     1      47.033   6.711  13.195  0.00  0.00    +0.000 NA
ATOM      5  C   UNL     1      46.073   6.453  12.276  0.00  0.00    +0.000 A 
ATOM      6  C   UNL     1      45.438   5.222  12.122  0.00  0.00    +0.000 A 
ATOM      7  C   UNL     1      45.850   4.203  12.988  0.00  0.00    +0.000 A 
BRANCH   6   8
ATOM      8  C   UNL     1      44.377   5.022  11.055  0.00  0.00    +0.000 C 
ATOM      9  C   UNL     1      43.131   4.257  11.533  0.00  0.00    +0.000 C 
ATOM     10  C   UNL     1      43.304   2.738  11.555  0.00  0.00    +0.000 C 
ATOM     11  N   UNL     1      43.841   2.198  10.307  0.00  0.00    +0.000 NA
ATOM     12  C   UNL     1      45.062   2.860   9.854  0.00  0.00    +0.000 C 
ATOM     13  C   UNL     1      44.923   4.380   9.769  0.00  0.00    +0.000 C 
ATOM     14  H   UNL     1      43.130   2.285   9.578  0.00  0.00    +0.000 HD
ENDBRANCH   6   8
ENDBRANCH   1   2
BRANCH   1  15
ATOM     15  C   UNL     1      47.345   3.865  16.179  0.00  0.00    +0.000 C 
BRANCH  15  20
ATOM     16  C   UNL     1      50.744   4.304  17.865  0.00  0.00    +0.000 A 
ATOM     17  C   UNL     1      51.246   2.999  17.817  0.00  0.00    +0.000 A 
ATOM     18  C   UNL     1      50.498   1.983  17.222  0.00  0.00    +0.000 A 
ATOM     19  C   UNL     1      49.239   2.262  16.691  0.00  0.00    +0.000 A 
ATOM     20  C   UNL     1      48.701   3.555  16.768  0.00  0.00    +0.000 A 
ATOM     21  C   UNL     1      49.474   4.578  17.339  0.00  0.00    +0.000 A 
BRANCH  16  23
ATOM     22  N   UNL     1      52.568   5.923  17.797  0.00  0.00    +0.000 N 
ATOM     23  C   UNL     1      51.503   5.418  18.493  0.00  0.00    +0.000 C 
ATOM     24  O   UNL     1      51.175   5.896  19.571  0.00  0.00    +0.000 OA
ATOM     25  H   UNL     1      53.016   6.739  18.195  0.00  0.00    +0.000 HD
ATOM     26  H   UNL     1      52.716   5.739  16.815  0.00  0.00    +0.000 HD
ENDBRANCH  16  23
ENDBRANCH  15  20
ENDBRANCH   1  15
TORSDOF 5
ENDMDL
MODEL 6
REMARK VINA RESULT:    -6.497      4.032      7.805
REMARK INTER + INTRA:          -9.002
REMARK INTER:                  -8.435
REMARK INTRA:                  -0.567
REMARK UNBOUND:                -0.606
REMARK  Name = 
REMARK  5 active torsions:
REMARK  status: ('A' for Active; 'I' for Inactive)
REMARK    1  A    between atoms: C_2  and  C_4
REMARK    2  A    between atoms: C_8  and  C_9
REMARK    3  A    between atoms: C_9  and  O_10
REMARK    4  A    between atoms: O_10  and  C_11
REMARK    5  A    between atoms: C_15  and  C_16
REMARK                            x       y       z     vdW  Elec       q    Type
REMARK                         _______ _______ _______ _____ _____    ______ ____
ROOT
ATOM      1  O   UNL     1      48.997   6.553  14.653  0.00  0.00    +0.000 OA
ENDROOT
BRANCH   1   2
ATOM      2  C   UNL     1      47.894   6.747  13.876  0.00  0.00    +0.000 A 
ATOM      3  C   UNL     1      47.388   8.031  13.779  0.00  0.00    +0.000 A 
ATOM      4  N   UNL     1      46.303   8.368  13.042  0.00  0.00    +0.000 NA
ATOM      5  C   UNL     1      45.683   7.363  12.380  0.00  0.00    +0.000 A 
ATOM      6  C   UNL     1      46.081   6.028  12.421  0.00  0.00    +0.000 A 
ATOM      7  C   UNL     1      47.205   5.743  13.205  0.00  0.00    +0.000 A 
BRANCH   6   8
ATOM      8  C   UNL     1      45.330   4.967  11.637  0.00  0.00    +0.000 C 
ATOM      9  C   UNL     1      44.250   5.520  10.692  0.00  0.00    +0.000 C 
ATOM     10  C   UNL     1      42.928   5.850  11.385  0.00  0.00    +0.000 C 
ATOM     11  N   UNL     1      42.426   4.765  12.224  0.00  0.00    +0.000 NA
ATOM     12  C   UNL     1      43.407   4.255  13.180  0.00  0.00    +0.000 C 
ATOM     13  C   UNL     1      44.733   3.864  12.526  0.00  0.00    +0.000 C 
ATOM     14  H   UNL     1      42.124   3.996  11.623  0.00  0.00    +0.000 HD
ENDBRANCH   6   8
ENDBRANCH   1   2
BRANCH   1  15
ATOM     15  C   UNL     1      48.906   7.044  15.997  0.00  0.00    +0.000 C 
BRANCH  15  20
ATOM     16  C   UNL     1      49.259   3.546  17.488  0.00  0.00    +0.000 A 
ATOM     17  C   UNL     1      48.610   3.703  18.718  0.00  0.00    +0.000 A 
ATOM     18  C   UNL     1      48.040   4.931  19.056  0.00  0.00    +0.000 A 
ATOM     19  C   UNL     1      48.134   6.009  18.177  0.00  0.00    +0.000 A 
ATOM     20  C   UNL     1      48.817   5.883  16.959  0.00  0.00    +0.000 A 
ATOM     21  C   UNL     1      49.359   4.635  16.613  0.00  0.00    +0.000 A 
BRANCH  16  23
ATOM     22  N   UNL     1      50.901   1.782  17.869  0.00  0.00    +0.000 N 
ATOM     23  C   UNL     1      49.884   2.258  17.086  0.00  0.00    +0.000 C 
ATOM     24  O   UNL     1      49.491   1.624  16.116  0.00  0.00    +0.000 OA
ATOM     25  H   UNL     1      51.253   0.862  17.635  0.00  0.00    +0.000 HD
ATOM     26  H   UNL     1      51.084   2.131  18.799  0.00  0.00    +0.000 HD
ENDBRANCH  16  23
ENDBRANCH  15  20
ENDBRANCH   1  15
TORSDOF 5
ENDMDL
MODEL 7
REMARK VINA RESULT:    -6.474      3.270      7.117
REMARK INTER + INTRA:          -8.972
REMARK INTER:                  -8.428
REMARK INTRA:                  -0.545
REMARK UNBOUND:                -0.606
REMARK  Name = 
REMARK  5 active torsions:
REMARK  status: ('A' for Active; 'I' for Inactive)
REMARK    1  A    between atoms: C_2  and  C_4
REMARK    2  A    between atoms: C_8  and  C_9
REMARK    3  A    between atoms: C_9  and  O_10
REMARK    4  A    between atoms: O_10  and  C_11
REMARK    5  A    between atoms: C_15  and  C_16
REMARK                            x       y       z     vdW  Elec       q    Type
REMARK                         _______ _______ _______ _____ _____    ______ ____
ROOT
ATOM      1  O   UNL     1      48.048   7.714  12.232  0.00  0.00    +0.000 OA
ENDROOT
BRANCH   1   2
ATOM      2  C   UNL     1      47.491   6.628  12.839  0.00  0.00    +0.000 A 
ATOM      3  C   UNL     1      48.033   6.209  14.041  0.00  0.00    +0.000 A 
ATOM      4  N   UNL     1      47.579   5.151  14.754  0.00  0.00    +0.000 NA
ATOM      5  C   UNL     1      46.537   4.467  14.226  0.00  0.00    +0.000 A 
ATOM      6  C   UNL     1      45.925   4.774  13.012  0.00  0.00    +0.000 A 
ATOM      7  C   UNL     1      46.443   5.875  12.321  0.00  0.00    +0.000 A 
BRANCH   6   8
ATOM      8  C   UNL     1      44.753   3.956  12.502  0.00  0.00    +0.000 C 
ATOM      9  C   UNL     1      44.918   3.436  11.064  0.00  0.00    +0.000 C 
ATOM     10  C   UNL     1      44.581   4.468   9.987  0.00  0.00    +0.000 C 
ATOM     11  N   UNL     1      43.292   5.123  10.195  0.00  0.00    +0.000 NA
ATOM     12  C   UNL     1      43.123   5.685  11.533  0.00  0.00    +0.000 C 
ATOM     13  C   UNL     1      43.402   4.674  12.647  0.00  0.00    +0.000 C 
ATOM     14  H   UNL     1      42.547   4.444  10.028  0.00  0.00    +0.000 HD
ENDBRANCH   6   8
ENDBRANCH   1   2
BRANCH   1  15
ATOM     15  C   UNL     1      47.920   8.956  12.938  0.00  0.00    +0.000 C 
BRANCH  15  20
ATOM     16  C   UNL     1      44.866  10.596  11.333  0.00  0.00    +0.000 A 
ATOM     17  C   UNL     1      45.459  11.643  10.618  0.00  0.00    +0.000 A 
ATOM     18  C   UNL     1      46.844  11.805  10.637  0.00  0.00    +0.000 A 
ATOM     19  C   UNL     1      47.639  10.937  11.384  0.00  0.00    +0.000 A 
ATOM     20  C   UNL     1      47.061   9.909  12.141  0.00  0.00    +0.000 A 
ATOM     21  C   UNL     1      45.668   9.731  12.091  0.00  0.00    +0.000 A 
BRANCH  16  23
ATOM     22  N   UNL     1      42.915   9.267  10.718  0.00  0.00    +0.000 N 
ATOM     23  C   UNL     1      43.394  10.384  11.347  0.00  0.00    +0.000 C 
ATOM     24  O   UNL     1      42.636  11.153  11.923  0.00  0.00    +0.000 OA
ATOM     25  H   UNL     1      41.922   9.090  10.815  0.00  0.00    +0.000 HD
ATOM     26  H   UNL     1      43.505   8.490  10.458  0.00  0.00    +0.000 HD
ENDBRANCH  16  23
ENDBRANCH  15  20
ENDBRANCH   1  15
TORSDOF 5
ENDMDL
MODEL 8
REMARK VINA RESULT:    -6.409      4.074      8.759
REMARK INTER + INTRA:          -8.888
REMARK INTER:                  -8.473
REMARK INTRA:                  -0.415
REMARK UNBOUND:                -0.606
REMARK  Name = 
REMARK  5 active torsions:
REMARK  status: ('A' for Active; 'I' for Inactive)
REMARK    1  A    between atoms: C_2  and  C_4
REMARK    2  A    between atoms: C_8  and  C_9
REMARK    3  A    between atoms: C_9  and  O_10
REMARK    4  A    between atoms: O_10  and  C_11
REMARK    5  A    between atoms: C_15  and  C_16
REMARK                            x       y       z     vdW  Elec       q    Type
REMARK                         _______ _______ _______ _____ _____    ______ ____
ROOT
ATOM      1  O   UNL     1      46.539   4.231  15.364  0.00  0.00    +0.000 OA
ENDROOT
BRANCH   1   2
ATOM      2  C   UNL     1      46.457   4.832  14.143  0.00  0.00    +0.000 A 
ATOM      3  C   UNL     1      47.438   5.747  13.805  0.00  0.00    +0.000 A 
ATOM      4  N   UNL     1      47.484   6.415  12.628  0.00  0.00    +0.000 NA
ATOM      5  C   UNL     1      46.487   6.162  11.748  0.00  0.00    +0.000 A 
ATOM      6  C   UNL     1      45.430   5.284  11.984  0.00  0.00    +0.000 A 
ATOM      7  C   UNL     1      45.436   4.630  13.221  0.00  0.00    +0.000 A 
BRANCH   6   8
ATOM      8  C   UNL     1      44.359   5.055  10.934  0.00  0.00    +0.000 C 
ATOM      9  C   UNL     1      43.126   4.288  11.440  0.00  0.00    +0.000 C 
ATOM     10  C   UNL     1      43.312   2.771  11.486  0.00  0.00    +0.000 C 
ATOM     11  N   UNL     1      43.839   2.214  10.242  0.00  0.00    +0.000 NA
ATOM     12  C   UNL     1      45.048   2.879   9.763  0.00  0.00    +0.000 C 
ATOM     13  C   UNL     1      44.895   4.396   9.653  0.00  0.00    +0.000 C 
ATOM     14  H   UNL     1      43.119   2.282   9.520  0.00  0.00    +0.000 HD
ENDBRANCH   6   8
ENDBRANCH   1   2
BRANCH   1  15
ATOM     15  C   UNL     1      47.732   3.474  15.608  0.00  0.00    +0.000 C 
BRANCH  15  20
ATOM     16  C   UNL     1      48.236   5.215  18.969  0.00  0.00    +0.000 A 
ATOM     17  C   UNL     1      49.462   4.679  19.377  0.00  0.00    +0.000 A 
ATOM     18  C   UNL     1      50.136   3.774  18.557  0.00  0.00    +0.000 A 
ATOM     19  C   UNL     1      49.579   3.386  17.340  0.00  0.00    +0.000 A 
ATOM     20  C   UNL     1      48.331   3.879  16.934  0.00  0.00    +0.000 A 
ATOM     21  C   UNL     1      47.675   4.815  17.749  0.00  0.00    +0.000 A 
BRANCH  16  23
ATOM     22  N   UNL     1      47.043   5.743  21.031  0.00  0.00    +0.000 N 
ATOM     23  C   UNL     1      47.479   6.181  19.810  0.00  0.00    +0.000 C 
ATOM     24  O   UNL     1      47.278   7.334  19.449  0.00  0.00    +0.000 OA
ATOM     25  H   UNL     1      46.611   6.438  21.628  0.00  0.00    +0.000 HD
ATOM     26  H   UNL     1      47.396   4.904  21.469  0.00  0.00    +0.000 HD
ENDBRANCH  16  23
ENDBRANCH  15  20
ENDBRANCH   1  15
TORSDOF 5
ENDMDL
MODEL 9
REMARK VINA RESULT:    -6.200      4.417      6.044
REMARK INTER + INTRA:          -8.618
REMARK INTER:                  -8.210
REMARK INTRA:                  -0.408
REMARK UNBOUND:                -0.606
REMARK  Name = 
REMARK  5 active torsions:
REMARK  status: ('A' for Active; 'I' for Inactive)
REMARK    1  A    between atoms: C_2  and  C_4
REMARK    2  A    between atoms: C_8  and  C_9
REMARK    3  A    between atoms: C_9  and  O_10
REMARK    4  A    between atoms: O_10  and  C_11
REMARK    5  A    between atoms: C_15  and  C_16
REMARK                            x       y       z     vdW  Elec       q    Type
REMARK                         _______ _______ _______ _____ _____    ______ ____
ROOT
ATOM      1  O   UNL     1      47.725   5.063  15.132  0.00  0.00    +0.000 OA
ENDROOT
BRANCH   1   2
ATOM      2  C   UNL     1      48.067   4.683  16.395  0.00  0.00    +0.000 A 
ATOM      3  C   UNL     1      47.864   3.361  16.751  0.00  0.00    +0.000 A 
ATOM      4  N   UNL     1      48.160   2.846  17.968  0.00  0.00    +0.000 NA
ATOM      5  C   UNL     1      48.672   3.704  18.881  0.00  0.00    +0.000 A 
ATOM      6  C   UNL     1      48.895   5.060  18.652  0.00  0.00    +0.000 A 
ATOM      7  C   UNL     1      48.564   5.533  17.377  0.00  0.00    +0.000 A 
BRANCH   6   8
ATOM      8  C   UNL     1      49.483   5.947  19.734  0.00  0.00    +0.000 C 
ATOM      9  C   UNL     1      49.664   5.254  21.095  0.00  0.00    +0.000 C 
ATOM     10  C   UNL     1      48.387   5.188  21.934  0.00  0.00    +0.000 C 
ATOM     11  N   UNL     1      47.705   6.474  22.054  0.00  0.00    +0.000 NA
ATOM     12  C   UNL     1      47.460   7.135  20.773  0.00  0.00    +0.000 C 
ATOM     13  C   UNL     1      48.720   7.269  19.917  0.00  0.00    +0.000 C 
ATOM     14  H   UNL     1      48.270   7.094  22.639  0.00  0.00    +0.000 HD
ENDBRANCH   6   8
ENDBRANCH   1   2
BRANCH   1  15
ATOM     15  C   UNL     1      46.688   4.292  14.508  0.00  0.00    +0.000 C 
BRANCH  15  20
ATOM     16  C   UNL     1      45.083   4.816  11.083  0.00  0.00    +0.000 A 
ATOM     17  C   UNL     1      45.705   5.997  10.664  0.00  0.00    +0.000 A 
ATOM     18  C   UNL     1      46.658   6.611  11.477  0.00  0.00    +0.000 A 
ATOM     19  C   UNL     1      46.977   6.061  12.717  0.00  0.00    +0.000 A 
ATOM     20  C   UNL     1      46.333   4.902  13.173  0.00  0.00    +0.000 A 
ATOM     21  C   UNL     1      45.399   4.271  12.335  0.00  0.00    +0.000 A 
BRANCH  16  23
ATOM     22  N   UNL     1      44.034   4.420   8.916  0.00  0.00    +0.000 N 
ATOM     23  C   UNL     1      44.059   4.127  10.253  0.00  0.00    +0.000 C 
ATOM     24  O   UNL     1      43.288   3.305  10.729  0.00  0.00    +0.000 OA
ATOM     25  H   UNL     1      43.394   3.876   8.351  0.00  0.00    +0.000 HD
ATOM     26  H   UNL     1      44.796   4.885   8.444  0.00  0.00    +0.000 HD
ENDBRANCH  16  23
ENDBRANCH  15  20
ENDBRANCH   1  15
TORSDOF 5
ENDMDL
