MODEL 1
REMARK VINA RESULT:    -7.738      0.000      0.000
REMARK INTER + INTRA:         -11.266
REMARK INTER:                 -10.452
REMARK INTRA:                  -0.814
REMARK UNBOUND:                -0.814
REMARK  Name = 
REMARK  6 active torsions:
REMARK  status: ('A' for Active; 'I' for Inactive)
REMARK    1  A    between atoms: C_2  and  C_3
REMARK    2  A    between atoms: C_8  and  C_9
REMARK    3  A    between atoms: C_9  and  C_10
REMARK    4  A    between atoms: C_10  and  N_11
REMARK    5  A    between atoms: N_11  and  C_12
REMARK    6  A    between atoms: C_16  and  C_17
REMARK                            x       y       z     vdW  Elec       q    Type
REMARK                         _______ _______ _______ _____ _____    ______ ____
ROOT
ATOM      1  N   UNL     1      44.064   2.416  10.504  0.00  0.00    +0.000 N 
ATOM      2  H   UNL     1      43.423   1.706  10.151  0.00  0.00    +0.000 HD
ENDROOT
BRANCH   1   3
ATOM      3  C   UNL     1      44.885   2.896   9.463  0.00  0.00    +0.000 A 
ATOM      4  C   UNL     1      45.007   4.261   9.174  0.00  0.00    +0.000 A 
ATOM      5  C   UNL     1      45.843   4.718   8.154  0.00  0.00    +0.000 A 
ATOM      6  C   UNL     1      46.604   3.816   7.416  0.00  0.00    +0.000 A 
ATOM      7  C   UNL     1      46.548   2.451   7.712  0.00  0.00    +0.000 A 
ATOM      8  C   UNL     1      45.710   2.007   8.754  0.00  0.00    +0.000 A 
BRANCH   7   9
ATOM      9  C   UNL     1      47.337   1.435   6.955  0.00  0.00    +0.000 C 
ATOM     10  N   UNL     1      48.446   1.845   6.265  0.00  0.00    +0.000 N 
ATOM     11  O   UNL     1      47.006   0.254   6.927  0.00  0.00    +0.000 OA
ATOM     12  H   UNL     1      48.762   2.797   6.178  0.00  0.00    +0.000 HD
ATOM     13  H   UNL     1      48.934   1.140   5.727  0.00  0.00    +0.000 HD
ENDBRANCH   7   9
ENDBRANCH   1   3
BRANCH   1  14
ATOM     14  C   UNL     1      43.372   3.439  11.303  0.00  0.00    +0.000 C 
BRANCH  14  15
ATOM     15  C   UNL     1      44.070   3.661  12.649  0.00  0.00    +0.000 C 
BRANCH  15  21
ATOM     16  C   UNL     1      45.233   7.261  12.080  0.00  0.00    +0.000 A 
ATOM     17  C   UNL     1      46.553   7.217  12.531  0.00  0.00    +0.000 A 
ATOM     18  C   UNL     1      47.072   6.030  13.053  0.00  0.00    +0.000 A 
ATOM     19  C   UNL     1      46.280   4.877  13.111  0.00  0.00    +0.000 A 
ATOM     20 CL   UNL     1      46.993   3.456  13.782  0.00  0.00    +0.000 Cl
ATOM     21  C   UNL     1      44.957   4.892  12.638  0.00  0.00    +0.000 A 
ATOM     22  C   UNL     1      44.439   6.107  12.143  0.00  0.00    +0.000 A 
BRANCH  16  24
ATOM     23  N   UNL     1      44.266   9.468  11.113  0.00  0.00    +0.000 NA
ATOM     24  C   UNL     1      44.697   8.483  11.545  0.00  0.00    +0.000 C 
ENDBRANCH  16  24
ENDBRANCH  15  21
ENDBRANCH  14  15
ENDBRANCH   1  14
TORSDOF 6
ENDMDL
MODEL 2
REMARK VINA RESULT:    -7.576      2.207      3.240
REMARK INTER + INTRA:         -11.047
REMARK INTER:                 -10.365
REMARK INTRA:                  -0.682
REMARK UNBOUND:                -0.814
REMARK  Name = 
REMARK  6 active torsions:
REMARK  status: ('A' for Active; 'I' for Inactive)
REMARK    1  A    between atoms: C_2  and  C_3
REMARK    2  A    between atoms: C_8  and  C_9
REMARK    3  A    between atoms: C_9  and  C_10
REMARK    4  A    between atoms: C_10  and  N_11
REMARK    5  A    between atoms: N_11  and  C_12
REMARK    6  A    between atoms: C_16  and  C_17
REMARK                            x       y       z     vdW  Elec       q    Type
REMARK                         _______ _______ _______ _____ _____    ______ ____
ROOT
ATOM      1  N   UNL     1      44.204   4.957   9.450  0.00  0.00    +0.000 N 
ATOM      2  H   UNL     1      44.894   5.698   9.575  0.00  0.00    +0.000 HD
ENDROOT
BRANCH   1   3
ATOM      3  C   UNL     1      44.826   3.782   8.982  0.00  0.00    +0.000 A 
ATOM      4  C   UNL     1      44.527   2.517   9.505  0.00  0.00    +0.000 A 
ATOM      5  C   UNL     1      45.136   1.362   9.013  0.00  0.00    +0.000 A 
ATOM      6  C   UNL     1      46.041   1.444   7.959  0.00  0.00    +0.000 A 
ATOM      7  C   UNL     1      46.323   2.682   7.376  0.00  0.00    +0.000 A 
ATOM      8  C   UNL     1      45.689   3.837   7.875  0.00  0.00    +0.000 A 
BRANCH   7   9
ATOM      9  C   UNL     1      47.287   2.834   6.246  0.00  0.00    +0.000 C 
ATOM     10  N   UNL     1      48.625   2.691   6.500  0.00  0.00    +0.000 N 
ATOM     11  O   UNL     1      46.909   3.098   5.110  0.00  0.00    +0.000 OA
ATOM     12  H   UNL     1      49.035   2.536   7.406  0.00  0.00    +0.000 HD
ATOM     13  H   UNL     1      49.254   2.842   5.722  0.00  0.00    +0.000 HD
ENDBRANCH   7   9
ENDBRANCH   1   3
BRANCH   1  14
ATOM     14  C   UNL     1      43.338   4.804  10.629  0.00  0.00    +0.000 C 
BRANCH  14  15
ATOM     15  C   UNL     1      43.393   6.045  11.526  0.00  0.00    +0.000 C 
BRANCH  15  21
ATOM     16  C   UNL     1      46.526   5.148  13.531  0.00  0.00    +0.000 A 
ATOM     17  C   UNL     1      47.193   6.372  13.595  0.00  0.00    +0.000 A 
ATOM     18  C   UNL     1      46.652   7.494  12.964  0.00  0.00    +0.000 A 
ATOM     19  C   UNL     1      45.434   7.403  12.280  0.00  0.00    +0.000 A 
ATOM     20 CL   UNL     1      44.841   8.833  11.517  0.00  0.00    +0.000 Cl
ATOM     21  C   UNL     1      44.732   6.187  12.226  0.00  0.00    +0.000 A 
ATOM     22  C   UNL     1      45.308   5.056  12.842  0.00  0.00    +0.000 A 
BRANCH  16  24
ATOM     23  N   UNL     1      47.533   3.060  14.701  0.00  0.00    +0.000 NA
ATOM     24  C   UNL     1      47.083   3.991  14.178  0.00  0.00    +0.000 C 
ENDBRANCH  16  24
ENDBRANCH  15  21
ENDBRANCH  14  15
ENDBRANCH   1  14
TORSDOF 6
ENDMDL
MODEL 3
REMARK VINA RESULT:    -7.550      2.101      2.540
REMARK INTER + INTRA:         -11.013
REMARK INTER:                 -10.098
REMARK INTRA:                  -0.915
REMARK UNBOUND:                -0.814
REMARK  Name = 
REMARK  6 active torsions:
REMARK  status: ('A' for Active; 'I' for Inactive)
REMARK    1  A    between atoms: C_2  and  C_3
REMARK    2  A    between atoms: C_8  and  C_9
REMARK    3  A    between atoms: C_9  and  C_10
REMARK    4  A    between atoms: C_10  and  N_11
REMARK    5  A    between atoms: N_11  and  C_12
REMARK    6  A    between atoms: C_16  and  C_17
REMARK                            x       y       z     vdW  Elec       q    Type
REMARK                         _______ _______ _______ _____ _____    ______ ____
ROOT
ATOM      1  N   UNL     1      43.947   2.734  10.729  0.00  0.00    +0.000 N 
ATOM      2  H   UNL     1      43.086   3.278  10.676  0.00  0.00    +0.000 HD
ENDROOT
BRANCH   1   3
ATOM      3  C   UNL     1      44.773   3.014   9.622  0.00  0.00    +0.000 A 
ATOM      4  C   UNL     1      44.974   4.316   9.148  0.00  0.00    +0.000 A 
ATOM      5  C   UNL     1      45.815   4.576   8.064  0.00  0.00    +0.000 A 
ATOM      6  C   UNL     1      46.501   3.536   7.447  0.00  0.00    +0.000 A 
ATOM      7  C   UNL     1      46.367   2.230   7.927  0.00  0.00    +0.000 A 
ATOM      8  C   UNL     1      45.526   1.986   9.031  0.00  0.00    +0.000 A 
BRANCH   7   9
ATOM      9  C   UNL     1      47.074   1.071   7.304  0.00  0.00    +0.000 C 
ATOM     10  N   UNL     1      46.686  -0.196   7.646  0.00  0.00    +0.000 N 
ATOM     11  O   UNL     1      47.997   1.232   6.512  0.00  0.00    +0.000 OA
ATOM     12  H   UNL     1      45.984  -0.428   8.329  0.00  0.00    +0.000 HD
ATOM     13  H   UNL     1      47.213  -0.958   7.239  0.00  0.00    +0.000 HD
ENDBRANCH   7   9
ENDBRANCH   1   3
BRANCH   1  14
ATOM     14  C   UNL     1      44.584   2.834  12.051  0.00  0.00    +0.000 C 
BRANCH  14  15
ATOM     15  C   UNL     1      43.992   3.987  12.869  0.00  0.00    +0.000 C 
BRANCH  15  21
ATOM     16  C   UNL     1      46.847   6.507  13.240  0.00  0.00    +0.000 A 
ATOM     17  C   UNL     1      46.347   7.617  12.558  0.00  0.00    +0.000 A 
ATOM     18  C   UNL     1      45.095   7.554  11.945  0.00  0.00    +0.000 A 
ATOM     19  C   UNL     1      44.327   6.385  12.024  0.00  0.00    +0.000 A 
ATOM     20 CL   UNL     1      42.796   6.384  11.227  0.00  0.00    +0.000 Cl
ATOM     21  C   UNL     1      44.799   5.264  12.727  0.00  0.00    +0.000 A 
ATOM     22  C   UNL     1      46.080   5.336  13.314  0.00  0.00    +0.000 A 
BRANCH  16  24
ATOM     23  N   UNL     1      49.179   6.624  14.377  0.00  0.00    +0.000 NA
ATOM     24  C   UNL     1      48.138   6.570  13.869  0.00  0.00    +0.000 C 
ENDBRANCH  16  24
ENDBRANCH  15  21
ENDBRANCH  14  15
ENDBRANCH   1  14
TORSDOF 6
ENDMDL
MODEL 4
REMARK VINA RESULT:    -6.925      1.978      2.686
REMARK INTER + INTRA:         -10.169
REMARK INTER:                  -9.471
REMARK INTRA:                  -0.698
REMARK UNBOUND:                -0.814
REMARK  Name = 
REMARK  6 active torsions:
REMARK  status: ('A' for Active; 'I' for Inactive)
REMARK    1  A    between atoms: C_2  and  C_3
REMARK    2  A    between atoms: C_8  and  C_9
REMARK    3  A    between atoms: C_9  and  C_10
REMARK    4  A    between atoms: C_10  and  N_11
REMARK    5  A    between atoms: N_11  and  C_12
REMARK    6  A    between atoms: C_16  and  C_17
REMARK                            x       y       z     vdW  Elec       q    Type
REMARK                         _______ _______ _______ _____ _____    ______ ____
ROOT
ATOM      1  N   UNL     1      44.668   5.279   9.344  0.00  0.00    +0.000 N 
ATOM      2  H   UNL     1      45.474   5.855   9.588  0.00  0.00    +0.000 HD
ENDROOT
BRANCH   1   3
ATOM      3  C   UNL     1      45.084   3.980   8.988  0.00  0.00    +0.000 A 
ATOM      4  C   UNL     1      44.497   2.830   9.530  0.00  0.00    +0.000 A 
ATOM      5  C   UNL     1      44.907   1.552   9.147  0.00  0.00    +0.000 A 
ATOM      6  C   UNL     1      45.898   1.396   8.183  0.00  0.00    +0.000 A 
ATOM      7  C   UNL     1      46.468   2.520   7.580  0.00  0.00    +0.000 A 
ATOM      8  C   UNL     1      46.034   3.803   7.968  0.00  0.00    +0.000 A 
BRANCH   7   9
ATOM      9  C   UNL     1      47.538   2.417   6.544  0.00  0.00    +0.000 C 
ATOM     10  N   UNL     1      47.422   3.165   5.403  0.00  0.00    +0.000 N 
ATOM     11  O   UNL     1      48.501   1.670   6.686  0.00  0.00    +0.000 OA
ATOM     12  H   UNL     1      46.642   3.758   5.169  0.00  0.00    +0.000 HD
ATOM     13  H   UNL     1      48.141   3.041   4.702  0.00  0.00    +0.000 HD
ENDBRANCH   7   9
ENDBRANCH   1   3
BRANCH   1  14
ATOM     14  C   UNL     1      43.603   5.361  10.356  0.00  0.00    +0.000 C 
BRANCH  14  15
ATOM     15  C   UNL     1      43.954   6.371  11.454  0.00  0.00    +0.000 C 
BRANCH  15  21
ATOM     16  C   UNL     1      47.454   6.222  12.992  0.00  0.00    +0.000 A 
ATOM     17  C   UNL     1      47.367   5.094  13.809  0.00  0.00    +0.000 A 
ATOM     18  C   UNL     1      46.166   4.386  13.894  0.00  0.00    +0.000 A 
ATOM     19  C   UNL     1      45.051   4.793  13.152  0.00  0.00    +0.000 A 
ATOM     20 CL   UNL     1      43.601   3.871  13.325  0.00  0.00    +0.000 Cl
ATOM     21  C   UNL     1      45.124   5.910  12.303  0.00  0.00    +0.000 A 
ATOM     22  C   UNL     1      46.335   6.631  12.253  0.00  0.00    +0.000 A 
BRANCH  16  24
ATOM     23  N   UNL     1      49.685   7.541  12.837  0.00  0.00    +0.000 NA
ATOM     24  C   UNL     1      48.688   6.953  12.905  0.00  0.00    +0.000 C 
ENDBRANCH  16  24
ENDBRANCH  15  21
ENDBRANCH  14  15
ENDBRANCH   1  14
TORSDOF 6
ENDMDL
MODEL 5
REMARK VINA RESULT:    -6.749      1.818      2.497
REMARK INTER + INTRA:          -9.931
REMARK INTER:                  -9.407
REMARK INTRA:                  -0.523
REMARK UNBOUND:                -0.814
REMARK  Name = 
REMARK  6 active torsions:
REMARK  status: ('A' for Active; 'I' for Inactive)
REMARK    1  A    between atoms: C_2  and  C_3
REMARK    2  A    between atoms: C_8  and  C_9
REMARK    3  A    between atoms: C_9  and  C_10
REMARK    4  A    between atoms: C_10  and  N_11
REMARK    5  A    between atoms: N_11  and  C_12
REMARK    6  A    between atoms: C_16  and  C_17
REMARK                            x       y       z     vdW  Elec       q    Type
REMARK                         _______ _______ _______ _____ _____    ______ ____
ROOT
ATOM      1  N   UNL     1      45.074   5.467   9.605  0.00  0.00    +0.000 N 
ATOM      2  H   UNL     1      45.847   6.108   9.423  0.00  0.00    +0.000 HD
ENDROOT
BRANCH   1   3
ATOM      3  C   UNL     1      45.369   4.187   9.093  0.00  0.00    +0.000 A 
ATOM      4  C   UNL     1      44.816   3.019   9.634  0.00  0.00    +0.000 A 
ATOM      5  C   UNL     1      45.102   1.762   9.099  0.00  0.00    +0.000 A 
ATOM      6  C   UNL     1      45.927   1.647   7.985  0.00  0.00    +0.000 A 
ATOM      7  C   UNL     1      46.453   2.795   7.386  0.00  0.00    +0.000 A 
ATOM      8  C   UNL     1      46.144   4.058   7.929  0.00  0.00    +0.000 A 
BRANCH   7   9
ATOM      9  C   UNL     1      47.348   2.736   6.191  0.00  0.00    +0.000 C 
ATOM     10  N   UNL     1      48.676   2.464   6.378  0.00  0.00    +0.000 N 
ATOM     11  O   UNL     1      46.922   2.941   5.059  0.00  0.00    +0.000 OA
ATOM     12  H   UNL     1      49.128   2.342   7.269  0.00  0.00    +0.000 HD
ATOM     13  H   UNL     1      49.262   2.473   5.553  0.00  0.00    +0.000 HD
ENDBRANCH   7   9
ENDBRANCH   1   3
BRANCH   1  14
ATOM     14  C   UNL     1      44.632   5.516  11.007  0.00  0.00    +0.000 C 
BRANCH  14  15
ATOM     15  C   UNL     1      45.814   5.737  11.957  0.00  0.00    +0.000 C 
BRANCH  15  21
ATOM     16  C   UNL     1      45.547   9.554  11.954  0.00  0.00    +0.000 A 
ATOM     17  C   UNL     1      46.876   9.940  12.138  0.00  0.00    +0.000 A 
ATOM     18  C   UNL     1      47.868   8.970  12.295  0.00  0.00    +0.000 A 
ATOM     19  C   UNL     1      47.541   7.609  12.253  0.00  0.00    +0.000 A 
ATOM     20 CL   UNL     1      48.825   6.475  12.469  0.00  0.00    +0.000 Cl
ATOM     21  C   UNL     1      46.214   7.198  12.043  0.00  0.00    +0.000 A 
ATOM     22  C   UNL     1      45.220   8.191  11.917  0.00  0.00    +0.000 A 
BRANCH  16  24
ATOM     23  N   UNL     1      43.698  11.353  11.669  0.00  0.00    +0.000 NA
ATOM     24  C   UNL     1      44.525  10.550  11.796  0.00  0.00    +0.000 C 
ENDBRANCH  16  24
ENDBRANCH  15  21
ENDBRANCH  14  15
ENDBRANCH   1  14
TORSDOF 6
ENDMDL
MODEL 6
REMARK VINA RESULT:    -6.483      3.872      6.915
REMARK INTER + INTRA:          -9.571
REMARK INTER:                  -9.092
REMARK INTRA:                  -0.479
REMARK UNBOUND:                -0.814
REMARK  Name = 
REMARK  6 active torsions:
REMARK  status: ('A' for Active; 'I' for Inactive)
REMARK    1  A    between atoms: C_2  and  C_3
REMARK    2  A    between atoms: C_8  and  C_9
REMARK    3  A    between atoms: C_9  and  C_10
REMARK    4  A    between atoms: C_10  and  N_11
REMARK    5  A    between atoms: N_11  and  C_12
REMARK    6  A    between atoms: C_16  and  C_17
REMARK                            x       y       z     vdW  Elec       q    Type
REMARK                         _______ _______ _______ _____ _____    ______ ____
ROOT
ATOM      1  N   UNL     1      46.713   5.399  12.806  0.00  0.00    +0.000 N 
ATOM      2  H   UNL     1      47.254   4.832  12.154  0.00  0.00    +0.000 HD
ENDROOT
BRANCH   1   3
ATOM      3  C   UNL     1      47.383   5.498  14.042  0.00  0.00    +0.000 A 
ATOM      4  C   UNL     1      48.197   6.591  14.367  0.00  0.00    +0.000 A 
ATOM      5  C   UNL     1      48.834   6.683  15.605  0.00  0.00    +0.000 A 
ATOM      6  C   UNL     1      48.645   5.693  16.564  0.00  0.00    +0.000 A 
ATOM      7  C   UNL     1      47.797   4.615  16.295  0.00  0.00    +0.000 A 
ATOM      8  C   UNL     1      47.150   4.544  15.046  0.00  0.00    +0.000 A 
BRANCH   7   9
ATOM      9  C   UNL     1      47.557   3.520  17.282  0.00  0.00    +0.000 C 
ATOM     10  N   UNL     1      48.598   3.106  18.069  0.00  0.00    +0.000 N 
ATOM     11  O   UNL     1      46.461   2.979  17.388  0.00  0.00    +0.000 OA
ATOM     12  H   UNL     1      49.544   3.444  18.014  0.00  0.00    +0.000 HD
ATOM     13  H   UNL     1      48.413   2.334  18.697  0.00  0.00    +0.000 HD
ENDBRANCH   7   9
ENDBRANCH   1   3
BRANCH   1  14
ATOM     14  C   UNL     1      46.275   6.668  12.205  0.00  0.00    +0.000 C 
BRANCH  14  15
ATOM     15  C   UNL     1      44.916   6.517  11.512  0.00  0.00    +0.000 C 
BRANCH  15  21
ATOM     16  C   UNL     1      45.351   3.882   8.772  0.00  0.00    +0.000 A 
ATOM     17  C   UNL     1      44.594   2.819   9.267  0.00  0.00    +0.000 A 
ATOM     18  C   UNL     1      43.960   2.931  10.506  0.00  0.00    +0.000 A 
ATOM     19  C   UNL     1      44.065   4.113  11.250  0.00  0.00    +0.000 A 
ATOM     20 CL   UNL     1      43.262   4.165  12.777  0.00  0.00    +0.000 Cl
ATOM     21  C   UNL     1      44.800   5.205  10.759  0.00  0.00    +0.000 A 
ATOM     22  C   UNL     1      45.459   5.063   9.520  0.00  0.00    +0.000 A 
BRANCH  16  24
ATOM     23  N   UNL     1      46.536   3.670   6.472  0.00  0.00    +0.000 NA
ATOM     24  C   UNL     1      46.007   3.766   7.499  0.00  0.00    +0.000 C 
ENDBRANCH  16  24
ENDBRANCH  15  21
ENDBRANCH  14  15
ENDBRANCH   1  14
TORSDOF 6
ENDMDL
MODEL 7
REMARK VINA RESULT:    -6.271      3.106      4.931
REMARK INTER + INTRA:          -9.285
REMARK INTER:                  -8.696
REMARK INTRA:                  -0.589
REMARK UNBOUND:                -0.814
REMARK  Name = 
REMARK  6 active torsions:
REMARK  status: ('A' for Active; 'I' for Inactive)
REMARK    1  A    between atoms: C_2  and  C_3
REMARK    2  A    between atoms: C_8  and  C_9
REMARK    3  A    between atoms: C_9  and  C_10
REMARK    4  A    between atoms: C_10  and  N_11
REMARK    5  A    between atoms: N_11  and  C_12
REMARK    6  A    between atoms: C_16  and  C_17
REMARK                            x       y       z     vdW  Elec       q    Type
REMARK                         _______ _______ _______ _____ _____    ______ ____
ROOT
ATOM      1  N   UNL     1      44.712   6.871  12.781  0.00  0.00    +0.000 N 
ATOM      2  H   UNL     1      43.987   7.505  12.443  0.00  0.00    +0.000 HD
ENDROOT
BRANCH   1   3
ATOM      3  C   UNL     1      44.596   5.615  12.151  0.00  0.00    +0.000 A 
ATOM      4  C   UNL     1      44.132   4.479  12.826  0.00  0.00    +0.000 A 
ATOM      5  C   UNL     1      44.002   3.249  12.179  0.00  0.00    +0.000 A 
ATOM      6  C   UNL     1      44.306   3.135  10.826  0.00  0.00    +0.000 A 
ATOM      7  C   UNL     1      44.720   4.260  10.107  0.00  0.00    +0.000 A 
ATOM      8  C   UNL     1      44.833   5.497  10.771  0.00  0.00    +0.000 A 
BRANCH   7   9
ATOM      9  C   UNL     1      45.064   4.200   8.655  0.00  0.00    +0.000 C 
ATOM     10  N   UNL     1      44.311   3.405   7.834  0.00  0.00    +0.000 N 
ATOM     11  O   UNL     1      46.008   4.832   8.192  0.00  0.00    +0.000 OA
ATOM     12  H   UNL     1      43.559   2.805   8.130  0.00  0.00    +0.000 HD
ATOM     13  H   UNL     1      44.596   3.354   6.864  0.00  0.00    +0.000 HD
ENDBRANCH   7   9
ENDBRANCH   1   3
BRANCH   1  14
ATOM     14  C   UNL     1      46.047   7.488  12.749  0.00  0.00    +0.000 C 
BRANCH  14  15
ATOM     15  C   UNL     1      47.150   6.426  12.694  0.00  0.00    +0.000 C 
BRANCH  15  21
ATOM     16  C   UNL     1      47.747   4.817  16.114  0.00  0.00    +0.000 A 
ATOM     17  C   UNL     1      48.773   5.608  16.633  0.00  0.00    +0.000 A 
ATOM     18  C   UNL     1      49.304   6.651  15.872  0.00  0.00    +0.000 A 
ATOM     19  C   UNL     1      48.801   6.920  14.593  0.00  0.00    +0.000 A 
ATOM     20 CL   UNL     1      49.521   8.218  13.712  0.00  0.00    +0.000 Cl
ATOM     21  C   UNL     1      47.751   6.154  14.060  0.00  0.00    +0.000 A 
ATOM     22  C   UNL     1      47.248   5.084  14.831  0.00  0.00    +0.000 A 
BRANCH  16  24
ATOM     23  N   UNL     1      46.764   2.874  17.528  0.00  0.00    +0.000 NA
ATOM     24  C   UNL     1      47.202   3.742  16.895  0.00  0.00    +0.000 C 
ENDBRANCH  16  24
ENDBRANCH  15  21
ENDBRANCH  14  15
ENDBRANCH   1  14
TORSDOF 6
ENDMDL
MODEL 8
REMARK VINA RESULT:    -6.067      4.908      6.833
REMARK INTER + INTRA:          -9.010
REMARK INTER:                  -8.505
REMARK INTRA:                  -0.505
REMARK UNBOUND:                -0.814
REMARK  Name = 
REMARK  6 active torsions:
REMARK  status: ('A' for Active; 'I' for Inactive)
REMARK    1  A    between atoms: C_2  and  C_3
REMARK    2  A    between atoms: C_8  and  C_9
REMARK    3  A    between atoms: C_9  and  C_10
REMARK    4  A    between atoms: C_10  and  N_11
REMARK    5  A    between atoms: N_11  and  C_12
REMARK    6  A    between atoms: C_16  and  C_17
REMARK                            x       y       z     vdW  Elec       q    Type
REMARK                         _______ _______ _______ _____ _____    ______ ____
ROOT
ATOM      1  N   UNL     1      47.046   5.310  14.693  0.00  0.00    +0.000 N 
ATOM      2  H   UNL     1      47.996   5.670  14.604  0.00  0.00    +0.000 HD
ENDROOT
BRANCH   1   3
ATOM      3  C   UNL     1      46.389   5.351  13.446  0.00  0.00    +0.000 A 
ATOM      4  C   UNL     1      46.589   6.390  12.527  0.00  0.00    +0.000 A 
ATOM      5  C   UNL     1      45.947   6.400  11.288  0.00  0.00    +0.000 A 
ATOM      6  C   UNL     1      45.110   5.350  10.925  0.00  0.00    +0.000 A 
ATOM      7  C   UNL     1      44.929   4.270  11.793  0.00  0.00    +0.000 A 
ATOM      8  C   UNL     1      45.595   4.267  13.035  0.00  0.00    +0.000 A 
BRANCH   7   9
ATOM      9  C   UNL     1      44.042   3.116  11.462  0.00  0.00    +0.000 C 
ATOM     10  N   UNL     1      43.577   2.331  12.482  0.00  0.00    +0.000 N 
ATOM     11  O   UNL     1      43.736   2.852  10.303  0.00  0.00    +0.000 OA
ATOM     12  H   UNL     1      43.820   2.430  13.454  0.00  0.00    +0.000 HD
ATOM     13  H   UNL     1      43.012   1.533  12.221  0.00  0.00    +0.000 HD
ENDBRANCH   7   9
ENDBRANCH   1   3
BRANCH   1  14
ATOM     14  C   UNL     1      47.004   4.022  15.402  0.00  0.00    +0.000 C 
BRANCH  14  15
ATOM     15  C   UNL     1      47.335   4.194  16.889  0.00  0.00    +0.000 C 
BRANCH  15  21
ATOM     16  C   UNL     1      50.886   2.883  17.442  0.00  0.00    +0.000 A 
ATOM     17  C   UNL     1      51.599   4.061  17.676  0.00  0.00    +0.000 A 
ATOM     18  C   UNL     1      50.945   5.293  17.627  0.00  0.00    +0.000 A 
ATOM     19  C   UNL     1      49.572   5.355  17.360  0.00  0.00    +0.000 A 
ATOM     20 CL   UNL     1      48.843   6.919  17.304  0.00  0.00    +0.000 Cl
ATOM     21  C   UNL     1      48.829   4.182  17.148  0.00  0.00    +0.000 A 
ATOM     22  C   UNL     1      49.512   2.947  17.171  0.00  0.00    +0.000 A 
BRANCH  16  24
ATOM     23  N   UNL     1      52.099   0.589  17.529  0.00  0.00    +0.000 NA
ATOM     24  C   UNL     1      51.559   1.614  17.489  0.00  0.00    +0.000 C 
ENDBRANCH  16  24
ENDBRANCH  15  21
ENDBRANCH  14  15
ENDBRANCH   1  14
TORSDOF 6
ENDMDL
MODEL 9
REMARK VINA RESULT:    -5.959      2.159      2.992
REMARK INTER + INTRA:          -8.864
REMARK INTER:                  -8.337
REMARK INTRA:                  -0.527
REMARK UNBOUND:                -0.814
REMARK  Name = 
REMARK  6 active torsions:
REMARK  status: ('A' for Active; 'I' for Inactive)
REMARK    1  A    between atoms: C_2  and  C_3
REMARK    2  A    between atoms: C_8  and  C_9
REMARK    3  A    between atoms: C_9  and  C_10
REMARK    4  A    between atoms: C_10  and  N_11
REMARK    5  A    between atoms: N_11  and  C_12
REMARK    6  A    between atoms: C_16  and  C_17
REMARK                            x       y       z     vdW  Elec       q    Type
REMARK                         _______ _______ _______ _____ _____    ______ ____
ROOT
ATOM      1  N   UNL     1      45.223   6.318  10.503  0.00  0.00    +0.000 N 
ATOM      2  H   UNL     1      46.186   6.535  10.760  0.00  0.00    +0.000 HD
ENDROOT
BRANCH   1   3
ATOM      3  C   UNL     1      45.136   5.008   9.990  0.00  0.00    +0.000 A 
ATOM      4  C   UNL     1      44.313   4.031  10.565  0.00  0.00    +0.000 A 
ATOM      5  C   UNL     1      44.222   2.746  10.029  0.00  0.00    +0.000 A 
ATOM      6  C   UNL     1      44.933   2.416   8.879  0.00  0.00    +0.000 A 
ATOM      7  C   UNL     1      45.722   3.381   8.247  0.00  0.00    +0.000 A 
ATOM      8  C   UNL     1      45.792   4.678   8.793  0.00  0.00    +0.000 A 
BRANCH   7   9
ATOM      9  C   UNL     1      46.511   3.087   7.014  0.00  0.00    +0.000 C 
ATOM     10  N   UNL     1      47.146   1.879   6.913  0.00  0.00    +0.000 N 
ATOM     11  O   UNL     1      46.613   3.906   6.106  0.00  0.00    +0.000 OA
ATOM     12  H   UNL     1      47.172   1.170   7.627  0.00  0.00    +0.000 HD
ATOM     13  H   UNL     1      47.707   1.728   6.084  0.00  0.00    +0.000 HD
ENDBRANCH   7   9
ENDBRANCH   1   3
BRANCH   1  14
ATOM     14  C   UNL     1      44.274   6.655  11.576  0.00  0.00    +0.000 C 
BRANCH  14  15
ATOM     15  C   UNL     1      45.005   7.133  12.836  0.00  0.00    +0.000 C 
BRANCH  15  21
ATOM     16  C   UNL     1      48.334   8.754  11.871  0.00  0.00    +0.000 A 
ATOM     17  C   UNL     1      49.239   7.714  12.088  0.00  0.00    +0.000 A 
ATOM     18  C   UNL     1      48.787   6.487  12.578  0.00  0.00    +0.000 A 
ATOM     19  C   UNL     1      47.426   6.287  12.838  0.00  0.00    +0.000 A 
ATOM     20 CL   UNL     1      46.952   4.746  13.454  0.00  0.00    +0.000 Cl
ATOM     21  C   UNL     1      46.493   7.311  12.602  0.00  0.00    +0.000 A 
ATOM     22  C   UNL     1      46.971   8.554  12.136  0.00  0.00    +0.000 A 
BRANCH  16  24
ATOM     23  N   UNL     1      49.170  11.039  10.964  0.00  0.00    +0.000 NA
ATOM     24  C   UNL     1      48.798  10.018  11.370  0.00  0.00    +0.000 C 
ENDBRANCH  16  24
ENDBRANCH  15  21
ENDBRANCH  14  15
ENDBRANCH   1  14
TORSDOF 6
ENDMDL
