MODEL 1
REMARK VINA RESULT:    -7.438      0.000      0.000
REMARK INTER + INTRA:         -10.923
REMARK INTER:                  -9.612
REMARK INTRA:                  -1.311
REMARK UNBOUND:                -1.311
REMARK  Name = 
REMARK  6 active torsions:
REMARK  status: ('A' for Active; 'I' for Inactive)
REMARK    1  A    between atoms: C_1  and  C_2
REMARK    2  A    between atoms: C_2  and  N_3
REMARK    3  A    between atoms: C_2  and  C_16
REMARK    4  A    between atoms: C_4  and  C_6
REMARK    5  A    between atoms: C_19  and  O_20
REMARK    6  A    between atoms: O_20  and  C_21
REMARK                            x       y       z     vdW  Elec       q    Type
REMARK                         _______ _______ _______ _____ _____    ______ ____
ROOT
ATOM      1  C   UNL     1      48.371   9.204  12.994  0.00  0.00    +0.000 C 
ATOM      2  C   UNL     1      47.517   8.237  13.819  0.00  0.00    +0.000 C 
ENDROOT
BRANCH   2   3
ATOM      3  C   UNL     1      46.583   7.383  12.979  0.00  0.00    +0.000 A 
ATOM      4  C   UNL     1      45.573   8.015  12.237  0.00  0.00    +0.000 A 
ATOM      5  C   UNL     1      44.700   7.269  11.442  0.00  0.00    +0.000 A 
ATOM      6  C   UNL     1      44.860   5.887  11.329  0.00  0.00    +0.000 A 
ATOM      7  C   UNL     1      45.813   5.242  12.115  0.00  0.00    +0.000 A 
ATOM      8  C   UNL     1      46.659   5.983  12.945  0.00  0.00    +0.000 A 
BRANCH   6   9
ATOM      9  O   UNL     1      44.102   5.078  10.514  0.00  0.00    +0.000 OA
BRANCH   9  10
ATOM     10  C   UNL     1      44.725   4.219   9.636  0.00  0.00    +0.000 A 
ATOM     11  C   UNL     1      45.618   4.626   8.638  0.00  0.00    +0.000 A 
ATOM     12  C   UNL     1      46.139   3.694   7.738  0.00  0.00    +0.000 A 
ATOM     13  C   UNL     1      45.832   2.341   7.877  0.00  0.00    +0.000 A 
ATOM     14  C   UNL     1      45.014   1.919   8.925  0.00  0.00    +0.000 A 
ATOM     15  C   UNL     1      44.466   2.858   9.796  0.00  0.00    +0.000 A 
ATOM     16  F   UNL     1      43.676   2.430  10.792  0.00  0.00    +0.000 F 
ENDBRANCH   9  10
ENDBRANCH   6   9
ENDBRANCH   2   3
BRANCH   2  17
ATOM     17  N   UNL     1      48.348   7.380  14.642  0.00  0.00    +0.000 N 
ATOM     18  C   UNL     1      48.719   7.722  15.915  0.00  0.00    +0.000 C 
ATOM     19  O   UNL     1      48.336   8.767  16.434  0.00  0.00    +0.000 OA
ATOM     20  H   UNL     1      48.696   6.529  14.211  0.00  0.00    +0.000 HD
BRANCH  18  21
ATOM     21  C   UNL     1      49.596   6.789  16.643  0.00  0.00    +0.000 A 
ATOM     22  C   UNL     1      50.792   7.263  17.168  0.00  0.00    +0.000 A 
ATOM     23  S   UNL     1      51.714   6.078  17.971  0.00  0.00    +0.000 S 
ATOM     24  C   UNL     1      50.555   4.879  17.641  0.00  0.00    +0.000 A 
ATOM     25  N   UNL     1      50.752   3.597  18.045  0.00  0.00    +0.000 NA
ATOM     26  C   UNL     1      49.801   2.783  17.733  0.00  0.00    +0.000 A 
ATOM     27  N   UNL     1      48.660   3.141  17.061  0.00  0.00    +0.000 N 
ATOM     28  C   UNL     1      48.416   4.423  16.634  0.00  0.00    +0.000 A 
ATOM     29  O   UNL     1      47.384   4.702  16.029  0.00  0.00    +0.000 OA
ATOM     30  C   UNL     1      49.466   5.378  16.945  0.00  0.00    +0.000 A 
ATOM     31  H   UNL     1      47.947   2.457  16.856  0.00  0.00    +0.000 HD
ENDBRANCH  18  21
ENDBRANCH   2  17
TORSDOF 5
ENDMDL
MODEL 2
REMARK VINA RESULT:    -7.359      1.951      2.973
REMARK INTER + INTRA:         -10.821
REMARK INTER:                 -10.573
REMARK INTRA:                  -0.248
REMARK UNBOUND:                -1.311
REMARK  Name = 
REMARK  6 active torsions:
REMARK  status: ('A' for Active; 'I' for Inactive)
REMARK    1  A    between atoms: C_1  and  C_2
REMARK    2  A    between atoms: C_2  and  N_3
REMARK    3  A    between atoms: C_2  and  C_16
REMARK    4  A    between atoms: C_4  and  C_6
REMARK    5  A    between atoms: C_19  and  O_20
REMARK    6  A    between atoms: O_20  and  C_21
REMARK                            x       y       z     vdW  Elec       q    Type
REMARK                         _______ _______ _______ _____ _____    ______ ____
ROOT
ATOM      1  C   UNL     1      46.125   8.212  12.465  0.00  0.00    +0.000 C 
ATOM      2  C   UNL     1      45.305   6.950  12.749  0.00  0.00    +0.000 C 
ENDROOT
BRANCH   2   3
ATOM      3  C   UNL     1      45.137   6.050  11.537  0.00  0.00    +0.000 A 
ATOM      4  C   UNL     1      44.134   5.069  11.556  0.00  0.00    +0.000 A 
ATOM      5  C   UNL     1      43.938   4.227  10.459  0.00  0.00    +0.000 A 
ATOM      6  C   UNL     1      44.702   4.392   9.303  0.00  0.00    +0.000 A 
ATOM      7  C   UNL     1      45.747   5.314   9.299  0.00  0.00    +0.000 A 
ATOM      8  C   UNL     1      45.972   6.127  10.413  0.00  0.00    +0.000 A 
BRANCH   6   9
ATOM      9  O   UNL     1      44.533   3.666   8.146  0.00  0.00    +0.000 OA
BRANCH   9  10
ATOM     10  C   UNL     1      45.590   2.950   7.630  0.00  0.00    +0.000 A 
ATOM     11  C   UNL     1      46.452   3.426   6.636  0.00  0.00    +0.000 A 
ATOM     12  C   UNL     1      47.447   2.599   6.114  0.00  0.00    +0.000 A 
ATOM     13  C   UNL     1      47.638   1.320   6.634  0.00  0.00    +0.000 A 
ATOM     14  C   UNL     1      46.840   0.873   7.687  0.00  0.00    +0.000 A 
ATOM     15  C   UNL     1      45.823   1.688   8.178  0.00  0.00    +0.000 A 
ATOM     16  F   UNL     1      45.063   1.235   9.185  0.00  0.00    +0.000 F 
ENDBRANCH   9  10
ENDBRANCH   6   9
ENDBRANCH   2   3
BRANCH   2  17
ATOM     17  N   UNL     1      45.880   6.190  13.841  0.00  0.00    +0.000 N 
ATOM     18  C   UNL     1      47.232   6.013  13.978  0.00  0.00    +0.000 C 
ATOM     19  O   UNL     1      48.027   6.519  13.190  0.00  0.00    +0.000 OA
ATOM     20  H   UNL     1      45.231   5.742  14.480  0.00  0.00    +0.000 HD
BRANCH  18  21
ATOM     21  C   UNL     1      47.699   5.192  15.107  0.00  0.00    +0.000 A 
ATOM     22  C   UNL     1      47.285   3.867  15.191  0.00  0.00    +0.000 A 
ATOM     23  S   UNL     1      47.887   3.038  16.551  0.00  0.00    +0.000 S 
ATOM     24  C   UNL     1      48.721   4.419  17.088  0.00  0.00    +0.000 A 
ATOM     25  N   UNL     1      49.437   4.389  18.243  0.00  0.00    +0.000 NA
ATOM     26  C   UNL     1      50.021   5.499  18.542  0.00  0.00    +0.000 A 
ATOM     27  N   UNL     1      49.963   6.639  17.780  0.00  0.00    +0.000 N 
ATOM     28  C   UNL     1      49.254   6.717  16.607  0.00  0.00    +0.000 A 
ATOM     29  O   UNL     1      49.221   7.758  15.956  0.00  0.00    +0.000 OA
ATOM     30  C   UNL     1      48.560   5.496  16.232  0.00  0.00    +0.000 A 
ATOM     31  H   UNL     1      50.452   7.475  18.064  0.00  0.00    +0.000 HD
ENDBRANCH  18  21
ENDBRANCH   2  17
TORSDOF 5
ENDMDL
MODEL 3
REMARK VINA RESULT:    -7.101      1.683      1.829
REMARK INTER + INTRA:         -10.488
REMARK INTER:                  -9.309
REMARK INTRA:                  -1.179
REMARK UNBOUND:                -1.311
REMARK  Name = 
REMARK  6 active torsions:
REMARK  status: ('A' for Active; 'I' for Inactive)
REMARK    1  A    between atoms: C_1  and  C_2
REMARK    2  A    between atoms: C_2  and  N_3
REMARK    3  A    between atoms: C_2  and  C_16
REMARK    4  A    between atoms: C_4  and  C_6
REMARK    5  A    between atoms: C_19  and  O_20
REMARK    6  A    between atoms: O_20  and  C_21
REMARK                            x       y       z     vdW  Elec       q    Type
REMARK                         _______ _______ _______ _____ _____    ______ ____
ROOT
ATOM      1  C   UNL     1      49.513   7.958  13.175  0.00  0.00    +0.000 C 
ATOM      2  C   UNL     1      48.099   8.111  13.743  0.00  0.00    +0.000 C 
ENDROOT
BRANCH   2   3
ATOM      3  C   UNL     1      47.049   7.323  12.979  0.00  0.00    +0.000 A 
ATOM      4  C   UNL     1      46.123   8.019  12.188  0.00  0.00    +0.000 A 
ATOM      5  C   UNL     1      45.148   7.333  11.460  0.00  0.00    +0.000 A 
ATOM      6  C   UNL     1      45.121   5.938  11.464  0.00  0.00    +0.000 A 
ATOM      7  C   UNL     1      45.990   5.239  12.301  0.00  0.00    +0.000 A 
ATOM      8  C   UNL     1      46.937   5.927  13.063  0.00  0.00    +0.000 A 
BRANCH   6   9
ATOM      9  O   UNL     1      44.252   5.172  10.722  0.00  0.00    +0.000 OA
BRANCH   9  10
ATOM     10  C   UNL     1      44.748   4.277   9.800  0.00  0.00    +0.000 A 
ATOM     11  C   UNL     1      45.584   4.627   8.735  0.00  0.00    +0.000 A 
ATOM     12  C   UNL     1      45.973   3.667   7.800  0.00  0.00    +0.000 A 
ATOM     13  C   UNL     1      45.591   2.336   7.966  0.00  0.00    +0.000 A 
ATOM     14  C   UNL     1      44.833   1.964   9.075  0.00  0.00    +0.000 A 
ATOM     15  C   UNL     1      44.416   2.934   9.984  0.00  0.00    +0.000 A 
ATOM     16  F   UNL     1      43.680   2.556  11.039  0.00  0.00    +0.000 F 
ENDBRANCH   9  10
ENDBRANCH   6   9
ENDBRANCH   2   3
BRANCH   2  17
ATOM     17  N   UNL     1      48.059   7.741  15.144  0.00  0.00    +0.000 N 
ATOM     18  C   UNL     1      48.445   8.598  16.140  0.00  0.00    +0.000 C 
ATOM     19  O   UNL     1      48.819   9.741  15.891  0.00  0.00    +0.000 OA
ATOM     20  H   UNL     1      47.780   6.788  15.359  0.00  0.00    +0.000 HD
BRANCH  18  21
ATOM     21  C   UNL     1      48.395   8.100  17.524  0.00  0.00    +0.000 A 
ATOM     22  C   UNL     1      47.920   8.941  18.525  0.00  0.00    +0.000 A 
ATOM     23  S   UNL     1      47.930   8.244  20.078  0.00  0.00    +0.000 S 
ATOM     24  C   UNL     1      48.578   6.791  19.479  0.00  0.00    +0.000 A 
ATOM     25  N   UNL     1      48.858   5.761  20.319  0.00  0.00    +0.000 NA
ATOM     26  C   UNL     1      49.347   4.716  19.742  0.00  0.00    +0.000 A 
ATOM     27  N   UNL     1      49.571   4.604  18.394  0.00  0.00    +0.000 N 
ATOM     28  C   UNL     1      49.304   5.617  17.506  0.00  0.00    +0.000 A 
ATOM     29  O   UNL     1      49.525   5.480  16.306  0.00  0.00    +0.000 OA
ATOM     30  C   UNL     1      48.767   6.826  18.107  0.00  0.00    +0.000 A 
ATOM     31  H   UNL     1      49.948   3.753  18.002  0.00  0.00    +0.000 HD
ENDBRANCH  18  21
ENDBRANCH   2  17
TORSDOF 5
ENDMDL
MODEL 4
REMARK VINA RESULT:    -7.050      1.918      2.088
REMARK INTER + INTRA:         -10.422
REMARK INTER:                  -9.440
REMARK INTRA:                  -0.982
REMARK UNBOUND:                -1.311
REMARK  Name = 
REMARK  6 active torsions:
REMARK  status: ('A' for Active; 'I' for Inactive)
REMARK    1  A    between atoms: C_1  and  C_2
REMARK    2  A    between atoms: C_2  and  N_3
REMARK    3  A    between atoms: C_2  and  C_16
REMARK    4  A    between atoms: C_4  and  C_6
REMARK    5  A    between atoms: C_19  and  O_20
REMARK    6  A    between atoms: O_20  and  C_21
REMARK                            x       y       z     vdW  Elec       q    Type
REMARK                         _______ _______ _______ _____ _____    ______ ____
ROOT
ATOM      1  C   UNL     1      49.397   7.934  13.357  0.00  0.00    +0.000 C 
ATOM      2  C   UNL     1      48.117   7.558  14.109  0.00  0.00    +0.000 C 
ENDROOT
BRANCH   2   3
ATOM      3  C   UNL     1      47.074   6.884  13.234  0.00  0.00    +0.000 A 
ATOM      4  C   UNL     1      46.344   7.666  12.326  0.00  0.00    +0.000 A 
ATOM      5  C   UNL     1      45.384   7.086  11.494  0.00  0.00    +0.000 A 
ATOM      6  C   UNL     1      45.181   5.705  11.514  0.00  0.00    +0.000 A 
ATOM      7  C   UNL     1      45.849   4.929  12.460  0.00  0.00    +0.000 A 
ATOM      8  C   UNL     1      46.778   5.516  13.323  0.00  0.00    +0.000 A 
BRANCH   6   9
ATOM      9  O   UNL     1      44.317   5.031  10.682  0.00  0.00    +0.000 OA
BRANCH   9  10
ATOM     10  C   UNL     1      44.817   4.167   9.734  0.00  0.00    +0.000 A 
ATOM     11  C   UNL     1      45.634   4.557   8.667  0.00  0.00    +0.000 A 
ATOM     12  C   UNL     1      46.028   3.625   7.706  0.00  0.00    +0.000 A 
ATOM     13  C   UNL     1      45.673   2.284   7.846  0.00  0.00    +0.000 A 
ATOM     14  C   UNL     1      44.935   1.873   8.955  0.00  0.00    +0.000 A 
ATOM     15  C   UNL     1      44.512   2.815   9.891  0.00  0.00    +0.000 A 
ATOM     16  F   UNL     1      43.796   2.398  10.946  0.00  0.00    +0.000 F 
ENDBRANCH   9  10
ENDBRANCH   6   9
ENDBRANCH   2   3
BRANCH   2  17
ATOM     17  N   UNL     1      48.413   6.712  15.249  0.00  0.00    +0.000 N 
ATOM     18  C   UNL     1      48.898   7.214  16.427  0.00  0.00    +0.000 C 
ATOM     19  O   UNL     1      49.079   8.418  16.583  0.00  0.00    +0.000 OA
ATOM     20  H   UNL     1      48.297   5.711  15.120  0.00  0.00    +0.000 HD
BRANCH  18  21
ATOM     21  C   UNL     1      49.197   6.255  17.504  0.00  0.00    +0.000 A 
ATOM     22  C   UNL     1      50.145   5.263  17.276  0.00  0.00    +0.000 A 
ATOM     23  S   UNL     1      50.382   4.215  18.597  0.00  0.00    +0.000 S 
ATOM     24  C   UNL     1      49.220   5.039  19.525  0.00  0.00    +0.000 A 
ATOM     25  N   UNL     1      48.918   4.622  20.783  0.00  0.00    +0.000 NA
ATOM     26  C   UNL     1      48.020   5.330  21.381  0.00  0.00    +0.000 A 
ATOM     27  N   UNL     1      47.404   6.428  20.838  0.00  0.00    +0.000 N 
ATOM     28  C   UNL     1      47.677   6.887  19.573  0.00  0.00    +0.000 A 
ATOM     29  O   UNL     1      47.100   7.872  19.119  0.00  0.00    +0.000 OA
ATOM     30  C   UNL     1      48.670   6.114  18.846  0.00  0.00    +0.000 A 
ATOM     31  H   UNL     1      46.715   6.947  21.363  0.00  0.00    +0.000 HD
ENDBRANCH  18  21
ENDBRANCH   2  17
TORSDOF 5
ENDMDL
MODEL 5
REMARK VINA RESULT:    -6.925      2.624      4.103
REMARK INTER + INTRA:         -10.260
REMARK INTER:                  -9.002
REMARK INTRA:                  -1.258
REMARK UNBOUND:                -1.311
REMARK  Name = 
REMARK  6 active torsions:
REMARK  status: ('A' for Active; 'I' for Inactive)
REMARK    1  A    between atoms: C_1  and  C_2
REMARK    2  A    between atoms: C_2  and  N_3
REMARK    3  A    between atoms: C_2  and  C_16
REMARK    4  A    between atoms: C_4  and  C_6
REMARK    5  A    between atoms: C_19  and  O_20
REMARK    6  A    between atoms: O_20  and  C_21
REMARK                            x       y       z     vdW  Elec       q    Type
REMARK                         _______ _______ _______ _____ _____    ______ ____
ROOT
ATOM      1  C   UNL     1      47.435   4.390  16.273  0.00  0.00    +0.000 C 
ATOM      2  C   UNL     1      47.850   5.177  15.026  0.00  0.00    +0.000 C 
ENDROOT
BRANCH   2   3
ATOM      3  C   UNL     1      46.962   4.916  13.821  0.00  0.00    +0.000 A 
ATOM      4  C   UNL     1      46.702   5.971  12.932  0.00  0.00    +0.000 A 
ATOM      5  C   UNL     1      45.900   5.773  11.806  0.00  0.00    +0.000 A 
ATOM      6  C   UNL     1      45.396   4.504  11.517  0.00  0.00    +0.000 A 
ATOM      7  C   UNL     1      45.589   3.468  12.429  0.00  0.00    +0.000 A 
ATOM      8  C   UNL     1      46.354   3.676  13.579  0.00  0.00    +0.000 A 
BRANCH   6   9
ATOM      9  O   UNL     1      44.663   4.192  10.395  0.00  0.00    +0.000 OA
BRANCH   9  10
ATOM     10  C   UNL     1      45.256   3.495   9.366  0.00  0.00    +0.000 A 
ATOM     11  C   UNL     1      45.178   2.107   9.208  0.00  0.00    +0.000 A 
ATOM     12  C   UNL     1      45.880   1.476   8.181  0.00  0.00    +0.000 A 
ATOM     13  C   UNL     1      46.601   2.233   7.258  0.00  0.00    +0.000 A 
ATOM     14  C   UNL     1      46.608   3.624   7.357  0.00  0.00    +0.000 A 
ATOM     15  C   UNL     1      45.938   4.246   8.408  0.00  0.00    +0.000 A 
ATOM     16  F   UNL     1      45.965   5.585   8.488  0.00  0.00    +0.000 F 
ENDBRANCH   9  10
ENDBRANCH   6   9
ENDBRANCH   2   3
BRANCH   2  17
ATOM     17  N   UNL     1      47.891   6.600  15.299  0.00  0.00    +0.000 N 
ATOM     18  C   UNL     1      49.066   7.301  15.362  0.00  0.00    +0.000 C 
ATOM     19  O   UNL     1      50.148   6.755  15.159  0.00  0.00    +0.000 OA
ATOM     20  H   UNL     1      47.005   7.054  15.499  0.00  0.00    +0.000 HD
BRANCH  18  21
ATOM     21  C   UNL     1      48.987   8.736  15.682  0.00  0.00    +0.000 A 
ATOM     22  C   UNL     1      49.457   9.658  14.754  0.00  0.00    +0.000 A 
ATOM     23  S   UNL     1      49.319  11.278  15.257  0.00  0.00    +0.000 S 
ATOM     24  C   UNL     1      48.632  10.813  16.741  0.00  0.00    +0.000 A 
ATOM     25  N   UNL     1      48.294  11.747  17.669  0.00  0.00    +0.000 NA
ATOM     26  C   UNL     1      47.785  11.267  18.752  0.00  0.00    +0.000 A 
ATOM     27  N   UNL     1      47.571   9.933  18.987  0.00  0.00    +0.000 N 
ATOM     28  C   UNL     1      47.895   8.954  18.080  0.00  0.00    +0.000 A 
ATOM     29  O   UNL     1      47.693   7.768  18.330  0.00  0.00    +0.000 OA
ATOM     30  C   UNL     1      48.490   9.440  16.847  0.00  0.00    +0.000 A 
ATOM     31  H   UNL     1      47.157   9.621  19.854  0.00  0.00    +0.000 HD
ENDBRANCH  18  21
ENDBRANCH   2  17
TORSDOF 5
ENDMDL
MODEL 6
REMARK VINA RESULT:    -6.866      3.745      7.952
REMARK INTER + INTRA:         -10.184
REMARK INTER:                  -9.082
REMARK INTRA:                  -1.102
REMARK UNBOUND:                -1.311
REMARK  Name = 
REMARK  6 active torsions:
REMARK  status: ('A' for Active; 'I' for Inactive)
REMARK    1  A    between atoms: C_1  and  C_2
REMARK    2  A    between atoms: C_2  and  N_3
REMARK    3  A    between atoms: C_2  and  C_16
REMARK    4  A    between atoms: C_4  and  C_6
REMARK    5  A    between atoms: C_19  and  O_20
REMARK    6  A    between atoms: O_20  and  C_21
REMARK                            x       y       z     vdW  Elec       q    Type
REMARK                         _______ _______ _______ _____ _____    ______ ____
ROOT
ATOM      1  C   UNL     1      48.845   9.456  15.354  0.00  0.00    +0.000 C 
ATOM      2  C   UNL     1      49.038   8.066  14.738  0.00  0.00    +0.000 C 
ENDROOT
BRANCH   2   3
ATOM      3  C   UNL     1      49.561   7.034  15.723  0.00  0.00    +0.000 A 
ATOM      4  C   UNL     1      50.947   6.909  15.899  0.00  0.00    +0.000 A 
ATOM      5  C   UNL     1      51.471   5.980  16.801  0.00  0.00    +0.000 A 
ATOM      6  C   UNL     1      50.616   5.205  17.585  0.00  0.00    +0.000 A 
ATOM      7  C   UNL     1      49.240   5.270  17.368  0.00  0.00    +0.000 A 
ATOM      8  C   UNL     1      48.718   6.168  16.434  0.00  0.00    +0.000 A 
BRANCH   6   9
ATOM      9  O   UNL     1      51.032   4.321  18.554  0.00  0.00    +0.000 OA
BRANCH   9  10
ATOM     10  C   UNL     1      51.906   3.309  18.223  0.00  0.00    +0.000 A 
ATOM     11  C   UNL     1      53.282   3.343  18.473  0.00  0.00    +0.000 A 
ATOM     12  C   UNL     1      54.104   2.308  18.027  0.00  0.00    +0.000 A 
ATOM     13  C   UNL     1      53.548   1.195  17.398  0.00  0.00    +0.000 A 
ATOM     14  C   UNL     1      52.166   1.113  17.226  0.00  0.00    +0.000 A 
ATOM     15  C   UNL     1      51.355   2.168  17.638  0.00  0.00    +0.000 A 
ATOM     16  F   UNL     1      50.030   2.071  17.456  0.00  0.00    +0.000 F 
ENDBRANCH   9  10
ENDBRANCH   6   9
ENDBRANCH   2   3
BRANCH   2  17
ATOM     17  N   UNL     1      47.807   7.587  14.142  0.00  0.00    +0.000 N 
ATOM     18  C   UNL     1      47.794   6.687  13.109  0.00  0.00    +0.000 C 
ATOM     19  O   UNL     1      48.836   6.218  12.657  0.00  0.00    +0.000 OA
ATOM     20  H   UNL     1      46.942   7.991  14.487  0.00  0.00    +0.000 HD
BRANCH  18  21
ATOM     21  C   UNL     1      46.485   6.299  12.559  0.00  0.00    +0.000 A 
ATOM     22  C   UNL     1      45.686   7.276  11.975  0.00  0.00    +0.000 A 
ATOM     23  S   UNL     1      44.195   6.695  11.394  0.00  0.00    +0.000 S 
ATOM     24  C   UNL     1      44.553   5.114  11.907  0.00  0.00    +0.000 A 
ATOM     25  N   UNL     1      43.656   4.109  11.726  0.00  0.00    +0.000 NA
ATOM     26  C   UNL     1      44.045   2.958  12.160  0.00  0.00    +0.000 A 
ATOM     27  N   UNL     1      45.260   2.718  12.748  0.00  0.00    +0.000 N 
ATOM     28  C   UNL     1      46.198   3.700  12.951  0.00  0.00    +0.000 A 
ATOM     29  O   UNL     1      47.274   3.446  13.488  0.00  0.00    +0.000 OA
ATOM     30  C   UNL     1      45.803   5.023  12.497  0.00  0.00    +0.000 A 
ATOM     31  H   UNL     1      45.510   1.790  13.058  0.00  0.00    +0.000 HD
ENDBRANCH  18  21
ENDBRANCH   2  17
TORSDOF 5
ENDMDL
MODEL 7
REMARK VINA RESULT:    -6.758      1.530      2.036
REMARK INTER + INTRA:         -10.044
REMARK INTER:                  -8.717
REMARK INTRA:                  -1.328
REMARK UNBOUND:                -1.311
REMARK  Name = 
REMARK  6 active torsions:
REMARK  status: ('A' for Active; 'I' for Inactive)
REMARK    1  A    between atoms: C_1  and  C_2
REMARK    2  A    between atoms: C_2  and  N_3
REMARK    3  A    between atoms: C_2  and  C_16
REMARK    4  A    between atoms: C_4  and  C_6
REMARK    5  A    between atoms: C_19  and  O_20
REMARK    6  A    between atoms: O_20  and  C_21
REMARK                            x       y       z     vdW  Elec       q    Type
REMARK                         _______ _______ _______ _____ _____    ______ ____
ROOT
ATOM      1  C   UNL     1      49.697   8.272  12.918  0.00  0.00    +0.000 C 
ATOM      2  C   UNL     1      48.561   7.814  13.836  0.00  0.00    +0.000 C 
ENDROOT
BRANCH   2   3
ATOM      3  C   UNL     1      47.422   7.130  13.099  0.00  0.00    +0.000 A 
ATOM      4  C   UNL     1      46.640   7.886  12.213  0.00  0.00    +0.000 A 
ATOM      5  C   UNL     1      45.590   7.295  11.506  0.00  0.00    +0.000 A 
ATOM      6  C   UNL     1      45.345   5.927  11.627  0.00  0.00    +0.000 A 
ATOM      7  C   UNL     1      46.069   5.182  12.557  0.00  0.00    +0.000 A 
ATOM      8  C   UNL     1      47.091   5.782  13.297  0.00  0.00    +0.000 A 
BRANCH   6   9
ATOM      9  O   UNL     1      44.387   5.239  10.917  0.00  0.00    +0.000 OA
BRANCH   9  10
ATOM     10  C   UNL     1      44.772   4.333   9.954  0.00  0.00    +0.000 A 
ATOM     11  C   UNL     1      45.553   4.655   8.838  0.00  0.00    +0.000 A 
ATOM     12  C   UNL     1      45.826   3.690   7.869  0.00  0.00    +0.000 A 
ATOM     13  C   UNL     1      45.386   2.378   8.045  0.00  0.00    +0.000 A 
ATOM     14  C   UNL     1      44.685   2.030   9.199  0.00  0.00    +0.000 A 
ATOM     15  C   UNL     1      44.382   3.008  10.144  0.00  0.00    +0.000 A 
ATOM     16  F   UNL     1      43.700   2.652  11.243  0.00  0.00    +0.000 F 
ENDBRANCH   9  10
ENDBRANCH   6   9
ENDBRANCH   2   3
BRANCH   2  17
ATOM     17  N   UNL     1      49.057   6.938  14.880  0.00  0.00    +0.000 N 
ATOM     18  C   UNL     1      48.968   7.258  16.209  0.00  0.00    +0.000 C 
ATOM     19  O   UNL     1      48.432   8.299  16.582  0.00  0.00    +0.000 OA
ATOM     20  H   UNL     1      49.529   6.090  14.581  0.00  0.00    +0.000 HD
BRANCH  18  21
ATOM     21  C   UNL     1      49.538   6.308  17.178  0.00  0.00    +0.000 A 
ATOM     22  C   UNL     1      48.696   5.713  18.111  0.00  0.00    +0.000 A 
ATOM     23  S   UNL     1      49.487   4.648  19.178  0.00  0.00    +0.000 S 
ATOM     24  C   UNL     1      50.990   4.944  18.441  0.00  0.00    +0.000 A 
ATOM     25  N   UNL     1      52.118   4.345  18.906  0.00  0.00    +0.000 NA
ATOM     26  C   UNL     1      53.194   4.653  18.264  0.00  0.00    +0.000 A 
ATOM     27  N   UNL     1      53.241   5.501  17.187  0.00  0.00    +0.000 N 
ATOM     28  C   UNL     1      52.129   6.128  16.681  0.00  0.00    +0.000 A 
ATOM     29  O   UNL     1      52.213   6.886  15.718  0.00  0.00    +0.000 OA
ATOM     30  C   UNL     1      50.891   5.830  17.381  0.00  0.00    +0.000 A 
ATOM     31  H   UNL     1      54.115   5.694  16.719  0.00  0.00    +0.000 HD
ENDBRANCH  18  21
ENDBRANCH   2  17
TORSDOF 5
ENDMDL
MODEL 8
REMARK VINA RESULT:    -6.658      2.240      4.311
REMARK INTER + INTRA:          -9.916
REMARK INTER:                  -8.607
REMARK INTRA:                  -1.308
REMARK UNBOUND:                -1.311
REMARK  Name = 
REMARK  6 active torsions:
REMARK  status: ('A' for Active; 'I' for Inactive)
REMARK    1  A    between atoms: C_1  and  C_2
REMARK    2  A    between atoms: C_2  and  N_3
REMARK    3  A    between atoms: C_2  and  C_16
REMARK    4  A    between atoms: C_4  and  C_6
REMARK    5  A    between atoms: C_19  and  O_20
REMARK    6  A    between atoms: O_20  and  C_21
REMARK                            x       y       z     vdW  Elec       q    Type
REMARK                         _______ _______ _______ _____ _____    ______ ____
ROOT
ATOM      1  C   UNL     1      47.152   4.298  16.831  0.00  0.00    +0.000 C 
ATOM      2  C   UNL     1      47.815   4.934  15.605  0.00  0.00    +0.000 C 
ENDROOT
BRANCH   2   3
ATOM      3  C   UNL     1      46.998   4.793  14.332  0.00  0.00    +0.000 A 
ATOM      4  C   UNL     1      46.746   3.508  13.829  0.00  0.00    +0.000 A 
ATOM      5  C   UNL     1      45.990   3.331  12.668  0.00  0.00    +0.000 A 
ATOM      6  C   UNL     1      45.424   4.433  12.025  0.00  0.00    +0.000 A 
ATOM      7  C   UNL     1      45.727   5.718  12.474  0.00  0.00    +0.000 A 
ATOM      8  C   UNL     1      46.519   5.897  13.611  0.00  0.00    +0.000 A 
BRANCH   6   9
ATOM      9  O   UNL     1      44.603   4.357  10.923  0.00  0.00    +0.000 OA
BRANCH   9  10
ATOM     10  C   UNL     1      45.049   3.724   9.784  0.00  0.00    +0.000 A 
ATOM     11  C   UNL     1      44.809   2.377   9.487  0.00  0.00    +0.000 A 
ATOM     12  C   UNL     1      45.370   1.797   8.349  0.00  0.00    +0.000 A 
ATOM     13  C   UNL     1      46.110   2.576   7.460  0.00  0.00    +0.000 A 
ATOM     14  C   UNL     1      46.276   3.939   7.704  0.00  0.00    +0.000 A 
ATOM     15  C   UNL     1      45.747   4.503   8.862  0.00  0.00    +0.000 A 
ATOM     16  F   UNL     1      45.926   5.815   9.080  0.00  0.00    +0.000 F 
ENDBRANCH   9  10
ENDBRANCH   6   9
ENDBRANCH   2   3
BRANCH   2  17
ATOM     17  N   UNL     1      48.107   6.335  15.841  0.00  0.00    +0.000 N 
ATOM     18  C   UNL     1      49.357   6.775  16.187  0.00  0.00    +0.000 C 
ATOM     19  O   UNL     1      50.303   5.998  16.286  0.00  0.00    +0.000 OA
ATOM     20  H   UNL     1      47.325   6.981  15.791  0.00  0.00    +0.000 HD
BRANCH  18  21
ATOM     21  C   UNL     1      49.527   8.216  16.436  0.00  0.00    +0.000 A 
ATOM     22  C   UNL     1      50.027   8.630  17.666  0.00  0.00    +0.000 A 
ATOM     23  S   UNL     1      50.159  10.320  17.826  0.00  0.00    +0.000 S 
ATOM     24  C   UNL     1      49.545  10.568  16.260  0.00  0.00    +0.000 A 
ATOM     25  N   UNL     1      49.376  11.826  15.775  0.00  0.00    +0.000 NA
ATOM     26  C   UNL     1      48.901  11.880  14.577  0.00  0.00    +0.000 A 
ATOM     27  N   UNL     1      48.591  10.784  13.812  0.00  0.00    +0.000 N 
ATOM     28  C   UNL     1      48.745   9.495  14.259  0.00  0.00    +0.000 A 
ATOM     29  O   UNL     1      48.449   8.539  13.545  0.00  0.00    +0.000 OA
ATOM     30  C   UNL     1      49.260   9.377  15.612  0.00  0.00    +0.000 A 
ATOM     31  H   UNL     1      48.231  10.894  12.875  0.00  0.00    +0.000 HD
ENDBRANCH  18  21
ENDBRANCH   2  17
TORSDOF 5
ENDMDL
MODEL 9
REMARK VINA RESULT:    -6.565      2.730      3.495
REMARK INTER + INTRA:          -9.795
REMARK INTER:                  -8.554
REMARK INTRA:                  -1.241
REMARK UNBOUND:                -1.311
REMARK  Name = 
REMARK  6 active torsions:
REMARK  status: ('A' for Active; 'I' for Inactive)
REMARK    1  A    between atoms: C_1  and  C_2
REMARK    2  A    between atoms: C_2  and  N_3
REMARK    3  A    between atoms: C_2  and  C_16
REMARK    4  A    between atoms: C_4  and  C_6
REMARK    5  A    between atoms: C_19  and  O_20
REMARK    6  A    between atoms: O_20  and  C_21
REMARK                            x       y       z     vdW  Elec       q    Type
REMARK                         _______ _______ _______ _____ _____    ______ ____
ROOT
ATOM      1  C   UNL     1      47.531   3.641  16.347  0.00  0.00    +0.000 C 
ATOM      2  C   UNL     1      47.950   4.838  15.488  0.00  0.00    +0.000 C 
ENDROOT
BRANCH   2   3
ATOM      3  C   UNL     1      47.074   5.043  14.264  0.00  0.00    +0.000 A 
ATOM      4  C   UNL     1      47.382   6.088  13.380  0.00  0.00    +0.000 A 
ATOM      5  C   UNL     1      46.610   6.306  12.236  0.00  0.00    +0.000 A 
ATOM      6  C   UNL     1      45.557   5.444  11.926  0.00  0.00    +0.000 A 
ATOM      7  C   UNL     1      45.199   4.447  12.833  0.00  0.00    +0.000 A 
ATOM      8  C   UNL     1      45.943   4.257  13.999  0.00  0.00    +0.000 A 
BRANCH   6   9
ATOM      9  O   UNL     1      44.789   5.528  10.787  0.00  0.00    +0.000 OA
BRANCH   9  10
ATOM     10  C   UNL     1      45.099   4.746   9.697  0.00  0.00    +0.000 A 
ATOM     11  C   UNL     1      46.095   5.055   8.764  0.00  0.00    +0.000 A 
ATOM     12  C   UNL     1      46.284   4.246   7.643  0.00  0.00    +0.000 A 
ATOM     13  C   UNL     1      45.533   3.082   7.487  0.00  0.00    +0.000 A 
ATOM     14  C   UNL     1      44.602   2.720   8.460  0.00  0.00    +0.000 A 
ATOM     15  C   UNL     1      44.390   3.553   9.556  0.00  0.00    +0.000 A 
ATOM     16  F   UNL     1      43.484   3.189  10.476  0.00  0.00    +0.000 F 
ENDBRANCH   9  10
ENDBRANCH   6   9
ENDBRANCH   2   3
BRANCH   2  17
ATOM     17  N   UNL     1      47.977   6.057  16.274  0.00  0.00    +0.000 N 
ATOM     18  C   UNL     1      49.145   6.691  16.602  0.00  0.00    +0.000 C 
ATOM     19  O   UNL     1      50.233   6.269  16.217  0.00  0.00    +0.000 OA
ATOM     20  H   UNL     1      47.086   6.397  16.623  0.00  0.00    +0.000 HD
BRANCH  18  21
ATOM     21  C   UNL     1      49.052   7.902  17.434  0.00  0.00    +0.000 A 
ATOM     22  C   UNL     1      49.665   9.070  16.993  0.00  0.00    +0.000 A 
ATOM     23  S   UNL     1      49.492  10.387  18.056  0.00  0.00    +0.000 S 
ATOM     24  C   UNL     1      48.597   9.449  19.155  0.00  0.00    +0.000 A 
ATOM     25  N   UNL     1      48.153   9.987  20.322  0.00  0.00    +0.000 NA
ATOM     26  C   UNL     1      47.488   9.172  21.070  0.00  0.00    +0.000 A 
ATOM     27  N   UNL     1      47.216   7.867  20.749  0.00  0.00    +0.000 N 
ATOM     28  C   UNL     1      47.642   7.280  19.583  0.00  0.00    +0.000 A 
ATOM     29  O   UNL     1      47.384   6.105  19.334  0.00  0.00    +0.000 OA
ATOM     30  C   UNL     1      48.413   8.150  18.710  0.00  0.00    +0.000 A 
ATOM     31  H   UNL     1      46.680   7.282  21.374  0.00  0.00    +0.000 HD
ENDBRANCH  18  21
ENDBRANCH   2  17
TORSDOF 5
ENDMDL
