MODEL 1
REMARK VINA RESULT:    -8.307      0.000      0.000
REMARK INTER + INTRA:         -12.105
REMARK INTER:                 -11.220
REMARK INTRA:                  -0.884
REMARK UNBOUND:                -0.884
REMARK  Name = 
REMARK  7 active torsions:
REMARK  status: ('A' for Active; 'I' for Inactive)
REMARK    1  A    between atoms: C_1  and  C_2
REMARK    2  A    between atoms: C_2  and  N_3
REMARK    3  A    between atoms: C_2  and  C_16
REMARK    4  A    between atoms: C_4  and  C_6
REMARK    5  A    between atoms: C_19  and  C_20
REMARK    6  A    between atoms: C_20  and  N_21
REMARK    7  A    between atoms: C_22  and  C_24
REMARK                            x       y       z     vdW  Elec       q    Type
REMARK                         _______ _______ _______ _____ _____    ______ ____
ROOT
ATOM      1  C   UNL     1      46.949   9.418  13.481  0.00  0.00    +0.000 C 
ATOM      2  C   UNL     1      47.469   7.976  13.420  0.00  0.00    +0.000 C 
ENDROOT
BRANCH   2   3
ATOM      3  C   UNL     1      46.457   7.082  12.713  0.00  0.00    +0.000 A 
ATOM      4  C   UNL     1      45.370   7.631  12.021  0.00  0.00    +0.000 A 
ATOM      5  C   UNL     1      44.468   6.804  11.340  0.00  0.00    +0.000 A 
ATOM      6  C   UNL     1      44.629   5.411  11.341  0.00  0.00    +0.000 A 
ATOM      7  C   UNL     1      45.715   4.861  12.029  0.00  0.00    +0.000 A 
ATOM      8  C   UNL     1      46.614   5.684  12.711  0.00  0.00    +0.000 A 
BRANCH   6   9
ATOM      9  C   UNL     1      43.678   4.522  10.583  0.00  0.00    +0.000 C 
BRANCH   9  10
ATOM     10  N   UNL     1      44.390   3.522   9.819  0.00  0.00    +0.000 N 
ATOM     11  C   UNL     1      45.185   3.893   8.755  0.00  0.00    +0.000 C 
ATOM     12  O   UNL     1      45.335   5.055   8.400  0.00  0.00    +0.000 OA
ATOM     13  H   UNL     1      44.466   2.595  10.213  0.00  0.00    +0.000 HD
BRANCH  11  14
ATOM     14  C   UNL     1      45.891   2.802   8.043  0.00  0.00    +0.000 A 
ATOM     15  C   UNL     1      46.679   3.016   6.910  0.00  0.00    +0.000 A 
ATOM     16  C   UNL     1      47.335   1.936   6.320  0.00  0.00    +0.000 A 
ATOM     17  C   UNL     1      47.182   0.679   6.885  0.00  0.00    +0.000 A 
ATOM     18  N   UNL     1      46.433   0.439   7.983  0.00  0.00    +0.000 NA
ATOM     19  C   UNL     1      45.814   1.509   8.546  0.00  0.00    +0.000 A 
ENDBRANCH  11  14
ENDBRANCH   9  10
ENDBRANCH   6   9
ENDBRANCH   2   3
BRANCH   2  20
ATOM     20  N   UNL     1      47.747   7.418  14.737  0.00  0.00    +0.000 N 
ATOM     21  C   UNL     1      48.994   7.024  15.148  0.00  0.00    +0.000 C 
ATOM     22  O   UNL     1      49.997   7.153  14.453  0.00  0.00    +0.000 OA
ATOM     23  H   UNL     1      46.948   7.011  15.214  0.00  0.00    +0.000 HD
BRANCH  21  24
ATOM     24  C   UNL     1      49.086   6.495  16.516  0.00  0.00    +0.000 A 
ATOM     25  C   UNL     1      49.692   7.255  17.506  0.00  0.00    +0.000 A 
ATOM     26  S   UNL     1      49.703   6.502  19.036  0.00  0.00    +0.000 S 
ATOM     27  C   UNL     1      48.936   5.115  18.420  0.00  0.00    +0.000 A 
ATOM     28  N   UNL     1      48.680   4.045  19.218  0.00  0.00    +0.000 NA
ATOM     29  C   UNL     1      48.126   3.049  18.614  0.00  0.00    +0.000 A 
ATOM     30  N   UNL     1      47.789   3.030  17.284  0.00  0.00    +0.000 N 
ATOM     31  C   UNL     1      47.989   4.105  16.449  0.00  0.00    +0.000 A 
ATOM     32  O   UNL     1      47.609   4.087  15.283  0.00  0.00    +0.000 OA
ATOM     33  C   UNL     1      48.644   5.238  17.073  0.00  0.00    +0.000 A 
ATOM     34  H   UNL     1      47.341   2.224  16.877  0.00  0.00    +0.000 HD
ENDBRANCH  21  24
ENDBRANCH   2  20
TORSDOF 6
ENDMDL
MODEL 2
REMARK VINA RESULT:    -8.191      1.664      2.331
REMARK INTER + INTRA:         -11.948
REMARK INTER:                 -10.877
REMARK INTRA:                  -1.070
REMARK UNBOUND:                -0.884
REMARK  Name = 
REMARK  7 active torsions:
REMARK  status: ('A' for Active; 'I' for Inactive)
REMARK    1  A    between atoms: C_1  and  C_2
REMARK    2  A    between atoms: C_2  and  N_3
REMARK    3  A    between atoms: C_2  and  C_16
REMARK    4  A    between atoms: C_4  and  C_6
REMARK    5  A    between atoms: C_19  and  C_20
REMARK    6  A    between atoms: C_20  and  N_21
REMARK    7  A    between atoms: C_22  and  C_24
REMARK                            x       y       z     vdW  Elec       q    Type
REMARK                         _______ _______ _______ _____ _____    ______ ____
ROOT
ATOM      1  C   UNL     1      47.881   8.984  14.175  0.00  0.00    +0.000 C 
ATOM      2  C   UNL     1      48.127   7.471  14.117  0.00  0.00    +0.000 C 
ENDROOT
BRANCH   2   3
ATOM      3  C   UNL     1      47.127   6.812  13.173  0.00  0.00    +0.000 A 
ATOM      4  C   UNL     1      46.809   5.454  13.294  0.00  0.00    +0.000 A 
ATOM      5  C   UNL     1      45.859   4.866  12.448  0.00  0.00    +0.000 A 
ATOM      6  C   UNL     1      45.213   5.622  11.460  0.00  0.00    +0.000 A 
ATOM      7  C   UNL     1      45.527   6.980  11.339  0.00  0.00    +0.000 A 
ATOM      8  C   UNL     1      46.476   7.565  12.180  0.00  0.00    +0.000 A 
BRANCH   6   9
ATOM      9  C   UNL     1      44.168   5.000  10.570  0.00  0.00    +0.000 C 
BRANCH   9  10
ATOM     10  N   UNL     1      44.721   3.916   9.790  0.00  0.00    +0.000 N 
ATOM     11  C   UNL     1      45.567   4.177   8.733  0.00  0.00    +0.000 C 
ATOM     12  O   UNL     1      45.895   5.308   8.397  0.00  0.00    +0.000 OA
ATOM     13  H   UNL     1      44.654   2.981  10.171  0.00  0.00    +0.000 HD
BRANCH  11  14
ATOM     14  C   UNL     1      46.100   3.002   8.005  0.00  0.00    +0.000 A 
ATOM     15  C   UNL     1      46.774   3.102   6.785  0.00  0.00    +0.000 A 
ATOM     16  C   UNL     1      47.272   1.947   6.183  0.00  0.00    +0.000 A 
ATOM     17  C   UNL     1      47.080   0.732   6.822  0.00  0.00    +0.000 A 
ATOM     18  N   UNL     1      46.440   0.600   8.004  0.00  0.00    +0.000 NA
ATOM     19  C   UNL     1      45.974   1.741   8.576  0.00  0.00    +0.000 A 
ENDBRANCH  11  14
ENDBRANCH   9  10
ENDBRANCH   6   9
ENDBRANCH   2   3
BRANCH   2  20
ATOM     20  N   UNL     1      48.031   6.830  15.422  0.00  0.00    +0.000 N 
ATOM     21  C   UNL     1      49.111   6.351  16.116  0.00  0.00    +0.000 C 
ATOM     22  O   UNL     1      50.265   6.463  15.713  0.00  0.00    +0.000 OA
ATOM     23  H   UNL     1      47.121   6.441  15.648  0.00  0.00    +0.000 HD
BRANCH  21  24
ATOM     24  C   UNL     1      48.823   5.746  17.423  0.00  0.00    +0.000 A 
ATOM     25  C   UNL     1      48.979   4.377  17.594  0.00  0.00    +0.000 A 
ATOM     26  S   UNL     1      48.618   3.839  19.171  0.00  0.00    +0.000 S 
ATOM     27  C   UNL     1      48.200   5.411  19.671  0.00  0.00    +0.000 A 
ATOM     28  N   UNL     1      47.754   5.648  20.932  0.00  0.00    +0.000 NA
ATOM     29  C   UNL     1      47.440   6.878  21.165  0.00  0.00    +0.000 A 
ATOM     30  N   UNL     1      47.547   7.898  20.253  0.00  0.00    +0.000 N 
ATOM     31  C   UNL     1      48.035   7.713  18.981  0.00  0.00    +0.000 A 
ATOM     32  O   UNL     1      48.190   8.656  18.213  0.00  0.00    +0.000 OA
ATOM     33  C   UNL     1      48.367   6.339  18.658  0.00  0.00    +0.000 A 
ATOM     34  H   UNL     1      47.302   8.843  20.506  0.00  0.00    +0.000 HD
ENDBRANCH  21  24
ENDBRANCH   2  20
TORSDOF 6
ENDMDL
MODEL 3
REMARK VINA RESULT:    -7.765      2.528      4.241
REMARK INTER + INTRA:         -11.372
REMARK INTER:                 -10.103
REMARK INTRA:                  -1.269
REMARK UNBOUND:                -0.884
REMARK  Name = 
REMARK  7 active torsions:
REMARK  status: ('A' for Active; 'I' for Inactive)
REMARK    1  A    between atoms: C_1  and  C_2
REMARK    2  A    between atoms: C_2  and  N_3
REMARK    3  A    between atoms: C_2  and  C_16
REMARK    4  A    between atoms: C_4  and  C_6
REMARK    5  A    between atoms: C_19  and  C_20
REMARK    6  A    between atoms: C_20  and  N_21
REMARK    7  A    between atoms: C_22  and  C_24
REMARK                            x       y       z     vdW  Elec       q    Type
REMARK                         _______ _______ _______ _____ _____    ______ ____
ROOT
ATOM      1  C   UNL     1      47.388   4.175  15.777  0.00  0.00    +0.000 C 
ATOM      2  C   UNL     1      47.150   5.461  14.977  0.00  0.00    +0.000 C 
ENDROOT
BRANCH   2   3
ATOM      3  C   UNL     1      46.315   5.162  13.737  0.00  0.00    +0.000 A 
ATOM      4  C   UNL     1      45.818   6.197  12.935  0.00  0.00    +0.000 A 
ATOM      5  C   UNL     1      45.086   5.913  11.776  0.00  0.00    +0.000 A 
ATOM      6  C   UNL     1      44.829   4.587  11.396  0.00  0.00    +0.000 A 
ATOM      7  C   UNL     1      45.326   3.552  12.195  0.00  0.00    +0.000 A 
ATOM      8  C   UNL     1      46.054   3.835  13.352  0.00  0.00    +0.000 A 
BRANCH   6   9
ATOM      9  C   UNL     1      44.068   4.277  10.134  0.00  0.00    +0.000 C 
BRANCH   9  10
ATOM     10  N   UNL     1      44.965   3.999   9.035  0.00  0.00    +0.000 N 
ATOM     11  C   UNL     1      45.213   2.699   8.648  0.00  0.00    +0.000 C 
ATOM     12  O   UNL     1      44.706   1.727   9.193  0.00  0.00    +0.000 OA
ATOM     13  H   UNL     1      45.220   4.768   8.430  0.00  0.00    +0.000 HD
BRANCH  11  14
ATOM     14  C   UNL     1      46.130   2.512   7.500  0.00  0.00    +0.000 A 
ATOM     15  C   UNL     1      46.144   3.361   6.389  0.00  0.00    +0.000 A 
ATOM     16  C   UNL     1      47.062   3.130   5.365  0.00  0.00    +0.000 A 
ATOM     17  C   UNL     1      47.935   2.060   5.487  0.00  0.00    +0.000 A 
ATOM     18  N   UNL     1      47.952   1.225   6.548  0.00  0.00    +0.000 NA
ATOM     19  C   UNL     1      47.057   1.477   7.538  0.00  0.00    +0.000 A 
ENDBRANCH  11  14
ENDBRANCH   9  10
ENDBRANCH   6   9
ENDBRANCH   2   3
BRANCH   2  20
ATOM     20  N   UNL     1      48.388   6.109  14.562  0.00  0.00    +0.000 N 
ATOM     21  C   UNL     1      49.042   7.050  15.312  0.00  0.00    +0.000 C 
ATOM     22  O   UNL     1      48.662   7.397  16.427  0.00  0.00    +0.000 OA
ATOM     23  H   UNL     1      48.569   6.100  13.562  0.00  0.00    +0.000 HD
BRANCH  21  24
ATOM     24  C   UNL     1      50.284   7.585  14.738  0.00  0.00    +0.000 A 
ATOM     25  C   UNL     1      51.470   7.485  15.454  0.00  0.00    +0.000 A 
ATOM     26  S   UNL     1      52.817   8.141  14.641  0.00  0.00    +0.000 S 
ATOM     27  C   UNL     1      51.857   8.621  13.321  0.00  0.00    +0.000 A 
ATOM     28  N   UNL     1      52.399   9.290  12.269  0.00  0.00    +0.000 NA
ATOM     29  C   UNL     1      51.551   9.623  11.355  0.00  0.00    +0.000 A 
ATOM     30  N   UNL     1      50.210   9.333  11.390  0.00  0.00    +0.000 N 
ATOM     31  C   UNL     1      49.627   8.620  12.411  0.00  0.00    +0.000 A 
ATOM     32  O   UNL     1      48.441   8.311  12.378  0.00  0.00    +0.000 OA
ATOM     33  C   UNL     1      50.533   8.255  13.483  0.00  0.00    +0.000 A 
ATOM     34  H   UNL     1      49.604   9.608  10.632  0.00  0.00    +0.000 HD
ENDBRANCH  21  24
ENDBRANCH   2  20
TORSDOF 6
ENDMDL
MODEL 4
REMARK VINA RESULT:    -7.475      2.787      4.998
REMARK INTER + INTRA:         -10.981
REMARK INTER:                 -10.162
REMARK INTRA:                  -0.819
REMARK UNBOUND:                -0.884
REMARK  Name = 
REMARK  7 active torsions:
REMARK  status: ('A' for Active; 'I' for Inactive)
REMARK    1  A    between atoms: C_1  and  C_2
REMARK    2  A    between atoms: C_2  and  N_3
REMARK    3  A    between atoms: C_2  and  C_16
REMARK    4  A    between atoms: C_4  and  C_6
REMARK    5  A    between atoms: C_19  and  C_20
REMARK    6  A    between atoms: C_20  and  N_21
REMARK    7  A    between atoms: C_22  and  C_24
REMARK                            x       y       z     vdW  Elec       q    Type
REMARK                         _______ _______ _______ _____ _____    ______ ____
ROOT
ATOM      1  C   UNL     1      48.223   5.278  15.418  0.00  0.00    +0.000 C 
ATOM      2  C   UNL     1      47.078   6.101  14.813  0.00  0.00    +0.000 C 
ENDROOT
BRANCH   2   3
ATOM      3  C   UNL     1      46.248   5.234  13.872  0.00  0.00    +0.000 A 
ATOM      4  C   UNL     1      45.119   5.751  13.224  0.00  0.00    +0.000 A 
ATOM      5  C   UNL     1      44.386   4.960  12.330  0.00  0.00    +0.000 A 
ATOM      6  C   UNL     1      44.762   3.635  12.070  0.00  0.00    +0.000 A 
ATOM      7  C   UNL     1      45.891   3.117  12.715  0.00  0.00    +0.000 A 
ATOM      8  C   UNL     1      46.620   3.904  13.608  0.00  0.00    +0.000 A 
BRANCH   6   9
ATOM      9  C   UNL     1      43.994   2.791  11.086  0.00  0.00    +0.000 C 
BRANCH   9  10
ATOM     10  N   UNL     1      44.831   2.377   9.983  0.00  0.00    +0.000 N 
ATOM     11  C   UNL     1      44.996   3.197   8.886  0.00  0.00    +0.000 C 
ATOM     12  O   UNL     1      44.461   4.293   8.779  0.00  0.00    +0.000 OA
ATOM     13  H   UNL     1      45.454   1.595  10.133  0.00  0.00    +0.000 HD
BRANCH  11  14
ATOM     14  C   UNL     1      45.888   2.698   7.814  0.00  0.00    +0.000 A 
ATOM     15  C   UNL     1      46.228   3.455   6.690  0.00  0.00    +0.000 A 
ATOM     16  C   UNL     1      47.100   2.919   5.743  0.00  0.00    +0.000 A 
ATOM     17  C   UNL     1      47.605   1.646   5.954  0.00  0.00    +0.000 A 
ATOM     18  N   UNL     1      47.304   0.890   7.032  0.00  0.00    +0.000 NA
ATOM     19  C   UNL     1      46.461   1.438   7.946  0.00  0.00    +0.000 A 
ENDBRANCH  11  14
ENDBRANCH   9  10
ENDBRANCH   6   9
ENDBRANCH   2   3
BRANCH   2  20
ATOM     20  N   UNL     1      47.546   7.271  14.082  0.00  0.00    +0.000 N 
ATOM     21  C   UNL     1      48.449   7.214  13.053  0.00  0.00    +0.000 C 
ATOM     22  O   UNL     1      48.910   6.159  12.628  0.00  0.00    +0.000 OA
ATOM     23  H   UNL     1      47.451   8.156  14.572  0.00  0.00    +0.000 HD
BRANCH  21  24
ATOM     24  C   UNL     1      48.795   8.497  12.425  0.00  0.00    +0.000 A 
ATOM     25  C   UNL     1      50.113   8.755  12.074  0.00  0.00    +0.000 A 
ATOM     26  S   UNL     1      50.340  10.279  11.344  0.00  0.00    +0.000 S 
ATOM     27  C   UNL     1      48.692  10.666  11.510  0.00  0.00    +0.000 A 
ATOM     28  N   UNL     1      48.214  11.874  11.111  0.00  0.00    +0.000 NA
ATOM     29  C   UNL     1      46.953  12.046  11.327  0.00  0.00    +0.000 A 
ATOM     30  N   UNL     1      46.123  11.113  11.893  0.00  0.00    +0.000 N 
ATOM     31  C   UNL     1      46.553   9.863  12.271  0.00  0.00    +0.000 A 
ATOM     32  O   UNL     1      45.771   9.023  12.705  0.00  0.00    +0.000 OA
ATOM     33  C   UNL     1      47.972   9.633  12.083  0.00  0.00    +0.000 A 
ATOM     34  H   UNL     1      45.140  11.306  12.018  0.00  0.00    +0.000 HD
ENDBRANCH  21  24
ENDBRANCH   2  20
TORSDOF 6
ENDMDL
MODEL 5
REMARK VINA RESULT:    -7.388      3.181      8.567
REMARK INTER + INTRA:         -10.863
REMARK INTER:                  -9.747
REMARK INTRA:                  -1.116
REMARK UNBOUND:                -0.884
REMARK  Name = 
REMARK  7 active torsions:
REMARK  status: ('A' for Active; 'I' for Inactive)
REMARK    1  A    between atoms: C_1  and  C_2
REMARK    2  A    between atoms: C_2  and  N_3
REMARK    3  A    between atoms: C_2  and  C_16
REMARK    4  A    between atoms: C_4  and  C_6
REMARK    5  A    between atoms: C_19  and  C_20
REMARK    6  A    between atoms: C_20  and  N_21
REMARK    7  A    between atoms: C_22  and  C_24
REMARK                            x       y       z     vdW  Elec       q    Type
REMARK                         _______ _______ _______ _____ _____    ______ ____
ROOT
ATOM      1  C   UNL     1      49.171   7.866  11.115  0.00  0.00    +0.000 C 
ATOM      2  C   UNL     1      48.137   7.697  12.236  0.00  0.00    +0.000 C 
ENDROOT
BRANCH   2   3
ATOM      3  C   UNL     1      48.840   7.529  13.578  0.00  0.00    +0.000 A 
ATOM      4  C   UNL     1      48.172   6.974  14.677  0.00  0.00    +0.000 A 
ATOM      5  C   UNL     1      48.838   6.786  15.895  0.00  0.00    +0.000 A 
ATOM      6  C   UNL     1      50.183   7.154  16.042  0.00  0.00    +0.000 A 
ATOM      7  C   UNL     1      50.853   7.705  14.945  0.00  0.00    +0.000 A 
ATOM      8  C   UNL     1      50.189   7.896  13.731  0.00  0.00    +0.000 A 
BRANCH   6   9
ATOM      9  C   UNL     1      50.910   6.924  17.341  0.00  0.00    +0.000 C 
BRANCH   9  10
ATOM     10  N   UNL     1      51.552   5.629  17.362  0.00  0.00    +0.000 N 
ATOM     11  C   UNL     1      50.894   4.532  17.877  0.00  0.00    +0.000 C 
ATOM     12  O   UNL     1      49.759   4.582  18.335  0.00  0.00    +0.000 OA
ATOM     13  H   UNL     1      52.383   5.507  16.800  0.00  0.00    +0.000 HD
BRANCH  11  14
ATOM     14  C   UNL     1      51.623   3.243  17.838  0.00  0.00    +0.000 A 
ATOM     15  C   UNL     1      52.934   3.094  18.295  0.00  0.00    +0.000 A 
ATOM     16  C   UNL     1      53.535   1.837  18.250  0.00  0.00    +0.000 A 
ATOM     17  C   UNL     1      52.803   0.771  17.751  0.00  0.00    +0.000 A 
ATOM     18  N   UNL     1      51.532   0.878  17.308  0.00  0.00    +0.000 NA
ATOM     19  C   UNL     1      50.965   2.111  17.372  0.00  0.00    +0.000 A 
ENDBRANCH  11  14
ENDBRANCH   9  10
ENDBRANCH   6   9
ENDBRANCH   2   3
BRANCH   2  20
ATOM     20  N   UNL     1      47.253   6.558  12.024  0.00  0.00    +0.000 N 
ATOM     21  C   UNL     1      45.886   6.632  12.099  0.00  0.00    +0.000 C 
ATOM     22  O   UNL     1      45.286   7.682  12.306  0.00  0.00    +0.000 OA
ATOM     23  H   UNL     1      47.679   5.646  12.160  0.00  0.00    +0.000 HD
BRANCH  21  24
ATOM     24  C   UNL     1      45.157   5.382  11.844  0.00  0.00    +0.000 A 
ATOM     25  C   UNL     1      44.446   4.782  12.874  0.00  0.00    +0.000 A 
ATOM     26  S   UNL     1      43.646   3.349  12.409  0.00  0.00    +0.000 S 
ATOM     27  C   UNL     1      44.257   3.458  10.825  0.00  0.00    +0.000 A 
ATOM     28  N   UNL     1      43.979   2.500   9.902  0.00  0.00    +0.000 NA
ATOM     29  C   UNL     1      44.534   2.690   8.753  0.00  0.00    +0.000 A 
ATOM     30  N   UNL     1      45.331   3.760   8.437  0.00  0.00    +0.000 N 
ATOM     31  C   UNL     1      45.603   4.775   9.324  0.00  0.00    +0.000 A 
ATOM     32  O   UNL     1      46.257   5.757   8.990  0.00  0.00    +0.000 OA
ATOM     33  C   UNL     1      45.032   4.589  10.644  0.00  0.00    +0.000 A 
ATOM     34  H   UNL     1      45.721   3.858   7.512  0.00  0.00    +0.000 HD
ENDBRANCH  21  24
ENDBRANCH   2  20
TORSDOF 6
ENDMDL
MODEL 6
REMARK VINA RESULT:    -7.209      2.844      3.795
REMARK INTER + INTRA:         -10.622
REMARK INTER:                  -9.550
REMARK INTRA:                  -1.072
REMARK UNBOUND:                -0.884
REMARK  Name = 
REMARK  7 active torsions:
REMARK  status: ('A' for Active; 'I' for Inactive)
REMARK    1  A    between atoms: C_1  and  C_2
REMARK    2  A    between atoms: C_2  and  N_3
REMARK    3  A    between atoms: C_2  and  C_16
REMARK    4  A    between atoms: C_4  and  C_6
REMARK    5  A    between atoms: C_19  and  C_20
REMARK    6  A    between atoms: C_20  and  N_21
REMARK    7  A    between atoms: C_22  and  C_24
REMARK                            x       y       z     vdW  Elec       q    Type
REMARK                         _______ _______ _______ _____ _____    ______ ____
ROOT
ATOM      1  C   UNL     1      47.471   4.327  15.699  0.00  0.00    +0.000 C 
ATOM      2  C   UNL     1      47.305   5.666  14.969  0.00  0.00    +0.000 C 
ENDROOT
BRANCH   2   3
ATOM      3  C   UNL     1      46.470   5.476  13.706  0.00  0.00    +0.000 A 
ATOM      4  C   UNL     1      46.674   6.281  12.579  0.00  0.00    +0.000 A 
ATOM      5  C   UNL     1      45.931   6.074  11.411  0.00  0.00    +0.000 A 
ATOM      6  C   UNL     1      44.964   5.060  11.346  0.00  0.00    +0.000 A 
ATOM      7  C   UNL     1      44.761   4.252  12.469  0.00  0.00    +0.000 A 
ATOM      8  C   UNL     1      45.499   4.461  13.636  0.00  0.00    +0.000 A 
BRANCH   6   9
ATOM      9  C   UNL     1      44.185   4.814  10.080  0.00  0.00    +0.000 C 
BRANCH   9  10
ATOM     10  N   UNL     1      45.052   4.389   9.004  0.00  0.00    +0.000 N 
ATOM     11  C   UNL     1      45.242   3.047   8.749  0.00  0.00    +0.000 C 
ATOM     12  O   UNL     1      44.706   2.157   9.396  0.00  0.00    +0.000 OA
ATOM     13  H   UNL     1      45.328   5.082   8.321  0.00  0.00    +0.000 HD
BRANCH  11  14
ATOM     14  C   UNL     1      46.131   2.707   7.614  0.00  0.00    +0.000 A 
ATOM     15  C   UNL     1      46.261   3.512   6.479  0.00  0.00    +0.000 A 
ATOM     16  C   UNL     1      47.145   3.133   5.470  0.00  0.00    +0.000 A 
ATOM     17  C   UNL     1      47.870   1.963   5.630  0.00  0.00    +0.000 A 
ATOM     18  N   UNL     1      47.774   1.165   6.716  0.00  0.00    +0.000 NA
ATOM     19  C   UNL     1      46.915   1.562   7.691  0.00  0.00    +0.000 A 
ENDBRANCH  11  14
ENDBRANCH   9  10
ENDBRANCH   6   9
ENDBRANCH   2   3
BRANCH   2  20
ATOM     20  N   UNL     1      48.577   6.274  14.602  0.00  0.00    +0.000 N 
ATOM     21  C   UNL     1      49.207   7.232  15.352  0.00  0.00    +0.000 C 
ATOM     22  O   UNL     1      48.771   7.629  16.429  0.00  0.00    +0.000 OA
ATOM     23  H   UNL     1      48.814   6.223  13.615  0.00  0.00    +0.000 HD
BRANCH  21  24
ATOM     24  C   UNL     1      50.490   7.722  14.830  0.00  0.00    +0.000 A 
ATOM     25  C   UNL     1      50.503   8.581  13.740  0.00  0.00    +0.000 A 
ATOM     26  S   UNL     1      52.069   9.065  13.270  0.00  0.00    +0.000 S 
ATOM     27  C   UNL     1      52.788   8.110  14.480  0.00  0.00    +0.000 A 
ATOM     28  N   UNL     1      54.139   8.040  14.605  0.00  0.00    +0.000 NA
ATOM     29  C   UNL     1      54.548   7.252  15.542  0.00  0.00    +0.000 A 
ATOM     30  N   UNL     1      53.727   6.539  16.377  0.00  0.00    +0.000 N 
ATOM     31  C   UNL     1      52.355   6.613  16.317  0.00  0.00    +0.000 A 
ATOM     32  O   UNL     1      51.647   6.023  17.126  0.00  0.00    +0.000 OA
ATOM     33  C   UNL     1      51.845   7.458  15.255  0.00  0.00    +0.000 A 
ATOM     34  H   UNL     1      54.112   5.954  17.103  0.00  0.00    +0.000 HD
ENDBRANCH  21  24
ENDBRANCH   2  20
TORSDOF 6
ENDMDL
MODEL 7
REMARK VINA RESULT:    -7.053      3.434      8.302
REMARK INTER + INTRA:         -10.411
REMARK INTER:                  -9.387
REMARK INTRA:                  -1.024
REMARK UNBOUND:                -0.884
REMARK  Name = 
REMARK  7 active torsions:
REMARK  status: ('A' for Active; 'I' for Inactive)
REMARK    1  A    between atoms: C_1  and  C_2
REMARK    2  A    between atoms: C_2  and  N_3
REMARK    3  A    between atoms: C_2  and  C_16
REMARK    4  A    between atoms: C_4  and  C_6
REMARK    5  A    between atoms: C_19  and  C_20
REMARK    6  A    between atoms: C_20  and  N_21
REMARK    7  A    between atoms: C_22  and  C_24
REMARK                            x       y       z     vdW  Elec       q    Type
REMARK                         _______ _______ _______ _____ _____    ______ ____
ROOT
ATOM      1  C   UNL     1      48.428   9.436  11.786  0.00  0.00    +0.000 C 
ATOM      2  C   UNL     1      47.398   8.641  12.599  0.00  0.00    +0.000 C 
ENDROOT
BRANCH   2   3
ATOM      3  C   UNL     1      47.993   8.225  13.940  0.00  0.00    +0.000 A 
ATOM      4  C   UNL     1      48.281   6.882  14.215  0.00  0.00    +0.000 A 
ATOM      5  C   UNL     1      48.865   6.513  15.433  0.00  0.00    +0.000 A 
ATOM      6  C   UNL     1      49.169   7.478  16.404  0.00  0.00    +0.000 A 
ATOM      7  C   UNL     1      48.885   8.820  16.131  0.00  0.00    +0.000 A 
ATOM      8  C   UNL     1      48.299   9.188  14.917  0.00  0.00    +0.000 A 
BRANCH   6   9
ATOM      9  C   UNL     1      49.826   7.088  17.703  0.00  0.00    +0.000 C 
BRANCH   9  10
ATOM     10  N   UNL     1      50.568   5.856  17.567  0.00  0.00    +0.000 N 
ATOM     11  C   UNL     1      50.095   4.690  18.132  0.00  0.00    +0.000 C 
ATOM     12  O   UNL     1      49.049   4.625  18.765  0.00  0.00    +0.000 OA
ATOM     13  H   UNL     1      51.305   5.824  16.875  0.00  0.00    +0.000 HD
BRANCH  11  14
ATOM     14  C   UNL     1      50.913   3.473  17.923  0.00  0.00    +0.000 A 
ATOM     15  C   UNL     1      52.246   3.370  18.328  0.00  0.00    +0.000 A 
ATOM     16  C   UNL     1      52.933   2.175  18.120  0.00  0.00    +0.000 A 
ATOM     17  C   UNL     1      52.264   1.122  17.516  0.00  0.00    +0.000 A 
ATOM     18  N   UNL     1      50.974   1.185  17.119  0.00  0.00    +0.000 NA
ATOM     19  C   UNL     1      50.322   2.356  17.342  0.00  0.00    +0.000 A 
ENDBRANCH  11  14
ENDBRANCH   9  10
ENDBRANCH   6   9
ENDBRANCH   2   3
BRANCH   2  20
ATOM     20  N   UNL     1      46.926   7.450  11.906  0.00  0.00    +0.000 N 
ATOM     21  C   UNL     1      45.613   7.228  11.581  0.00  0.00    +0.000 C 
ATOM     22  O   UNL     1      44.723   8.043  11.808  0.00  0.00    +0.000 OA
ATOM     23  H   UNL     1      47.533   6.638  11.975  0.00  0.00    +0.000 HD
BRANCH  21  24
ATOM     24  C   UNL     1      45.325   5.974  10.872  0.00  0.00    +0.000 A 
ATOM     25  C   UNL     1      45.802   5.792   9.581  0.00  0.00    +0.000 A 
ATOM     26  S   UNL     1      45.392   4.280   8.908  0.00  0.00    +0.000 S 
ATOM     27  C   UNL     1      44.527   3.831  10.302  0.00  0.00    +0.000 A 
ATOM     28  N   UNL     1      43.879   2.639  10.369  0.00  0.00    +0.000 NA
ATOM     29  C   UNL     1      43.235   2.443  11.470  0.00  0.00    +0.000 A 
ATOM     30  N   UNL     1      43.193   3.326  12.519  0.00  0.00    +0.000 N 
ATOM     31  C   UNL     1      43.869   4.523  12.514  0.00  0.00    +0.000 A 
ATOM     32  O   UNL     1      43.875   5.258  13.495  0.00  0.00    +0.000 OA
ATOM     33  C   UNL     1      44.579   4.808  11.282  0.00  0.00    +0.000 A 
ATOM     34  H   UNL     1      42.684   3.103  13.361  0.00  0.00    +0.000 HD
ENDBRANCH  21  24
ENDBRANCH   2  20
TORSDOF 6
ENDMDL
MODEL 8
REMARK VINA RESULT:    -7.000      3.722      5.007
REMARK INTER + INTRA:         -10.339
REMARK INTER:                  -9.194
REMARK INTRA:                  -1.146
REMARK UNBOUND:                -0.884
REMARK  Name = 
REMARK  7 active torsions:
REMARK  status: ('A' for Active; 'I' for Inactive)
REMARK    1  A    between atoms: C_1  and  C_2
REMARK    2  A    between atoms: C_2  and  N_3
REMARK    3  A    between atoms: C_2  and  C_16
REMARK    4  A    between atoms: C_4  and  C_6
REMARK    5  A    between atoms: C_19  and  C_20
REMARK    6  A    between atoms: C_20  and  N_21
REMARK    7  A    between atoms: C_22  and  C_24
REMARK                            x       y       z     vdW  Elec       q    Type
REMARK                         _______ _______ _______ _____ _____    ______ ____
ROOT
ATOM      1  C   UNL     1      48.098   9.126  15.507  0.00  0.00    +0.000 C 
ATOM      2  C   UNL     1      48.369   9.314  14.009  0.00  0.00    +0.000 C 
ENDROOT
BRANCH   2   3
ATOM      3  C   UNL     1      47.433   8.431  13.191  0.00  0.00    +0.000 A 
ATOM      4  C   UNL     1      47.887   7.238  12.614  0.00  0.00    +0.000 A 
ATOM      5  C   UNL     1      47.010   6.414  11.898  0.00  0.00    +0.000 A 
ATOM      6  C   UNL     1      45.662   6.767  11.738  0.00  0.00    +0.000 A 
ATOM      7  C   UNL     1      45.206   7.957  12.315  0.00  0.00    +0.000 A 
ATOM      8  C   UNL     1      46.081   8.781  13.026  0.00  0.00    +0.000 A 
BRANCH   6   9
ATOM      9  C   UNL     1      44.710   5.867  10.995  0.00  0.00    +0.000 C 
BRANCH   9  10
ATOM     10  N   UNL     1      45.411   5.016  10.061  0.00  0.00    +0.000 N 
ATOM     11  C   UNL     1      44.809   3.880   9.563  0.00  0.00    +0.000 C 
ATOM     12  O   UNL     1      43.677   3.529   9.871  0.00  0.00    +0.000 OA
ATOM     13  H   UNL     1      46.243   5.387   9.620  0.00  0.00    +0.000 HD
BRANCH  11  14
ATOM     14  C   UNL     1      45.597   3.081   8.596  0.00  0.00    +0.000 A 
ATOM     15  C   UNL     1      46.299   3.650   7.530  0.00  0.00    +0.000 A 
ATOM     16  C   UNL     1      47.041   2.827   6.685  0.00  0.00    +0.000 A 
ATOM     17  C   UNL     1      47.058   1.463   6.934  0.00  0.00    +0.000 A 
ATOM     18  N   UNL     1      46.396   0.882   7.958  0.00  0.00    +0.000 NA
ATOM     19  C   UNL     1      45.690   1.706   8.775  0.00  0.00    +0.000 A 
ENDBRANCH  11  14
ENDBRANCH   9  10
ENDBRANCH   6   9
ENDBRANCH   2   3
BRANCH   2  20
ATOM     20  N   UNL     1      49.745   9.006  13.639  0.00  0.00    +0.000 N 
ATOM     21  C   UNL     1      50.612   9.923  13.104  0.00  0.00    +0.000 C 
ATOM     22  O   UNL     1      50.314  11.102  12.934  0.00  0.00    +0.000 OA
ATOM     23  H   UNL     1      49.939   8.024  13.466  0.00  0.00    +0.000 HD
BRANCH  21  24
ATOM     24  C   UNL     1      51.964   9.435  12.804  0.00  0.00    +0.000 A 
ATOM     25  C   UNL     1      53.054   9.986  13.463  0.00  0.00    +0.000 A 
ATOM     26  S   UNL     1      54.547   9.299  13.009  0.00  0.00    +0.000 S 
ATOM     27  C   UNL     1      53.794   8.269  11.884  0.00  0.00    +0.000 A 
ATOM     28  N   UNL     1      54.526   7.425  11.110  0.00  0.00    +0.000 NA
ATOM     29  C   UNL     1      53.830   6.727  10.277  0.00  0.00    +0.000 A 
ATOM     30  N   UNL     1      52.464   6.784  10.159  0.00  0.00    +0.000 N 
ATOM     31  C   UNL     1      51.680   7.589  10.951  0.00  0.00    +0.000 A 
ATOM     32  O   UNL     1      50.457   7.563  10.875  0.00  0.00    +0.000 OA
ATOM     33  C   UNL     1      52.419   8.422  11.880  0.00  0.00    +0.000 A 
ATOM     34  H   UNL     1      51.979   6.197   9.498  0.00  0.00    +0.000 HD
ENDBRANCH  21  24
ENDBRANCH   2  20
TORSDOF 6
ENDMDL
MODEL 9
REMARK VINA RESULT:    -6.948      2.131      3.762
REMARK INTER + INTRA:         -10.269
REMARK INTER:                  -9.013
REMARK INTRA:                  -1.256
REMARK UNBOUND:                -0.884
REMARK  Name = 
REMARK  7 active torsions:
REMARK  status: ('A' for Active; 'I' for Inactive)
REMARK    1  A    between atoms: C_1  and  C_2
REMARK    2  A    between atoms: C_2  and  N_3
REMARK    3  A    between atoms: C_2  and  C_16
REMARK    4  A    between atoms: C_4  and  C_6
REMARK    5  A    between atoms: C_19  and  C_20
REMARK    6  A    between atoms: C_20  and  N_21
REMARK    7  A    between atoms: C_22  and  C_24
REMARK                            x       y       z     vdW  Elec       q    Type
REMARK                         _______ _______ _______ _____ _____    ______ ____
ROOT
ATOM      1  C   UNL     1      47.799   3.288  15.824  0.00  0.00    +0.000 C 
ATOM      2  C   UNL     1      47.380   4.762  15.761  0.00  0.00    +0.000 C 
ENDROOT
BRANCH   2   3
ATOM      3  C   UNL     1      46.716   5.064  14.422  0.00  0.00    +0.000 A 
ATOM      4  C   UNL     1      47.285   5.977  13.525  0.00  0.00    +0.000 A 
ATOM      5  C   UNL     1      46.690   6.218  12.280  0.00  0.00    +0.000 A 
ATOM      6  C   UNL     1      45.512   5.556  11.907  0.00  0.00    +0.000 A 
ATOM      7  C   UNL     1      44.944   4.641  12.800  0.00  0.00    +0.000 A 
ATOM      8  C   UNL     1      45.535   4.403  14.043  0.00  0.00    +0.000 A 
BRANCH   6   9
ATOM      9  C   UNL     1      44.887   5.789  10.556  0.00  0.00    +0.000 C 
BRANCH   9  10
ATOM     10  N   UNL     1      45.541   5.005   9.533  0.00  0.00    +0.000 N 
ATOM     11  C   UNL     1      45.076   3.746   9.215  0.00  0.00    +0.000 C 
ATOM     12  O   UNL     1      44.110   3.228   9.762  0.00  0.00    +0.000 OA
ATOM     13  H   UNL     1      46.187   5.480   8.918  0.00  0.00    +0.000 HD
BRANCH  11  14
ATOM     14  C   UNL     1      45.796   3.026   8.140  0.00  0.00    +0.000 A 
ATOM     15  C   UNL     1      46.191   3.635   6.946  0.00  0.00    +0.000 A 
ATOM     16  C   UNL     1      46.893   2.890   5.999  0.00  0.00    +0.000 A 
ATOM     17  C   UNL     1      47.177   1.562   6.278  0.00  0.00    +0.000 A 
ATOM     18  N   UNL     1      46.815   0.945   7.424  0.00  0.00    +0.000 NA
ATOM     19  C   UNL     1      46.143   1.694   8.336  0.00  0.00    +0.000 A 
ENDBRANCH  11  14
ENDBRANCH   9  10
ENDBRANCH   6   9
ENDBRANCH   2   3
BRANCH   2  20
ATOM     20  N   UNL     1      48.498   5.678  15.947  0.00  0.00    +0.000 N 
ATOM     21  C   UNL     1      48.736   6.363  17.109  0.00  0.00    +0.000 C 
ATOM     22  O   UNL     1      48.047   6.227  18.116  0.00  0.00    +0.000 OA
ATOM     23  H   UNL     1      48.895   6.057  15.092  0.00  0.00    +0.000 HD
BRANCH  21  24
ATOM     24  C   UNL     1      49.919   7.234  17.116  0.00  0.00    +0.000 A 
ATOM     25  C   UNL     1      51.019   6.890  17.890  0.00  0.00    +0.000 A 
ATOM     26  S   UNL     1      52.310   7.998  17.774  0.00  0.00    +0.000 S 
ATOM     27  C   UNL     1      51.429   8.999  16.718  0.00  0.00    +0.000 A 
ATOM     28  N   UNL     1      51.955  10.164  16.259  0.00  0.00    +0.000 NA
ATOM     29  C   UNL     1      51.166  10.841  15.494  0.00  0.00    +0.000 A 
ATOM     30  N   UNL     1      49.902  10.450  15.133  0.00  0.00    +0.000 N 
ATOM     31  C   UNL     1      49.346   9.258  15.537  0.00  0.00    +0.000 A 
ATOM     32  O   UNL     1      48.243   8.901  15.138  0.00  0.00    +0.000 OA
ATOM     33  C   UNL     1      50.180   8.478  16.430  0.00  0.00    +0.000 A 
ATOM     34  H   UNL     1      49.342  11.018  14.516  0.00  0.00    +0.000 HD
ENDBRANCH  21  24
ENDBRANCH   2  20
TORSDOF 6
ENDMDL
