MODEL 1
REMARK VINA RESULT:    -8.114      0.000      0.000
REMARK INTER + INTRA:         -12.489
REMARK INTER:                 -11.671
REMARK INTRA:                  -0.818
REMARK UNBOUND:                -0.818
REMARK  Name = 
REMARK  8 active torsions:
REMARK  status: ('A' for Active; 'I' for Inactive)
REMARK    1  A    between atoms: N_1  and  C_2
REMARK    2  A    between atoms: C_2  and  C_3
REMARK    3  A    between atoms: C_2  and  C_10
REMARK    4  A    between atoms: C_3  and  C_4
REMARK    5  A    between atoms: C_13  and  C_14
REMARK    6  A    between atoms: C_14  and  N_15
REMARK    7  A    between atoms: N_15  and  C_16
REMARK    8  A    between atoms: C_16  and  C_17
REMARK                            x       y       z     vdW  Elec       q    Type
REMARK                         _______ _______ _______ _____ _____    ______ ____
ROOT
ATOM      1  C   UNL     1      45.267   4.432  11.125  0.00  0.00    +0.000 A 
ATOM      2  C   UNL     1      45.440   3.399  12.064  0.00  0.00    +0.000 A 
ATOM      3  C   UNL     1      46.099   3.614  13.274  0.00  0.00    +0.000 A 
ATOM      4  C   UNL     1      46.643   4.865  13.576  0.00  0.00    +0.000 A 
ATOM      5  C   UNL     1      46.542   5.884  12.623  0.00  0.00    +0.000 A 
ATOM      6  C   UNL     1      45.868   5.669  11.413  0.00  0.00    +0.000 A 
ENDROOT
BRANCH   1   7
ATOM      7  C   UNL     1      44.497   4.159   9.831  0.00  0.00    +0.000 C 
BRANCH   7   8
ATOM      8  N   UNL     1      43.251   4.953   9.804  0.00  0.00    +0.000 NA
ATOM      9  H   UNL     1      42.483   4.369   9.475  0.00  0.00    +0.000 HD
ATOM     10  H   UNL     1      43.356   5.700   9.119  0.00  0.00    +0.000 HD
ENDBRANCH   7   8
BRANCH   7  11
ATOM     11  C   UNL     1      45.308   4.420   8.528  0.00  0.00    +0.000 C 
BRANCH  11  12
ATOM     12  C   UNL     1      46.051   3.216   7.987  0.00  0.00    +0.000 A 
ATOM     13  C   UNL     1      45.779   1.930   8.464  0.00  0.00    +0.000 A 
ATOM     14  C   UNL     1      46.478   0.860   7.927  0.00  0.00    +0.000 A 
ATOM     15  N   UNL     1      47.415   0.980   6.965  0.00  0.00    +0.000 NA
ATOM     16  C   UNL     1      47.660   2.227   6.511  0.00  0.00    +0.000 A 
ATOM     17  C   UNL     1      47.012   3.358   6.979  0.00  0.00    +0.000 A 
ENDBRANCH  11  12
ENDBRANCH   7  11
ENDBRANCH   1   7
BRANCH   4  18
ATOM     18  C   UNL     1      47.299   5.111  14.913  0.00  0.00    +0.000 C 
BRANCH  18  19
ATOM     19  N   UNL     1      46.671   4.309  15.958  0.00  0.00    +0.000 NA
ATOM     20  H   UNL     1      46.630   3.338  15.652  0.00  0.00    +0.000 HD
BRANCH  19  21
ATOM     21  C   UNL     1      47.406   4.396  17.216  0.00  0.00    +0.000 C 
BRANCH  21  22
ATOM     22  C   UNL     1      48.657   3.565  17.155  0.00  0.00    +0.000 A 
ATOM     23  C   UNL     1      49.821   3.947  17.832  0.00  0.00    +0.000 A 
ATOM     24  C   UNL     1      50.952   3.141  17.772  0.00  0.00    +0.000 A 
ATOM     25  C   UNL     1      50.887   1.976  17.028  0.00  0.00    +0.000 A 
ATOM     26  N   UNL     1      49.789   1.580  16.347  0.00  0.00    +0.000 NA
ATOM     27  C   UNL     1      48.703   2.381  16.427  0.00  0.00    +0.000 A 
ENDBRANCH  21  22
ENDBRANCH  19  21
ENDBRANCH  18  19
ENDBRANCH   4  18
TORSDOF 8
ENDMDL
MODEL 2
REMARK VINA RESULT:    -7.764      1.431      2.287
REMARK INTER + INTRA:         -11.986
REMARK INTER:                 -10.909
REMARK INTRA:                  -1.077
REMARK UNBOUND:                -0.818
REMARK  Name = 
REMARK  8 active torsions:
REMARK  status: ('A' for Active; 'I' for Inactive)
REMARK    1  A    between atoms: N_1  and  C_2
REMARK    2  A    between atoms: C_2  and  C_3
REMARK    3  A    between atoms: C_2  and  C_10
REMARK    4  A    between atoms: C_3  and  C_4
REMARK    5  A    between atoms: C_13  and  C_14
REMARK    6  A    between atoms: C_14  and  N_15
REMARK    7  A    between atoms: N_15  and  C_16
REMARK    8  A    between atoms: C_16  and  C_17
REMARK                            x       y       z     vdW  Elec       q    Type
REMARK                         _______ _______ _______ _____ _____    ______ ____
ROOT
ATOM      1  C   UNL     1      45.431   4.380  11.215  0.00  0.00    +0.000 A 
ATOM      2  C   UNL     1      45.778   5.675  10.788  0.00  0.00    +0.000 A 
ATOM      3  C   UNL     1      46.521   6.535  11.597  0.00  0.00    +0.000 A 
ATOM      4  C   UNL     1      46.913   6.145  12.881  0.00  0.00    +0.000 A 
ATOM      5  C   UNL     1      46.514   4.888  13.346  0.00  0.00    +0.000 A 
ATOM      6  C   UNL     1      45.779   4.020  12.527  0.00  0.00    +0.000 A 
ENDROOT
BRANCH   1   7
ATOM      7  C   UNL     1      44.654   3.455  10.274  0.00  0.00    +0.000 C 
BRANCH   7   8
ATOM      8  N   UNL     1      43.218   3.468  10.620  0.00  0.00    +0.000 NA
ATOM      9  H   UNL     1      42.958   4.392  10.964  0.00  0.00    +0.000 HD
ATOM     10  H   UNL     1      43.063   2.822  11.393  0.00  0.00    +0.000 HD
ENDBRANCH   7   8
BRANCH   7  11
ATOM     11  C   UNL     1      44.827   3.777   8.761  0.00  0.00    +0.000 C 
BRANCH  11  12
ATOM     12  C   UNL     1      45.850   2.923   8.040  0.00  0.00    +0.000 A 
ATOM     13  C   UNL     1      46.686   3.473   7.064  0.00  0.00    +0.000 A 
ATOM     14  C   UNL     1      47.614   2.652   6.442  0.00  0.00    +0.000 A 
ATOM     15  N   UNL     1      47.762   1.341   6.719  0.00  0.00    +0.000 NA
ATOM     16  C   UNL     1      46.952   0.827   7.668  0.00  0.00    +0.000 A 
ATOM     17  C   UNL     1      45.998   1.566   8.349  0.00  0.00    +0.000 A 
ENDBRANCH  11  12
ENDBRANCH   7  11
ENDBRANCH   1   7
BRANCH   4  18
ATOM     18  C   UNL     1      47.770   7.054  13.727  0.00  0.00    +0.000 C 
BRANCH  18  19
ATOM     19  N   UNL     1      48.775   6.292  14.460  0.00  0.00    +0.000 NA
ATOM     20  H   UNL     1      49.696   6.501  14.077  0.00  0.00    +0.000 HD
BRANCH  19  21
ATOM     21  C   UNL     1      48.754   6.606  15.885  0.00  0.00    +0.000 C 
BRANCH  21  22
ATOM     22  C   UNL     1      48.637   5.347  16.700  0.00  0.00    +0.000 A 
ATOM     23  C   UNL     1      47.473   4.571  16.678  0.00  0.00    +0.000 A 
ATOM     24  C   UNL     1      47.408   3.400  17.427  0.00  0.00    +0.000 A 
ATOM     25  C   UNL     1      48.512   3.045  18.181  0.00  0.00    +0.000 A 
ATOM     26  N   UNL     1      49.648   3.774  18.242  0.00  0.00    +0.000 NA
ATOM     27  C   UNL     1      49.684   4.905  17.501  0.00  0.00    +0.000 A 
ENDBRANCH  21  22
ENDBRANCH  19  21
ENDBRANCH  18  19
ENDBRANCH   4  18
TORSDOF 8
ENDMDL
MODEL 3
REMARK VINA RESULT:    -7.604      3.745      6.589
REMARK INTER + INTRA:         -11.757
REMARK INTER:                 -10.637
REMARK INTRA:                  -1.120
REMARK UNBOUND:                -0.818
REMARK  Name = 
REMARK  8 active torsions:
REMARK  status: ('A' for Active; 'I' for Inactive)
REMARK    1  A    between atoms: N_1  and  C_2
REMARK    2  A    between atoms: C_2  and  C_3
REMARK    3  A    between atoms: C_2  and  C_10
REMARK    4  A    between atoms: C_3  and  C_4
REMARK    5  A    between atoms: C_13  and  C_14
REMARK    6  A    between atoms: C_14  and  N_15
REMARK    7  A    between atoms: N_15  and  C_16
REMARK    8  A    between atoms: C_16  and  C_17
REMARK                            x       y       z     vdW  Elec       q    Type
REMARK                         _______ _______ _______ _____ _____    ______ ____
ROOT
ATOM      1  C   UNL     1      45.145   4.185  11.299  0.00  0.00    +0.000 A 
ATOM      2  C   UNL     1      45.404   5.348  10.553  0.00  0.00    +0.000 A 
ATOM      3  C   UNL     1      45.929   6.496  11.147  0.00  0.00    +0.000 A 
ATOM      4  C   UNL     1      46.180   6.534  12.522  0.00  0.00    +0.000 A 
ATOM      5  C   UNL     1      45.861   5.410  13.290  0.00  0.00    +0.000 A 
ATOM      6  C   UNL     1      45.346   4.254  12.688  0.00  0.00    +0.000 A 
ENDROOT
BRANCH   1   7
ATOM      7  C   UNL     1      44.611   2.935  10.594  0.00  0.00    +0.000 C 
BRANCH   7   8
ATOM      8  N   UNL     1      43.305   2.548  11.166  0.00  0.00    +0.000 NA
ATOM      9  H   UNL     1      43.448   2.110  12.076  0.00  0.00    +0.000 HD
ATOM     10  H   UNL     1      42.887   1.836  10.568  0.00  0.00    +0.000 HD
ENDBRANCH   7   8
BRANCH   7  11
ATOM     11  C   UNL     1      44.483   3.069   9.048  0.00  0.00    +0.000 C 
BRANCH  11  12
ATOM     12  C   UNL     1      45.666   2.543   8.262  0.00  0.00    +0.000 A 
ATOM     13  C   UNL     1      46.504   3.412   7.558  0.00  0.00    +0.000 A 
ATOM     14  C   UNL     1      47.581   2.881   6.864  0.00  0.00    +0.000 A 
ATOM     15  N   UNL     1      47.874   1.566   6.822  0.00  0.00    +0.000 NA
ATOM     16  C   UNL     1      47.059   0.742   7.513  0.00  0.00    +0.000 A 
ATOM     17  C   UNL     1      45.962   1.174   8.240  0.00  0.00    +0.000 A 
ENDBRANCH  11  12
ENDBRANCH   7  11
ENDBRANCH   1   7
BRANCH   4  18
ATOM     18  C   UNL     1      46.808   7.755  13.150  0.00  0.00    +0.000 C 
BRANCH  18  19
ATOM     19  N   UNL     1      45.863   8.865  13.192  0.00  0.00    +0.000 NA
ATOM     20  H   UNL     1      45.858   9.262  14.131  0.00  0.00    +0.000 HD
BRANCH  19  21
ATOM     21  C   UNL     1      46.207   9.901  12.223  0.00  0.00    +0.000 C 
BRANCH  21  22
ATOM     22  C   UNL     1      44.973  10.395  11.520  0.00  0.00    +0.000 A 
ATOM     23  C   UNL     1      44.057   9.507  10.944  0.00  0.00    +0.000 A 
ATOM     24  C   UNL     1      42.915   9.998  10.322  0.00  0.00    +0.000 A 
ATOM     25  C   UNL     1      42.726  11.368  10.288  0.00  0.00    +0.000 A 
ATOM     26  N   UNL     1      43.593  12.260  10.818  0.00  0.00    +0.000 NA
ATOM     27  C   UNL     1      44.692  11.753  11.420  0.00  0.00    +0.000 A 
ENDBRANCH  21  22
ENDBRANCH  19  21
ENDBRANCH  18  19
ENDBRANCH   4  18
TORSDOF 8
ENDMDL
MODEL 4
REMARK VINA RESULT:    -7.492      3.098      7.830
REMARK INTER + INTRA:         -11.595
REMARK INTER:                 -10.472
REMARK INTRA:                  -1.123
REMARK UNBOUND:                -0.818
REMARK  Name = 
REMARK  8 active torsions:
REMARK  status: ('A' for Active; 'I' for Inactive)
REMARK    1  A    between atoms: N_1  and  C_2
REMARK    2  A    between atoms: C_2  and  C_3
REMARK    3  A    between atoms: C_2  and  C_10
REMARK    4  A    between atoms: C_3  and  C_4
REMARK    5  A    between atoms: C_13  and  C_14
REMARK    6  A    between atoms: C_14  and  N_15
REMARK    7  A    between atoms: N_15  and  C_16
REMARK    8  A    between atoms: C_16  and  C_17
REMARK                            x       y       z     vdW  Elec       q    Type
REMARK                         _______ _______ _______ _____ _____    ______ ____
ROOT
ATOM      1  C   UNL     1      46.699   5.949  12.665  0.00  0.00    +0.000 A 
ATOM      2  C   UNL     1      46.282   4.724  13.216  0.00  0.00    +0.000 A 
ATOM      3  C   UNL     1      45.288   3.953  12.613  0.00  0.00    +0.000 A 
ATOM      4  C   UNL     1      44.647   4.397  11.453  0.00  0.00    +0.000 A 
ATOM      5  C   UNL     1      45.001   5.647  10.933  0.00  0.00    +0.000 A 
ATOM      6  C   UNL     1      46.009   6.414  11.533  0.00  0.00    +0.000 A 
ENDROOT
BRANCH   1   7
ATOM      7  C   UNL     1      47.825   6.738  13.337  0.00  0.00    +0.000 C 
BRANCH   7   8
ATOM      8  N   UNL     1      48.095   6.191  14.683  0.00  0.00    +0.000 NA
ATOM      9  H   UNL     1      48.936   6.623  15.065  0.00  0.00    +0.000 HD
ATOM     10  H   UNL     1      48.299   5.196  14.595  0.00  0.00    +0.000 HD
ENDBRANCH   7   8
BRANCH   7  11
ATOM     11  C   UNL     1      49.151   6.796  12.524  0.00  0.00    +0.000 C 
BRANCH  11  12
ATOM     12  C   UNL     1      49.495   8.159  11.961  0.00  0.00    +0.000 A 
ATOM     13  C   UNL     1      50.801   8.463  11.563  0.00  0.00    +0.000 A 
ATOM     14  C   UNL     1      51.062   9.722  11.042  0.00  0.00    +0.000 A 
ATOM     15  N   UNL     1      50.128  10.683  10.896  0.00  0.00    +0.000 NA
ATOM     16  C   UNL     1      48.872  10.371  11.279  0.00  0.00    +0.000 A 
ATOM     17  C   UNL     1      48.511   9.142  11.805  0.00  0.00    +0.000 A 
ENDBRANCH  11  12
ENDBRANCH   7  11
ENDBRANCH   1   7
BRANCH   4  18
ATOM     18  C   UNL     1      43.619   3.531  10.768  0.00  0.00    +0.000 C 
BRANCH  18  19
ATOM     19  N   UNL     1      44.016   3.232   9.397  0.00  0.00    +0.000 NA
ATOM     20  H   UNL     1      44.492   4.043   9.005  0.00  0.00    +0.000 HD
BRANCH  19  21
ATOM     21  C   UNL     1      44.894   2.068   9.333  0.00  0.00    +0.000 C 
BRANCH  21  22
ATOM     22  C   UNL     1      45.850   2.192   8.179  0.00  0.00    +0.000 A 
ATOM     23  C   UNL     1      45.960   3.380   7.448  0.00  0.00    +0.000 A 
ATOM     24  C   UNL     1      46.872   3.466   6.401  0.00  0.00    +0.000 A 
ATOM     25  C   UNL     1      47.643   2.354   6.113  0.00  0.00    +0.000 A 
ATOM     26  N   UNL     1      47.557   1.185   6.783  0.00  0.00    +0.000 NA
ATOM     27  C   UNL     1      46.665   1.131   7.798  0.00  0.00    +0.000 A 
ENDBRANCH  21  22
ENDBRANCH  19  21
ENDBRANCH  18  19
ENDBRANCH   4  18
TORSDOF 8
ENDMDL
MODEL 5
REMARK VINA RESULT:    -7.173      2.046      2.910
REMARK INTER + INTRA:         -11.136
REMARK INTER:                  -9.824
REMARK INTRA:                  -1.312
REMARK UNBOUND:                -0.818
REMARK  Name = 
REMARK  8 active torsions:
REMARK  status: ('A' for Active; 'I' for Inactive)
REMARK    1  A    between atoms: N_1  and  C_2
REMARK    2  A    between atoms: C_2  and  C_3
REMARK    3  A    between atoms: C_2  and  C_10
REMARK    4  A    between atoms: C_3  and  C_4
REMARK    5  A    between atoms: C_13  and  C_14
REMARK    6  A    between atoms: C_14  and  N_15
REMARK    7  A    between atoms: N_15  and  C_16
REMARK    8  A    between atoms: C_16  and  C_17
REMARK                            x       y       z     vdW  Elec       q    Type
REMARK                         _______ _______ _______ _____ _____    ______ ____
ROOT
ATOM      1  C   UNL     1      45.000   5.460  12.726  0.00  0.00    +0.000 A 
ATOM      2  C   UNL     1      46.131   4.669  12.998  0.00  0.00    +0.000 A 
ATOM      3  C   UNL     1      47.371   5.240  13.283  0.00  0.00    +0.000 A 
ATOM      4  C   UNL     1      47.535   6.628  13.270  0.00  0.00    +0.000 A 
ATOM      5  C   UNL     1      46.438   7.427  12.931  0.00  0.00    +0.000 A 
ATOM      6  C   UNL     1      45.190   6.850  12.658  0.00  0.00    +0.000 A 
ENDROOT
BRANCH   1   7
ATOM      7  C   UNL     1      43.650   4.788  12.464  0.00  0.00    +0.000 C 
BRANCH   7   8
ATOM      8  N   UNL     1      42.603   5.408  13.301  0.00  0.00    +0.000 NA
ATOM      9  H   UNL     1      42.919   6.322  13.622  0.00  0.00    +0.000 HD
ATOM     10  H   UNL     1      42.476   4.839  14.138  0.00  0.00    +0.000 HD
ENDBRANCH   7   8
BRANCH   7  11
ATOM     11  C   UNL     1      43.199   4.800  10.974  0.00  0.00    +0.000 C 
BRANCH  11  12
ATOM     12  C   UNL     1      44.122   4.068  10.022  0.00  0.00    +0.000 A 
ATOM     13  C   UNL     1      44.955   4.771   9.145  0.00  0.00    +0.000 A 
ATOM     14  C   UNL     1      45.790   4.054   8.302  0.00  0.00    +0.000 A 
ATOM     15  N   UNL     1      45.851   2.707   8.271  0.00  0.00    +0.000 NA
ATOM     16  C   UNL     1      45.046   2.045   9.128  0.00  0.00    +0.000 A 
ATOM     17  C   UNL     1      44.181   2.669  10.011  0.00  0.00    +0.000 A 
ENDBRANCH  11  12
ENDBRANCH   7  11
ENDBRANCH   1   7
BRANCH   4  18
ATOM     18  C   UNL     1      48.862   7.244  13.642  0.00  0.00    +0.000 C 
BRANCH  18  19
ATOM     19  N   UNL     1      49.512   6.484  14.704  0.00  0.00    +0.000 NA
ATOM     20  H   UNL     1      50.503   6.720  14.723  0.00  0.00    +0.000 HD
BRANCH  19  21
ATOM     21  C   UNL     1      48.915   6.763  16.006  0.00  0.00    +0.000 C 
BRANCH  21  22
ATOM     22  C   UNL     1      48.748   5.493  16.793  0.00  0.00    +0.000 A 
ATOM     23  C   UNL     1      47.657   4.643  16.583  0.00  0.00    +0.000 A 
ATOM     24  C   UNL     1      47.547   3.464  17.312  0.00  0.00    +0.000 A 
ATOM     25  C   UNL     1      48.534   3.174  18.238  0.00  0.00    +0.000 A 
ATOM     26  N   UNL     1      49.595   3.974  18.482  0.00  0.00    +0.000 NA
ATOM     27  C   UNL     1      49.677   5.111  17.755  0.00  0.00    +0.000 A 
ENDBRANCH  21  22
ENDBRANCH  19  21
ENDBRANCH  18  19
ENDBRANCH   4  18
TORSDOF 8
ENDMDL
MODEL 6
REMARK VINA RESULT:    -7.025      1.826      8.445
REMARK INTER + INTRA:         -10.924
REMARK INTER:                 -10.072
REMARK INTRA:                  -0.852
REMARK UNBOUND:                -0.818
REMARK  Name = 
REMARK  8 active torsions:
REMARK  status: ('A' for Active; 'I' for Inactive)
REMARK    1  A    between atoms: N_1  and  C_2
REMARK    2  A    between atoms: C_2  and  C_3
REMARK    3  A    between atoms: C_2  and  C_10
REMARK    4  A    between atoms: C_3  and  C_4
REMARK    5  A    between atoms: C_13  and  C_14
REMARK    6  A    between atoms: C_14  and  N_15
REMARK    7  A    between atoms: N_15  and  C_16
REMARK    8  A    between atoms: C_16  and  C_17
REMARK                            x       y       z     vdW  Elec       q    Type
REMARK                         _______ _______ _______ _____ _____    ______ ____
ROOT
ATOM      1  C   UNL     1      47.846   6.482  13.386  0.00  0.00    +0.000 A 
ATOM      2  C   UNL     1      47.011   5.418  13.775  0.00  0.00    +0.000 A 
ATOM      3  C   UNL     1      45.999   4.941  12.941  0.00  0.00    +0.000 A 
ATOM      4  C   UNL     1      45.761   5.537  11.699  0.00  0.00    +0.000 A 
ATOM      5  C   UNL     1      46.535   6.641  11.329  0.00  0.00    +0.000 A 
ATOM      6  C   UNL     1      47.560   7.110  12.163  0.00  0.00    +0.000 A 
ENDROOT
BRANCH   1   7
ATOM      7  C   UNL     1      48.971   6.940  14.316  0.00  0.00    +0.000 C 
BRANCH   7   8
ATOM      8  N   UNL     1      49.380   8.320  13.979  0.00  0.00    +0.000 NA
ATOM      9  H   UNL     1      49.175   8.937  14.764  0.00  0.00    +0.000 HD
ATOM     10  H   UNL     1      48.808   8.647  13.201  0.00  0.00    +0.000 HD
ENDBRANCH   7   8
BRANCH   7  11
ATOM     11  C   UNL     1      48.634   6.854  15.834  0.00  0.00    +0.000 C 
BRANCH  11  12
ATOM     12  C   UNL     1      49.345   5.748  16.584  0.00  0.00    +0.000 A 
ATOM     13  C   UNL     1      50.705   5.848  16.893  0.00  0.00    +0.000 A 
ATOM     14  C   UNL     1      51.307   4.814  17.593  0.00  0.00    +0.000 A 
ATOM     15  N   UNL     1      50.659   3.703  17.997  0.00  0.00    +0.000 NA
ATOM     16  C   UNL     1      49.346   3.625  17.697  0.00  0.00    +0.000 A 
ATOM     17  C   UNL     1      48.654   4.606  17.007  0.00  0.00    +0.000 A 
ENDBRANCH  11  12
ENDBRANCH   7  11
ENDBRANCH   1   7
BRANCH   4  18
ATOM     18  C   UNL     1      44.708   4.977  10.774  0.00  0.00    +0.000 C 
BRANCH  18  19
ATOM     19  N   UNL     1      45.138   5.060   9.382  0.00  0.00    +0.000 NA
ATOM     20  H   UNL     1      46.149   4.947   9.339  0.00  0.00    +0.000 HD
BRANCH  19  21
ATOM     21  C   UNL     1      44.494   4.041   8.559  0.00  0.00    +0.000 C 
BRANCH  21  22
ATOM     22  C   UNL     1      45.514   3.077   8.020  0.00  0.00    +0.000 A 
ATOM     23  C   UNL     1      46.402   3.447   7.004  0.00  0.00    +0.000 A 
ATOM     24  C   UNL     1      47.348   2.537   6.547  0.00  0.00    +0.000 A 
ATOM     25  C   UNL     1      47.373   1.277   7.118  0.00  0.00    +0.000 A 
ATOM     26  N   UNL     1      46.524   0.875   8.090  0.00  0.00    +0.000 NA
ATOM     27  C   UNL     1      45.618   1.782   8.517  0.00  0.00    +0.000 A 
ENDBRANCH  21  22
ENDBRANCH  19  21
ENDBRANCH  18  19
ENDBRANCH   4  18
TORSDOF 8
ENDMDL
MODEL 7
REMARK VINA RESULT:    -7.025      3.317      4.957
REMARK INTER + INTRA:         -10.923
REMARK INTER:                  -9.791
REMARK INTRA:                  -1.133
REMARK UNBOUND:                -0.818
REMARK  Name = 
REMARK  8 active torsions:
REMARK  status: ('A' for Active; 'I' for Inactive)
REMARK    1  A    between atoms: N_1  and  C_2
REMARK    2  A    between atoms: C_2  and  C_3
REMARK    3  A    between atoms: C_2  and  C_10
REMARK    4  A    between atoms: C_3  and  C_4
REMARK    5  A    between atoms: C_13  and  C_14
REMARK    6  A    between atoms: C_14  and  N_15
REMARK    7  A    between atoms: N_15  and  C_16
REMARK    8  A    between atoms: C_16  and  C_17
REMARK                            x       y       z     vdW  Elec       q    Type
REMARK                         _______ _______ _______ _____ _____    ______ ____
ROOT
ATOM      1  C   UNL     1      45.191   4.447  11.588  0.00  0.00    +0.000 A 
ATOM      2  C   UNL     1      45.726   3.802  12.717  0.00  0.00    +0.000 A 
ATOM      3  C   UNL     1      46.653   4.432  13.548  0.00  0.00    +0.000 A 
ATOM      4  C   UNL     1      47.109   5.721  13.257  0.00  0.00    +0.000 A 
ATOM      5  C   UNL     1      46.640   6.349  12.098  0.00  0.00    +0.000 A 
ATOM      6  C   UNL     1      45.698   5.718  11.273  0.00  0.00    +0.000 A 
ENDROOT
BRANCH   1   7
ATOM      7  C   UNL     1      44.142   3.732  10.733  0.00  0.00    +0.000 C 
BRANCH   7   8
ATOM      8  N   UNL     1      42.785   4.044  11.226  0.00  0.00    +0.000 NA
ATOM      9  H   UNL     1      42.124   4.009  10.451  0.00  0.00    +0.000 HD
ATOM     10  H   UNL     1      42.776   5.005  11.568  0.00  0.00    +0.000 HD
ENDBRANCH   7   8
BRANCH   7  11
ATOM     11  C   UNL     1      44.226   4.043   9.210  0.00  0.00    +0.000 C 
BRANCH  11  12
ATOM     12  C   UNL     1      45.301   3.284   8.461  0.00  0.00    +0.000 A 
ATOM     13  C   UNL     1      46.170   3.944   7.586  0.00  0.00    +0.000 A 
ATOM     14  C   UNL     1      47.146   3.206   6.934  0.00  0.00    +0.000 A 
ATOM     15  N   UNL     1      47.312   1.877   7.090  0.00  0.00    +0.000 NA
ATOM     16  C   UNL     1      46.471   1.257   7.943  0.00  0.00    +0.000 A 
ATOM     17  C   UNL     1      45.468   1.906   8.644  0.00  0.00    +0.000 A 
ENDBRANCH  11  12
ENDBRANCH   7  11
ENDBRANCH   1   7
BRANCH   4  18
ATOM     18  C   UNL     1      48.062   6.423  14.192  0.00  0.00    +0.000 C 
BRANCH  18  19
ATOM     19  N   UNL     1      49.340   6.684  13.538  0.00  0.00    +0.000 NA
ATOM     20  H   UNL     1      49.196   6.718  12.530  0.00  0.00    +0.000 HD
BRANCH  19  21
ATOM     21  C   UNL     1      49.930   7.939  13.992  0.00  0.00    +0.000 C 
BRANCH  21  22
ATOM     22  C   UNL     1      49.946   8.948  12.877  0.00  0.00    +0.000 A 
ATOM     23  C   UNL     1      48.781   9.279  12.177  0.00  0.00    +0.000 A 
ATOM     24  C   UNL     1      48.828  10.234  11.167  0.00  0.00    +0.000 A 
ATOM     25  C   UNL     1      50.046  10.825  10.883  0.00  0.00    +0.000 A 
ATOM     26  N   UNL     1      51.196  10.523  11.524  0.00  0.00    +0.000 NA
ATOM     27  C   UNL     1      51.119   9.595  12.504  0.00  0.00    +0.000 A 
ENDBRANCH  21  22
ENDBRANCH  19  21
ENDBRANCH  18  19
ENDBRANCH   4  18
TORSDOF 8
ENDMDL
MODEL 8
REMARK VINA RESULT:    -6.868      2.666      3.702
REMARK INTER + INTRA:         -10.698
REMARK INTER:                  -9.498
REMARK INTRA:                  -1.199
REMARK UNBOUND:                -0.818
REMARK  Name = 
REMARK  8 active torsions:
REMARK  status: ('A' for Active; 'I' for Inactive)
REMARK    1  A    between atoms: N_1  and  C_2
REMARK    2  A    between atoms: C_2  and  C_3
REMARK    3  A    between atoms: C_2  and  C_10
REMARK    4  A    between atoms: C_3  and  C_4
REMARK    5  A    between atoms: C_13  and  C_14
REMARK    6  A    between atoms: C_14  and  N_15
REMARK    7  A    between atoms: N_15  and  C_16
REMARK    8  A    between atoms: C_16  and  C_17
REMARK                            x       y       z     vdW  Elec       q    Type
REMARK                         _______ _______ _______ _____ _____    ______ ____
ROOT
ATOM      1  C   UNL     1      45.147   4.542  11.985  0.00  0.00    +0.000 A 
ATOM      2  C   UNL     1      44.499   5.673  11.455  0.00  0.00    +0.000 A 
ATOM      3  C   UNL     1      44.891   6.967  11.799  0.00  0.00    +0.000 A 
ATOM      4  C   UNL     1      45.924   7.178  12.716  0.00  0.00    +0.000 A 
ATOM      5  C   UNL     1      46.531   6.064  13.306  0.00  0.00    +0.000 A 
ATOM      6  C   UNL     1      46.144   4.765  12.949  0.00  0.00    +0.000 A 
ENDROOT
BRANCH   1   7
ATOM      7  C   UNL     1      44.711   3.143  11.544  0.00  0.00    +0.000 C 
BRANCH   7   8
ATOM      8  N   UNL     1      43.721   2.595  12.494  0.00  0.00    +0.000 NA
ATOM      9  H   UNL     1      43.043   2.025  11.990  0.00  0.00    +0.000 HD
ATOM     10  H   UNL     1      43.199   3.369  12.902  0.00  0.00    +0.000 HD
ENDBRANCH   7   8
BRANCH   7  11
ATOM     11  C   UNL     1      44.139   3.068  10.097  0.00  0.00    +0.000 C 
BRANCH  11  12
ATOM     12  C   UNL     1      45.179   2.914   9.007  0.00  0.00    +0.000 A 
ATOM     13  C   UNL     1      45.700   1.658   8.684  0.00  0.00    +0.000 A 
ATOM     14  C   UNL     1      46.641   1.568   7.669  0.00  0.00    +0.000 A 
ATOM     15  N   UNL     1      47.092   2.628   6.967  0.00  0.00    +0.000 NA
ATOM     16  C   UNL     1      46.574   3.831   7.287  0.00  0.00    +0.000 A 
ATOM     17  C   UNL     1      45.627   4.023   8.280  0.00  0.00    +0.000 A 
ENDBRANCH  11  12
ENDBRANCH   7  11
ENDBRANCH   1   7
BRANCH   4  18
ATOM     18  C   UNL     1      46.388   8.578  13.035  0.00  0.00    +0.000 C 
BRANCH  18  19
ATOM     19  N   UNL     1      47.758   8.792  12.582  0.00  0.00    +0.000 NA
ATOM     20  H   UNL     1      47.741   9.330  11.717  0.00  0.00    +0.000 HD
BRANCH  19  21
ATOM     21  C   UNL     1      48.551   9.497  13.583  0.00  0.00    +0.000 C 
BRANCH  21  22
ATOM     22  C   UNL     1      48.883   8.584  14.731  0.00  0.00    +0.000 A 
ATOM     23  C   UNL     1      48.443   8.858  16.031  0.00  0.00    +0.000 A 
ATOM     24  C   UNL     1      48.748   7.980  17.064  0.00  0.00    +0.000 A 
ATOM     25  C   UNL     1      49.493   6.852  16.765  0.00  0.00    +0.000 A 
ATOM     26  N   UNL     1      49.950   6.559  15.528  0.00  0.00    +0.000 NA
ATOM     27  C   UNL     1      49.634   7.429  14.543  0.00  0.00    +0.000 A 
ENDBRANCH  21  22
ENDBRANCH  19  21
ENDBRANCH  18  19
ENDBRANCH   4  18
TORSDOF 8
ENDMDL
MODEL 9
REMARK VINA RESULT:    -6.659      2.380      8.313
REMARK INTER + INTRA:         -10.398
REMARK INTER:                  -9.636
REMARK INTRA:                  -0.761
REMARK UNBOUND:                -0.818
REMARK  Name = 
REMARK  8 active torsions:
REMARK  status: ('A' for Active; 'I' for Inactive)
REMARK    1  A    between atoms: N_1  and  C_2
REMARK    2  A    between atoms: C_2  and  C_3
REMARK    3  A    between atoms: C_2  and  C_10
REMARK    4  A    between atoms: C_3  and  C_4
REMARK    5  A    between atoms: C_13  and  C_14
REMARK    6  A    between atoms: C_14  and  N_15
REMARK    7  A    between atoms: N_15  and  C_16
REMARK    8  A    between atoms: C_16  and  C_17
REMARK                            x       y       z     vdW  Elec       q    Type
REMARK                         _______ _______ _______ _____ _____    ______ ____
ROOT
ATOM      1  C   UNL     1      46.786   6.624  13.266  0.00  0.00    +0.000 A 
ATOM      2  C   UNL     1      45.509   6.987  12.800  0.00  0.00    +0.000 A 
ATOM      3  C   UNL     1      44.558   6.026  12.455  0.00  0.00    +0.000 A 
ATOM      4  C   UNL     1      44.862   4.664  12.529  0.00  0.00    +0.000 A 
ATOM      5  C   UNL     1      46.151   4.289  12.923  0.00  0.00    +0.000 A 
ATOM      6  C   UNL     1      47.101   5.256  13.281  0.00  0.00    +0.000 A 
ENDROOT
BRANCH   1   7
ATOM      7  C   UNL     1      47.780   7.714  13.675  0.00  0.00    +0.000 C 
BRANCH   7   8
ATOM      8  N   UNL     1      47.117   8.708  14.543  0.00  0.00    +0.000 NA
ATOM      9  H   UNL     1      47.529   9.627  14.387  0.00  0.00    +0.000 HD
ATOM     10  H   UNL     1      47.309   8.470  15.516  0.00  0.00    +0.000 HD
ENDBRANCH   7   8
BRANCH   7  11
ATOM     11  C   UNL     1      49.067   7.187  14.376  0.00  0.00    +0.000 C 
BRANCH  11  12
ATOM     12  C   UNL     1      48.961   7.042  15.879  0.00  0.00    +0.000 A 
ATOM     13  C   UNL     1      48.607   5.820  16.460  0.00  0.00    +0.000 A 
ATOM     14  C   UNL     1      48.536   5.735  17.842  0.00  0.00    +0.000 A 
ATOM     15  N   UNL     1      48.786   6.768  18.672  0.00  0.00    +0.000 NA
ATOM     16  C   UNL     1      49.133   7.938  18.095  0.00  0.00    +0.000 A 
ATOM     17  C   UNL     1      49.236   8.121  16.727  0.00  0.00    +0.000 A 
ENDBRANCH  11  12
ENDBRANCH   7  11
ENDBRANCH   1   7
BRANCH   4  18
ATOM     18  C   UNL     1      43.809   3.628  12.217  0.00  0.00    +0.000 C 
BRANCH  18  19
ATOM     19  N   UNL     1      44.227   2.776  11.109  0.00  0.00    +0.000 NA
ATOM     20  H   UNL     1      43.661   1.929  11.110  0.00  0.00    +0.000 HD
BRANCH  19  21
ATOM     21  C   UNL     1      44.089   3.458   9.826  0.00  0.00    +0.000 C 
BRANCH  21  22
ATOM     22  C   UNL     1      45.159   3.005   8.871  0.00  0.00    +0.000 A 
ATOM     23  C   UNL     1      45.795   3.905   8.009  0.00  0.00    +0.000 A 
ATOM     24  C   UNL     1      46.797   3.455   7.157  0.00  0.00    +0.000 A 
ATOM     25  C   UNL     1      47.128   2.112   7.188  0.00  0.00    +0.000 A 
ATOM     26  N   UNL     1      46.528   1.208   7.993  0.00  0.00    +0.000 NA
ATOM     27  C   UNL     1      45.560   1.675   8.814  0.00  0.00    +0.000 A 
ENDBRANCH  21  22
ENDBRANCH  19  21
ENDBRANCH  18  19
ENDBRANCH   4  18
TORSDOF 8
ENDMDL
