MODEL 1
REMARK VINA RESULT:    -8.313      0.000      0.000
REMARK INTER + INTRA:         -12.061
REMARK INTER:                 -11.229
REMARK INTRA:                  -0.832
REMARK UNBOUND:                -0.832
REMARK  Name = 
REMARK  6 active torsions:
REMARK  status: ('A' for Active; 'I' for Inactive)
REMARK    1  A    between atoms: C_2  and  C_4
REMARK    2  A    between atoms: C_8  and  O_9
REMARK    3  A    between atoms: O_9  and  C_10
REMARK    4  A    between atoms: C_10  and  C_11
REMARK    5  A    between atoms: C_11  and  C_12
REMARK    6  A    between atoms: C_17  and  C_18
REMARK                            x       y       z     vdW  Elec       q    Type
REMARK                         _______ _______ _______ _____ _____    ______ ____
ROOT
ATOM      1  C   UNL     1      45.837   7.472  11.447  0.00  0.00    +0.000 C 
ENDROOT
BRANCH   1   2
ATOM      2  C   UNL     1      45.208   6.165  11.006  0.00  0.00    +0.000 A 
ATOM      3  C   UNL     1      44.029   5.701  11.602  0.00  0.00    +0.000 A 
ATOM      4  C   UNL     1      43.449   4.510  11.161  0.00  0.00    +0.000 A 
ATOM      5  F   UNL     1      42.322   4.079  11.744  0.00  0.00    +0.000 F 
ATOM      6  C   UNL     1      44.012   3.764  10.138  0.00  0.00    +0.000 A 
ATOM      7  C   UNL     1      45.198   4.194   9.517  0.00  0.00    +0.000 A 
ATOM      8  C   UNL     1      45.771   5.401   9.968  0.00  0.00    +0.000 A 
BRANCH   7   9
ATOM      9  C   UNL     1      45.827   3.413   8.431  0.00  0.00    +0.000 A 
ATOM     10  C   UNL     1      46.303   4.030   7.261  0.00  0.00    +0.000 A 
ATOM     11  C   UNL     1      46.893   3.286   6.236  0.00  0.00    +0.000 A 
ATOM     12  C   UNL     1      47.027   1.907   6.364  0.00  0.00    +0.000 A 
ATOM     13  C   UNL     1      46.565   1.276   7.514  0.00  0.00    +0.000 A 
ATOM     14 CL   UNL     1      46.711  -0.430   7.678  0.00  0.00    +0.000 Cl
ATOM     15  C   UNL     1      45.970   2.016   8.534  0.00  0.00    +0.000 A 
ENDBRANCH   7   9
ENDBRANCH   1   2
BRANCH   1  16
ATOM     16  C   UNL     1      46.516   7.356  12.815  0.00  0.00    +0.000 C 
BRANCH  16  17
ATOM     17  O   UNL     1      47.303   6.147  12.936  0.00  0.00    +0.000 OA
BRANCH  17  22
ATOM     18  C   UNL     1      47.950   4.675  16.118  0.00  0.00    +0.000 A 
ATOM     19  C   UNL     1      48.671   5.637  16.808  0.00  0.00    +0.000 A 
ATOM     20  C   UNL     1      48.948   6.833  16.147  0.00  0.00    +0.000 A 
ATOM     21  C   UNL     1      48.495   7.022  14.836  0.00  0.00    +0.000 A 
ATOM     22  C   UNL     1      47.777   5.995  14.234  0.00  0.00    +0.000 A 
ATOM     23  N   UNL     1      47.505   4.831  14.853  0.00  0.00    +0.000 NA
BRANCH  18  25
ATOM     24  N   UNL     1      48.604   2.405  16.714  0.00  0.00    +0.000 N 
ATOM     25  C   UNL     1      47.626   3.365  16.753  0.00  0.00    +0.000 C 
ATOM     26  O   UNL     1      46.552   3.155  17.303  0.00  0.00    +0.000 OA
ATOM     27  H   UNL     1      48.441   1.548  17.221  0.00  0.00    +0.000 HD
ATOM     28  H   UNL     1      49.540   2.637  16.406  0.00  0.00    +0.000 HD
ENDBRANCH  18  25
ENDBRANCH  17  22
ENDBRANCH  16  17
ENDBRANCH   1  16
TORSDOF 6
ENDMDL
MODEL 2
REMARK VINA RESULT:    -7.898      4.228      7.597
REMARK INTER + INTRA:         -11.500
REMARK INTER:                 -10.479
REMARK INTRA:                  -1.021
REMARK UNBOUND:                -0.832
REMARK  Name = 
REMARK  6 active torsions:
REMARK  status: ('A' for Active; 'I' for Inactive)
REMARK    1  A    between atoms: C_2  and  C_4
REMARK    2  A    between atoms: C_8  and  O_9
REMARK    3  A    between atoms: O_9  and  C_10
REMARK    4  A    between atoms: C_10  and  C_11
REMARK    5  A    between atoms: C_11  and  C_12
REMARK    6  A    between atoms: C_17  and  C_18
REMARK                            x       y       z     vdW  Elec       q    Type
REMARK                         _______ _______ _______ _____ _____    ______ ____
ROOT
ATOM      1  C   UNL     1      43.717   5.758  11.351  0.00  0.00    +0.000 C 
ENDROOT
BRANCH   1   2
ATOM      2  C   UNL     1      45.043   5.818  12.083  0.00  0.00    +0.000 A 
ATOM      3  C   UNL     1      45.351   4.889  13.083  0.00  0.00    +0.000 A 
ATOM      4  C   UNL     1      46.590   4.943  13.726  0.00  0.00    +0.000 A 
ATOM      5  F   UNL     1      46.868   4.048  14.682  0.00  0.00    +0.000 F 
ATOM      6  C   UNL     1      47.536   5.901  13.397  0.00  0.00    +0.000 A 
ATOM      7  C   UNL     1      47.263   6.855  12.401  0.00  0.00    +0.000 A 
ATOM      8  C   UNL     1      46.010   6.786  11.757  0.00  0.00    +0.000 A 
BRANCH   7   9
ATOM      9  C   UNL     1      48.248   7.895  12.038  0.00  0.00    +0.000 A 
ATOM     10  C   UNL     1      47.910   9.259  12.030  0.00  0.00    +0.000 A 
ATOM     11  C   UNL     1      48.845  10.238  11.683  0.00  0.00    +0.000 A 
ATOM     12  C   UNL     1      50.143   9.871  11.343  0.00  0.00    +0.000 A 
ATOM     13  C   UNL     1      50.500   8.527  11.345  0.00  0.00    +0.000 A 
ATOM     14 CL   UNL     1      52.099   8.060  10.911  0.00  0.00    +0.000 Cl
ATOM     15  C   UNL     1      49.567   7.549  11.685  0.00  0.00    +0.000 A 
ENDBRANCH   7   9
ENDBRANCH   1   2
BRANCH   1  16
ATOM     16  C   UNL     1      43.665   4.609  10.340  0.00  0.00    +0.000 C 
BRANCH  16  17
ATOM     17  O   UNL     1      44.487   4.865   9.175  0.00  0.00    +0.000 OA
BRANCH  17  22
ATOM     18  C   UNL     1      46.503   2.662   7.228  0.00  0.00    +0.000 A 
ATOM     19  C   UNL     1      46.264   1.406   7.762  0.00  0.00    +0.000 A 
ATOM     20  C   UNL     1      45.378   1.319   8.835  0.00  0.00    +0.000 A 
ATOM     21  C   UNL     1      44.769   2.479   9.328  0.00  0.00    +0.000 A 
ATOM     22  C   UNL     1      45.077   3.691   8.720  0.00  0.00    +0.000 A 
ATOM     23  N   UNL     1      45.932   3.796   7.687  0.00  0.00    +0.000 NA
BRANCH  18  25
ATOM     24  N   UNL     1      48.783   2.717   6.371  0.00  0.00    +0.000 N 
ATOM     25  C   UNL     1      47.448   2.837   6.087  0.00  0.00    +0.000 C 
ATOM     26  O   UNL     1      47.059   3.056   4.946  0.00  0.00    +0.000 OA
ATOM     27  H   UNL     1      49.431   2.736   5.598  0.00  0.00    +0.000 HD
ATOM     28  H   UNL     1      49.088   2.377   7.275  0.00  0.00    +0.000 HD
ENDBRANCH  18  25
ENDBRANCH  17  22
ENDBRANCH  16  17
ENDBRANCH   1  16
TORSDOF 6
ENDMDL
MODEL 3
REMARK VINA RESULT:    -7.573      2.449      3.478
REMARK INTER + INTRA:         -11.062
REMARK INTER:                 -10.109
REMARK INTRA:                  -0.953
REMARK UNBOUND:                -0.832
REMARK  Name = 
REMARK  6 active torsions:
REMARK  status: ('A' for Active; 'I' for Inactive)
REMARK    1  A    between atoms: C_2  and  C_4
REMARK    2  A    between atoms: C_8  and  O_9
REMARK    3  A    between atoms: O_9  and  C_10
REMARK    4  A    between atoms: C_10  and  C_11
REMARK    5  A    between atoms: C_11  and  C_12
REMARK    6  A    between atoms: C_17  and  C_18
REMARK                            x       y       z     vdW  Elec       q    Type
REMARK                         _______ _______ _______ _____ _____    ______ ____
ROOT
ATOM      1  C   UNL     1      49.221   8.119  12.759  0.00  0.00    +0.000 C 
ENDROOT
BRANCH   1   2
ATOM      2  C   UNL     1      47.753   8.004  12.401  0.00  0.00    +0.000 A 
ATOM      3  C   UNL     1      46.864   9.048  12.680  0.00  0.00    +0.000 A 
ATOM      4  C   UNL     1      45.520   8.935  12.316  0.00  0.00    +0.000 A 
ATOM      5  F   UNL     1      44.683   9.943  12.593  0.00  0.00    +0.000 F 
ATOM      6  C   UNL     1      45.035   7.805  11.676  0.00  0.00    +0.000 A 
ATOM      7  C   UNL     1      45.895   6.733  11.381  0.00  0.00    +0.000 A 
ATOM      8  C   UNL     1      47.251   6.863  11.751  0.00  0.00    +0.000 A 
BRANCH   7   9
ATOM      9  C   UNL     1      45.404   5.512  10.710  0.00  0.00    +0.000 A 
ATOM     10  C   UNL     1      45.686   5.250   9.358  0.00  0.00    +0.000 A 
ATOM     11  C   UNL     1      45.215   4.095   8.728  0.00  0.00    +0.000 A 
ATOM     12  C   UNL     1      44.457   3.172   9.441  0.00  0.00    +0.000 A 
ATOM     13  C   UNL     1      44.167   3.411  10.780  0.00  0.00    +0.000 A 
ATOM     14 CL   UNL     1      43.216   2.284  11.669  0.00  0.00    +0.000 Cl
ATOM     15  C   UNL     1      44.630   4.565  11.409  0.00  0.00    +0.000 A 
ENDBRANCH   7   9
ENDBRANCH   1   2
BRANCH   1  16
ATOM     16  C   UNL     1      49.465   7.970  14.263  0.00  0.00    +0.000 C 
BRANCH  16  17
ATOM     17  O   UNL     1      49.518   6.583  14.676  0.00  0.00    +0.000 OA
BRANCH  17  22
ATOM     18  C   UNL     1      48.083   5.048  17.556  0.00  0.00    +0.000 A 
ATOM     19  C   UNL     1      47.997   6.069  18.489  0.00  0.00    +0.000 A 
ATOM     20  C   UNL     1      48.456   7.330  18.111  0.00  0.00    +0.000 A 
ATOM     21  C   UNL     1      48.975   7.522  16.825  0.00  0.00    +0.000 A 
ATOM     22  C   UNL     1      49.016   6.432  15.963  0.00  0.00    +0.000 A 
ATOM     23  N   UNL     1      48.583   5.206  16.311  0.00  0.00    +0.000 NA
BRANCH  18  25
ATOM     24  N   UNL     1      48.260   3.047  18.934  0.00  0.00    +0.000 N 
ATOM     25  C   UNL     1      47.625   3.668  17.891  0.00  0.00    +0.000 C 
ATOM     26  O   UNL     1      46.713   3.119  17.285  0.00  0.00    +0.000 OA
ATOM     27  H   UNL     1      47.901   2.154  19.238  0.00  0.00    +0.000 HD
ATOM     28  H   UNL     1      48.895   3.563  19.531  0.00  0.00    +0.000 HD
ENDBRANCH  18  25
ENDBRANCH  17  22
ENDBRANCH  16  17
ENDBRANCH   1  16
TORSDOF 6
ENDMDL
MODEL 4
REMARK VINA RESULT:    -7.493      2.329      3.537
REMARK INTER + INTRA:         -10.954
REMARK INTER:                 -10.304
REMARK INTRA:                  -0.649
REMARK UNBOUND:                -0.832
REMARK  Name = 
REMARK  6 active torsions:
REMARK  status: ('A' for Active; 'I' for Inactive)
REMARK    1  A    between atoms: C_2  and  C_4
REMARK    2  A    between atoms: C_8  and  O_9
REMARK    3  A    between atoms: O_9  and  C_10
REMARK    4  A    between atoms: C_10  and  C_11
REMARK    5  A    between atoms: C_11  and  C_12
REMARK    6  A    between atoms: C_17  and  C_18
REMARK                            x       y       z     vdW  Elec       q    Type
REMARK                         _______ _______ _______ _____ _____    ______ ____
ROOT
ATOM      1  C   UNL     1      48.238   7.551  13.840  0.00  0.00    +0.000 C 
ENDROOT
BRANCH   1   2
ATOM      2  C   UNL     1      47.010   7.531  12.952  0.00  0.00    +0.000 A 
ATOM      3  C   UNL     1      46.185   8.657  12.845  0.00  0.00    +0.000 A 
ATOM      4  C   UNL     1      45.075   8.628  11.999  0.00  0.00    +0.000 A 
ATOM      5  F   UNL     1      44.294   9.714  11.910  0.00  0.00    +0.000 F 
ATOM      6  C   UNL     1      44.762   7.505  11.250  0.00  0.00    +0.000 A 
ATOM      7  C   UNL     1      45.564   6.353  11.331  0.00  0.00    +0.000 A 
ATOM      8  C   UNL     1      46.684   6.397  12.187  0.00  0.00    +0.000 A 
BRANCH   7   9
ATOM      9  C   UNL     1      45.248   5.137  10.553  0.00  0.00    +0.000 A 
ATOM     10  C   UNL     1      44.436   4.117  11.078  0.00  0.00    +0.000 A 
ATOM     11  C   UNL     1      44.144   2.968  10.338  0.00  0.00    +0.000 A 
ATOM     12  C   UNL     1      44.653   2.819   9.053  0.00  0.00    +0.000 A 
ATOM     13  C   UNL     1      45.458   3.816   8.513  0.00  0.00    +0.000 A 
ATOM     14 CL   UNL     1      46.107   3.636   6.929  0.00  0.00    +0.000 Cl
ATOM     15  C   UNL     1      45.756   4.960   9.251  0.00  0.00    +0.000 A 
ENDBRANCH   7   9
ENDBRANCH   1   2
BRANCH   1  16
ATOM     16  C   UNL     1      48.229   6.415  14.867  0.00  0.00    +0.000 C 
BRANCH  16  17
ATOM     17  O   UNL     1      48.952   6.761  16.074  0.00  0.00    +0.000 OA
BRANCH  17  22
ATOM     18  C   UNL     1      49.370   3.537  17.536  0.00  0.00    +0.000 A 
ATOM     19  C   UNL     1      48.775   3.638  18.783  0.00  0.00    +0.000 A 
ATOM     20  C   UNL     1      48.215   4.866  19.132  0.00  0.00    +0.000 A 
ATOM     21  C   UNL     1      48.267   5.935  18.229  0.00  0.00    +0.000 A 
ATOM     22  C   UNL     1      48.886   5.728  17.001  0.00  0.00    +0.000 A 
ATOM     23  N   UNL     1      49.437   4.552  16.648  0.00  0.00    +0.000 NA
BRANCH  18  25
ATOM     24  N   UNL     1      51.063   1.811  17.840  0.00  0.00    +0.000 N 
ATOM     25  C   UNL     1      50.003   2.259  17.096  0.00  0.00    +0.000 C 
ATOM     26  O   UNL     1      49.590   1.625  16.133  0.00  0.00    +0.000 OA
ATOM     27  H   UNL     1      51.442   0.903  17.617  0.00  0.00    +0.000 HD
ATOM     28  H   UNL     1      51.293   2.249  18.724  0.00  0.00    +0.000 HD
ENDBRANCH  18  25
ENDBRANCH  17  22
ENDBRANCH  16  17
ENDBRANCH   1  16
TORSDOF 6
ENDMDL
MODEL 5
REMARK VINA RESULT:    -7.201      2.261      2.593
REMARK INTER + INTRA:         -10.559
REMARK INTER:                  -9.638
REMARK INTRA:                  -0.920
REMARK UNBOUND:                -0.832
REMARK  Name = 
REMARK  6 active torsions:
REMARK  status: ('A' for Active; 'I' for Inactive)
REMARK    1  A    between atoms: C_2  and  C_4
REMARK    2  A    between atoms: C_8  and  O_9
REMARK    3  A    between atoms: O_9  and  C_10
REMARK    4  A    between atoms: C_10  and  C_11
REMARK    5  A    between atoms: C_11  and  C_12
REMARK    6  A    between atoms: C_17  and  C_18
REMARK                            x       y       z     vdW  Elec       q    Type
REMARK                         _______ _______ _______ _____ _____    ______ ____
ROOT
ATOM      1  C   UNL     1      44.653   7.548  11.381  0.00  0.00    +0.000 C 
ENDROOT
BRANCH   1   2
ATOM      2  C   UNL     1      44.588   6.041  11.236  0.00  0.00    +0.000 A 
ATOM      3  C   UNL     1      43.928   5.257  12.189  0.00  0.00    +0.000 A 
ATOM      4  C   UNL     1      43.854   3.872  12.021  0.00  0.00    +0.000 A 
ATOM      5  F   UNL     1      43.221   3.137  12.945  0.00  0.00    +0.000 F 
ATOM      6  C   UNL     1      44.420   3.243  10.924  0.00  0.00    +0.000 A 
ATOM      7  C   UNL     1      45.094   3.995   9.946  0.00  0.00    +0.000 A 
ATOM      8  C   UNL     1      45.158   5.393  10.125  0.00  0.00    +0.000 A 
BRANCH   7   9
ATOM      9  C   UNL     1      45.717   3.350   8.771  0.00  0.00    +0.000 A 
ATOM     10  C   UNL     1      46.140   4.098   7.658  0.00  0.00    +0.000 A 
ATOM     11  C   UNL     1      46.726   3.482   6.549  0.00  0.00    +0.000 A 
ATOM     12  C   UNL     1      46.906   2.103   6.533  0.00  0.00    +0.000 A 
ATOM     13  C   UNL     1      46.496   1.343   7.623  0.00  0.00    +0.000 A 
ATOM     14 CL   UNL     1      46.700  -0.365   7.608  0.00  0.00    +0.000 Cl
ATOM     15  C   UNL     1      45.906   1.955   8.728  0.00  0.00    +0.000 A 
ENDBRANCH   7   9
ENDBRANCH   1   2
BRANCH   1  16
ATOM     16  C   UNL     1      45.252   7.975  12.725  0.00  0.00    +0.000 C 
BRANCH  16  17
ATOM     17  O   UNL     1      46.276   8.988  12.571  0.00  0.00    +0.000 OA
BRANCH  17  22
ATOM     18  C   UNL     1      48.970   7.777  14.567  0.00  0.00    +0.000 A 
ATOM     19  C   UNL     1      49.979   7.496  13.660  0.00  0.00    +0.000 A 
ATOM     20  C   UNL     1      49.716   7.730  12.311  0.00  0.00    +0.000 A 
ATOM     21  C   UNL     1      48.468   8.233  11.924  0.00  0.00    +0.000 A 
ATOM     22  C   UNL     1      47.525   8.482  12.914  0.00  0.00    +0.000 A 
ATOM     23  N   UNL     1      47.757   8.258  14.220  0.00  0.00    +0.000 NA
BRANCH  18  25
ATOM     24  N   UNL     1      48.232   8.073  16.870  0.00  0.00    +0.000 N 
ATOM     25  C   UNL     1      49.171   7.540  16.027  0.00  0.00    +0.000 C 
ATOM     26  O   UNL     1      50.112   6.886  16.457  0.00  0.00    +0.000 OA
ATOM     27  H   UNL     1      48.296   7.843  17.851  0.00  0.00    +0.000 HD
ATOM     28  H   UNL     1      47.375   8.469  16.502  0.00  0.00    +0.000 HD
ENDBRANCH  18  25
ENDBRANCH  17  22
ENDBRANCH  16  17
ENDBRANCH   1  16
TORSDOF 6
ENDMDL
MODEL 6
REMARK VINA RESULT:    -6.949      3.460      4.177
REMARK INTER + INTRA:         -10.218
REMARK INTER:                  -9.446
REMARK INTRA:                  -0.772
REMARK UNBOUND:                -0.832
REMARK  Name = 
REMARK  6 active torsions:
REMARK  status: ('A' for Active; 'I' for Inactive)
REMARK    1  A    between atoms: C_2  and  C_4
REMARK    2  A    between atoms: C_8  and  O_9
REMARK    3  A    between atoms: O_9  and  C_10
REMARK    4  A    between atoms: C_10  and  C_11
REMARK    5  A    between atoms: C_11  and  C_12
REMARK    6  A    between atoms: C_17  and  C_18
REMARK                            x       y       z     vdW  Elec       q    Type
REMARK                         _______ _______ _______ _____ _____    ______ ____
ROOT
ATOM      1  C   UNL     1      44.601   7.571  11.442  0.00  0.00    +0.000 C 
ENDROOT
BRANCH   1   2
ATOM      2  C   UNL     1      44.542   6.064  11.297  0.00  0.00    +0.000 A 
ATOM      3  C   UNL     1      43.886   5.278  12.252  0.00  0.00    +0.000 A 
ATOM      4  C   UNL     1      43.817   3.893  12.085  0.00  0.00    +0.000 A 
ATOM      5  F   UNL     1      43.187   3.156  13.009  0.00  0.00    +0.000 F 
ATOM      6  C   UNL     1      44.384   3.266  10.987  0.00  0.00    +0.000 A 
ATOM      7  C   UNL     1      45.055   4.019  10.009  0.00  0.00    +0.000 A 
ATOM      8  C   UNL     1      45.114   5.417  10.187  0.00  0.00    +0.000 A 
BRANCH   7   9
ATOM      9  C   UNL     1      45.680   3.376   8.834  0.00  0.00    +0.000 A 
ATOM     10  C   UNL     1      46.131   4.128   7.735  0.00  0.00    +0.000 A 
ATOM     11  C   UNL     1      46.717   3.514   6.625  0.00  0.00    +0.000 A 
ATOM     12  C   UNL     1      46.872   2.132   6.595  0.00  0.00    +0.000 A 
ATOM     13  C   UNL     1      46.435   1.368   7.672  0.00  0.00    +0.000 A 
ATOM     14 CL   UNL     1      46.607  -0.344   7.639  0.00  0.00    +0.000 Cl
ATOM     15  C   UNL     1      45.844   1.978   8.776  0.00  0.00    +0.000 A 
ENDBRANCH   7   9
ENDBRANCH   1   2
BRANCH   1  16
ATOM     16  C   UNL     1      45.890   8.038  12.126  0.00  0.00    +0.000 C 
BRANCH  16  17
ATOM     17  O   UNL     1      45.978   9.482  12.202  0.00  0.00    +0.000 OA
BRANCH  17  22
ATOM     18  C   UNL     1      49.505   9.494  11.680  0.00  0.00    +0.000 A 
ATOM     19  C   UNL     1      49.769  10.728  11.106  0.00  0.00    +0.000 A 
ATOM     20  C   UNL     1      48.689  11.582  10.887  0.00  0.00    +0.000 A 
ATOM     21  C   UNL     1      47.399  11.177  11.250  0.00  0.00    +0.000 A 
ATOM     22  C   UNL     1      47.242   9.919  11.821  0.00  0.00    +0.000 A 
ATOM     23  N   UNL     1      48.270   9.078  12.036  0.00  0.00    +0.000 NA
BRANCH  18  25
ATOM     24  N   UNL     1      50.236   7.224  12.176  0.00  0.00    +0.000 N 
ATOM     25  C   UNL     1      50.606   8.520  11.933  0.00  0.00    +0.000 C 
ATOM     26  O   UNL     1      51.786   8.849  11.906  0.00  0.00    +0.000 OA
ATOM     27  H   UNL     1      50.967   6.533  12.253  0.00  0.00    +0.000 HD
ATOM     28  H   UNL     1      49.277   6.927  12.036  0.00  0.00    +0.000 HD
ENDBRANCH  18  25
ENDBRANCH  17  22
ENDBRANCH  16  17
ENDBRANCH   1  16
TORSDOF 6
ENDMDL
MODEL 7
REMARK VINA RESULT:    -6.912      5.216      9.678
REMARK INTER + INTRA:         -10.168
REMARK INTER:                  -9.451
REMARK INTRA:                  -0.717
REMARK UNBOUND:                -0.832
REMARK  Name = 
REMARK  6 active torsions:
REMARK  status: ('A' for Active; 'I' for Inactive)
REMARK    1  A    between atoms: C_2  and  C_4
REMARK    2  A    between atoms: C_8  and  O_9
REMARK    3  A    between atoms: O_9  and  C_10
REMARK    4  A    between atoms: C_10  and  C_11
REMARK    5  A    between atoms: C_11  and  C_12
REMARK    6  A    between atoms: C_17  and  C_18
REMARK                            x       y       z     vdW  Elec       q    Type
REMARK                         _______ _______ _______ _____ _____    ______ ____
ROOT
ATOM      1  C   UNL     1      47.930   3.407  16.946  0.00  0.00    +0.000 C 
ENDROOT
BRANCH   1   2
ATOM      2  C   UNL     1      48.152   4.368  18.096  0.00  0.00    +0.000 A 
ATOM      3  C   UNL     1      48.600   3.907  19.339  0.00  0.00    +0.000 A 
ATOM      4  C   UNL     1      48.827   4.813  20.377  0.00  0.00    +0.000 A 
ATOM      5  F   UNL     1      49.254   4.353  21.561  0.00  0.00    +0.000 F 
ATOM      6  C   UNL     1      48.622   6.173  20.211  0.00  0.00    +0.000 A 
ATOM      7  C   UNL     1      48.169   6.676  18.979  0.00  0.00    +0.000 A 
ATOM      8  C   UNL     1      47.947   5.751  17.937  0.00  0.00    +0.000 A 
BRANCH   7   9
ATOM      9  C   UNL     1      47.930   8.120  18.776  0.00  0.00    +0.000 A 
ATOM     10  C   UNL     1      48.375   8.785  17.621  0.00  0.00    +0.000 A 
ATOM     11  C   UNL     1      48.149  10.152  17.437  0.00  0.00    +0.000 A 
ATOM     12  C   UNL     1      47.465  10.881  18.403  0.00  0.00    +0.000 A 
ATOM     13  C   UNL     1      47.013  10.243  19.553  0.00  0.00    +0.000 A 
ATOM     14 CL   UNL     1      46.179  11.138  20.763  0.00  0.00    +0.000 Cl
ATOM     15  C   UNL     1      47.243   8.882  19.742  0.00  0.00    +0.000 A 
ENDBRANCH   7   9
ENDBRANCH   1   2
BRANCH   1  16
ATOM     16  C   UNL     1      47.434   4.118  15.683  0.00  0.00    +0.000 C 
BRANCH  16  17
ATOM     17  O   UNL     1      47.303   3.213  14.560  0.00  0.00    +0.000 OA
BRANCH  17  22
ATOM     18  C   UNL     1      45.034   3.616  11.839  0.00  0.00    +0.000 A 
ATOM     19  C   UNL     1      45.189   4.937  11.448  0.00  0.00    +0.000 A 
ATOM     20  C   UNL     1      46.106   5.715  12.153  0.00  0.00    +0.000 A 
ATOM     21  C   UNL     1      46.829   5.149  13.210  0.00  0.00    +0.000 A 
ATOM     22  C   UNL     1      46.600   3.814  13.522  0.00  0.00    +0.000 A 
ATOM     23  N   UNL     1      45.716   3.048  12.857  0.00  0.00    +0.000 NA
BRANCH  18  25
ATOM     24  N   UNL     1      44.408   2.304   9.885  0.00  0.00    +0.000 N 
ATOM     25  C   UNL     1      44.062   2.724  11.142  0.00  0.00    +0.000 C 
ATOM     26  O   UNL     1      43.017   2.364  11.668  0.00  0.00    +0.000 OA
ATOM     27  H   UNL     1      43.811   1.624   9.437  0.00  0.00    +0.000 HD
ATOM     28  H   UNL     1      45.340   2.470   9.524  0.00  0.00    +0.000 HD
ENDBRANCH  18  25
ENDBRANCH  17  22
ENDBRANCH  16  17
ENDBRANCH   1  16
TORSDOF 6
ENDMDL
MODEL 8
REMARK VINA RESULT:    -6.832      5.303      9.857
REMARK INTER + INTRA:         -10.060
REMARK INTER:                  -9.348
REMARK INTRA:                  -0.712
REMARK UNBOUND:                -0.832
REMARK  Name = 
REMARK  6 active torsions:
REMARK  status: ('A' for Active; 'I' for Inactive)
REMARK    1  A    between atoms: C_2  and  C_4
REMARK    2  A    between atoms: C_8  and  O_9
REMARK    3  A    between atoms: O_9  and  C_10
REMARK    4  A    between atoms: C_10  and  C_11
REMARK    5  A    between atoms: C_11  and  C_12
REMARK    6  A    between atoms: C_17  and  C_18
REMARK                            x       y       z     vdW  Elec       q    Type
REMARK                         _______ _______ _______ _____ _____    ______ ____
ROOT
ATOM      1  C   UNL     1      47.627   3.222  17.039  0.00  0.00    +0.000 C 
ENDROOT
BRANCH   1   2
ATOM      2  C   UNL     1      49.111   3.137  17.334  0.00  0.00    +0.000 A 
ATOM      3  C   UNL     1      49.839   1.983  17.022  0.00  0.00    +0.000 A 
ATOM      4  C   UNL     1      51.211   1.935  17.274  0.00  0.00    +0.000 A 
ATOM      5  F   UNL     1      51.891   0.821  16.972  0.00  0.00    +0.000 F 
ATOM      6  C   UNL     1      51.884   3.012  17.829  0.00  0.00    +0.000 A 
ATOM      7  C   UNL     1      51.189   4.188  18.160  0.00  0.00    +0.000 A 
ATOM      8  C   UNL     1      49.804   4.224  17.896  0.00  0.00    +0.000 A 
BRANCH   7   9
ATOM      9  C   UNL     1      51.879   5.347  18.763  0.00  0.00    +0.000 A 
ATOM     10  C   UNL     1      51.599   6.664  18.358  0.00  0.00    +0.000 A 
ATOM     11  C   UNL     1      52.257   7.756  18.930  0.00  0.00    +0.000 A 
ATOM     12  C   UNL     1      53.205   7.554  19.927  0.00  0.00    +0.000 A 
ATOM     13  C   UNL     1      53.497   6.260  20.345  0.00  0.00    +0.000 A 
ATOM     14 CL   UNL     1      54.679   5.996  21.568  0.00  0.00    +0.000 Cl
ATOM     15  C   UNL     1      52.847   5.169  19.771  0.00  0.00    +0.000 A 
ENDBRANCH   7   9
ENDBRANCH   1   2
BRANCH   1  16
ATOM     16  C   UNL     1      47.331   4.059  15.791  0.00  0.00    +0.000 C 
BRANCH  16  17
ATOM     17  O   UNL     1      47.314   3.258  14.585  0.00  0.00    +0.000 OA
BRANCH  17  22
ATOM     18  C   UNL     1      45.129   3.842  11.829  0.00  0.00    +0.000 A 
ATOM     19  C   UNL     1      45.321   5.176  11.508  0.00  0.00    +0.000 A 
ATOM     20  C   UNL     1      46.233   5.900  12.275  0.00  0.00    +0.000 A 
ATOM     21  C   UNL     1      46.916   5.268  13.320  0.00  0.00    +0.000 A 
ATOM     22  C   UNL     1      46.652   3.924  13.560  0.00  0.00    +0.000 A 
ATOM     23  N   UNL     1      45.771   3.210  12.835  0.00  0.00    +0.000 NA
BRANCH  18  25
ATOM     24  N   UNL     1      44.670   2.259  10.035  0.00  0.00    +0.000 N 
ATOM     25  C   UNL     1      44.159   3.006  11.064  0.00  0.00    +0.000 C 
ATOM     26  O   UNL     1      42.968   2.966  11.346  0.00  0.00    +0.000 OA
ATOM     27  H   UNL     1      44.049   1.615   9.569  0.00  0.00    +0.000 HD
ATOM     28  H   UNL     1      45.672   2.169   9.912  0.00  0.00    +0.000 HD
ENDBRANCH  18  25
ENDBRANCH  17  22
ENDBRANCH  16  17
ENDBRANCH   1  16
TORSDOF 6
ENDMDL
MODEL 9
REMARK VINA RESULT:    -6.772      2.528      3.737
REMARK INTER + INTRA:          -9.979
REMARK INTER:                  -9.006
REMARK INTRA:                  -0.972
REMARK UNBOUND:                -0.832
REMARK  Name = 
REMARK  6 active torsions:
REMARK  status: ('A' for Active; 'I' for Inactive)
REMARK    1  A    between atoms: C_2  and  C_4
REMARK    2  A    between atoms: C_8  and  O_9
REMARK    3  A    between atoms: O_9  and  C_10
REMARK    4  A    between atoms: C_10  and  C_11
REMARK    5  A    between atoms: C_11  and  C_12
REMARK    6  A    between atoms: C_17  and  C_18
REMARK                            x       y       z     vdW  Elec       q    Type
REMARK                         _______ _______ _______ _____ _____    ______ ____
ROOT
ATOM      1  C   UNL     1      47.905   8.105  14.104  0.00  0.00    +0.000 C 
ENDROOT
BRANCH   1   2
ATOM      2  C   UNL     1      46.741   7.997  13.139  0.00  0.00    +0.000 A 
ATOM      3  C   UNL     1      45.966   9.119  12.824  0.00  0.00    +0.000 A 
ATOM      4  C   UNL     1      44.916   9.006  11.911  0.00  0.00    +0.000 A 
ATOM      5  F   UNL     1      44.183  10.089  11.622  0.00  0.00    +0.000 F 
ATOM      6  C   UNL     1      44.615   7.800  11.298  0.00  0.00    +0.000 A 
ATOM      7  C   UNL     1      45.368   6.649  11.590  0.00  0.00    +0.000 A 
ATOM      8  C   UNL     1      46.428   6.779  12.511  0.00  0.00    +0.000 A 
BRANCH   7   9
ATOM      9  C   UNL     1      45.062   5.348  10.961  0.00  0.00    +0.000 A 
ATOM     10  C   UNL     1      44.372   4.337  11.654  0.00  0.00    +0.000 A 
ATOM     11  C   UNL     1      44.090   3.107  11.054  0.00  0.00    +0.000 A 
ATOM     12  C   UNL     1      44.486   2.865   9.743  0.00  0.00    +0.000 A 
ATOM     13  C   UNL     1      45.168   3.850   9.038  0.00  0.00    +0.000 A 
ATOM     14 CL   UNL     1      45.677   3.555   7.420  0.00  0.00    +0.000 Cl
ATOM     15  C   UNL     1      45.457   5.075   9.636  0.00  0.00    +0.000 A 
ENDBRANCH   7   9
ENDBRANCH   1   2
BRANCH   1  16
ATOM     16  C   UNL     1      48.849   6.902  14.010  0.00  0.00    +0.000 C 
BRANCH  16  17
ATOM     17  O   UNL     1      49.474   6.595  15.281  0.00  0.00    +0.000 OA
BRANCH  17  22
ATOM     18  C   UNL     1      48.043   4.950  18.101  0.00  0.00    +0.000 A 
ATOM     19  C   UNL     1      47.143   4.046  17.559  0.00  0.00    +0.000 A 
ATOM     20  C   UNL     1      47.024   4.008  16.170  0.00  0.00    +0.000 A 
ATOM     21  C   UNL     1      47.803   4.864  15.383  0.00  0.00    +0.000 A 
ATOM     22  C   UNL     1      48.677   5.734  16.026  0.00  0.00    +0.000 A 
ATOM     23  N   UNL     1      48.803   5.789  17.365  0.00  0.00    +0.000 NA
BRANCH  18  25
ATOM     24  N   UNL     1      48.650   3.934  20.230  0.00  0.00    +0.000 N 
ATOM     25  C   UNL     1      48.216   5.058  19.579  0.00  0.00    +0.000 C 
ATOM     26  O   UNL     1      48.005   6.101  20.184  0.00  0.00    +0.000 OA
ATOM     27  H   UNL     1      48.865   4.014  21.213  0.00  0.00    +0.000 HD
ATOM     28  H   UNL     1      48.977   3.130  19.708  0.00  0.00    +0.000 HD
ENDBRANCH  18  25
ENDBRANCH  17  22
ENDBRANCH  16  17
ENDBRANCH   1  16
TORSDOF 6
ENDMDL
