MODEL 1
REMARK VINA RESULT:    -7.562      0.000      0.000
REMARK INTER + INTRA:         -10.109
REMARK INTER:                  -9.330
REMARK INTRA:                  -0.779
REMARK UNBOUND:                -0.779
REMARK  Name = 
REMARK  5 active torsions:
REMARK  status: ('A' for Active; 'I' for Inactive)
REMARK    1  A    between atoms: C_1  and  C_2
REMARK    2  A    between atoms: C_5  and  O_6
REMARK    3  A    between atoms: O_6  and  C_7
REMARK    4  A    between atoms: C_7  and  C_8
REMARK    5  A    between atoms: C_13  and  C_14
REMARK                            x       y       z     vdW  Elec       q    Type
REMARK                         _______ _______ _______ _____ _____    ______ ____
ROOT
ATOM      1  C   UNL     1      45.176   5.119  12.021  0.00  0.00    +0.000 A 
ATOM      2  C   UNL     1      45.522   4.083  12.895  0.00  0.00    +0.000 A 
ATOM      3  C   UNL     1      46.743   4.105  13.555  0.00  0.00    +0.000 A 
ATOM      4  F   UNL     1      47.073   3.089  14.362  0.00  0.00    +0.000 F 
ATOM      5  C   UNL     1      47.643   5.153  13.373  0.00  0.00    +0.000 A 
ATOM      6  C   UNL     1      47.319   6.237  12.543  0.00  0.00    +0.000 A 
ATOM      7  C   UNL     1      46.079   6.192  11.888  0.00  0.00    +0.000 A 
ENDROOT
BRANCH   6   8
ATOM      8  C   UNL     1      48.332   7.358  12.318  0.00  0.00    +0.000 C 
ATOM      9  C   UNL     1      49.192   7.652  13.563  0.00  0.00    +0.000 C 
ATOM     10  C   UNL     1      48.442   8.494  14.595  0.00  0.00    +0.000 C 
ATOM     11  N   UNL     1      47.975   9.760  14.028  0.00  0.00    +0.000 NA
ATOM     12  C   UNL     1      47.093   9.530  12.886  0.00  0.00    +0.000 C 
ATOM     13  C   UNL     1      47.772   8.699  11.792  0.00  0.00    +0.000 C 
ATOM     14  H   UNL     1      48.779  10.310  13.726  0.00  0.00    +0.000 HD
ENDBRANCH   6   8
BRANCH   1  15
ATOM     15  C   UNL     1      43.886   5.083  11.229  0.00  0.00    +0.000 C 
ATOM     16  C   UNL     1      42.562   5.374  11.948  0.00  0.00    +0.000 C 
ATOM     17  C   UNL     1      43.140   6.390  11.027  0.00  0.00    +0.000 C 
BRANCH  15  18
ATOM     18  O   UNL     1      43.737   3.952  10.345  0.00  0.00    +0.000 OA
BRANCH  18  23
ATOM     19  C   UNL     1      47.151   2.202   6.372  0.00  0.00    +0.000 C 
ATOM     20  C   UNL     1      46.397   2.723   7.550  0.00  0.00    +0.000 A 
ATOM     21  C   UNL     1      46.087   4.076   7.674  0.00  0.00    +0.000 A 
ATOM     22  N   UNL     1      45.277   4.563   8.646  0.00  0.00    +0.000 NA
ATOM     23  C   UNL     1      44.770   3.639   9.487  0.00  0.00    +0.000 A 
ATOM     24  C   UNL     1      45.128   2.302   9.416  0.00  0.00    +0.000 A 
ATOM     25  N   UNL     1      45.950   1.813   8.451  0.00  0.00    +0.000 NA
ENDBRANCH  18  23
ENDBRANCH  15  18
ENDBRANCH   1  15
TORSDOF 4
ENDMDL
MODEL 2
REMARK VINA RESULT:    -7.033      2.390      3.297
REMARK INTER + INTRA:          -9.457
REMARK INTER:                  -9.026
REMARK INTRA:                  -0.431
REMARK UNBOUND:                -0.779
REMARK  Name = 
REMARK  5 active torsions:
REMARK  status: ('A' for Active; 'I' for Inactive)
REMARK    1  A    between atoms: C_1  and  C_2
REMARK    2  A    between atoms: C_5  and  O_6
REMARK    3  A    between atoms: O_6  and  C_7
REMARK    4  A    between atoms: C_7  and  C_8
REMARK    5  A    between atoms: C_13  and  C_14
REMARK                            x       y       z     vdW  Elec       q    Type
REMARK                         _______ _______ _______ _____ _____    ______ ____
ROOT
ATOM      1  C   UNL     1      44.534   7.005  11.733  0.00  0.00    +0.000 A 
ATOM      2  C   UNL     1      43.798   8.041  11.149  0.00  0.00    +0.000 A 
ATOM      3  C   UNL     1      44.273   9.344  11.187  0.00  0.00    +0.000 A 
ATOM      4  F   UNL     1      43.539  10.329  10.652  0.00  0.00    +0.000 F 
ATOM      5  C   UNL     1      45.487   9.652  11.796  0.00  0.00    +0.000 A 
ATOM      6  C   UNL     1      46.284   8.640  12.352  0.00  0.00    +0.000 A 
ATOM      7  C   UNL     1      45.782   7.331  12.300  0.00  0.00    +0.000 A 
ENDROOT
BRANCH   6   8
ATOM      8  C   UNL     1      47.593   8.995  13.055  0.00  0.00    +0.000 C 
ATOM      9  C   UNL     1      48.792   9.077  12.091  0.00  0.00    +0.000 C 
ATOM     10  C   UNL     1      49.329   7.695  11.720  0.00  0.00    +0.000 C 
ATOM     11  N   UNL     1      49.721   6.929  12.905  0.00  0.00    +0.000 NA
ATOM     12  C   UNL     1      48.593   6.761  13.819  0.00  0.00    +0.000 C 
ATOM     13  C   UNL     1      47.998   8.105  14.251  0.00  0.00    +0.000 C 
ATOM     14  H   UNL     1      50.474   7.419  13.388  0.00  0.00    +0.000 HD
ENDBRANCH   6   8
BRANCH   1  15
ATOM     15  C   UNL     1      44.005   5.588  11.774  0.00  0.00    +0.000 C 
ATOM     16  C   UNL     1      43.111   5.160  12.946  0.00  0.00    +0.000 C 
ATOM     17  C   UNL     1      42.511   5.382  11.602  0.00  0.00    +0.000 C 
BRANCH  15  18
ATOM     18  O   UNL     1      44.976   4.559  11.484  0.00  0.00    +0.000 OA
BRANCH  18  23
ATOM     19  C   UNL     1      46.516   2.898   6.448  0.00  0.00    +0.000 C 
ATOM     20  C   UNL     1      45.911   3.359   7.732  0.00  0.00    +0.000 A 
ATOM     21  C   UNL     1      45.344   2.461   8.633  0.00  0.00    +0.000 A 
ATOM     22  N   UNL     1      44.924   2.820   9.871  0.00  0.00    +0.000 NA
ATOM     23  C   UNL     1      45.108   4.118  10.185  0.00  0.00    +0.000 A 
ATOM     24  C   UNL     1      45.605   5.035   9.271  0.00  0.00    +0.000 A 
ATOM     25  N   UNL     1      46.014   4.679   8.025  0.00  0.00    +0.000 NA
ENDBRANCH  18  23
ENDBRANCH  15  18
ENDBRANCH   1  15
TORSDOF 4
ENDMDL
MODEL 3
REMARK VINA RESULT:    -6.743      3.152      6.690
REMARK INTER + INTRA:          -9.099
REMARK INTER:                  -8.713
REMARK INTRA:                  -0.386
REMARK UNBOUND:                -0.779
REMARK  Name = 
REMARK  5 active torsions:
REMARK  status: ('A' for Active; 'I' for Inactive)
REMARK    1  A    between atoms: C_1  and  C_2
REMARK    2  A    between atoms: C_5  and  O_6
REMARK    3  A    between atoms: O_6  and  C_7
REMARK    4  A    between atoms: C_7  and  C_8
REMARK    5  A    between atoms: C_13  and  C_14
REMARK                            x       y       z     vdW  Elec       q    Type
REMARK                         _______ _______ _______ _____ _____    ______ ____
ROOT
ATOM      1  C   UNL     1      46.836   7.521  12.190  0.00  0.00    +0.000 A 
ATOM      2  C   UNL     1      46.254   8.791  12.249  0.00  0.00    +0.000 A 
ATOM      3  C   UNL     1      44.932   8.973  11.869  0.00  0.00    +0.000 A 
ATOM      4  F   UNL     1      44.401  10.203  11.900  0.00  0.00    +0.000 F 
ATOM      5  C   UNL     1      44.154   7.905  11.430  0.00  0.00    +0.000 A 
ATOM      6  C   UNL     1      44.679   6.604  11.399  0.00  0.00    +0.000 A 
ATOM      7  C   UNL     1      46.017   6.446  11.790  0.00  0.00    +0.000 A 
ENDROOT
BRANCH   6   8
ATOM      8  C   UNL     1      43.830   5.448  10.874  0.00  0.00    +0.000 C 
ATOM      9  C   UNL     1      42.715   5.028  11.851  0.00  0.00    +0.000 C 
ATOM     10  C   UNL     1      43.245   4.162  12.993  0.00  0.00    +0.000 C 
ATOM     11  N   UNL     1      43.921   2.962  12.496  0.00  0.00    +0.000 NA
ATOM     12  C   UNL     1      45.037   3.313  11.621  0.00  0.00    +0.000 C 
ATOM     13  C   UNL     1      44.590   4.176  10.437  0.00  0.00    +0.000 C 
ATOM     14  H   UNL     1      43.254   2.391  11.978  0.00  0.00    +0.000 HD
ENDBRANCH   6   8
BRANCH   1  15
ATOM     15  C   UNL     1      48.296   7.306  12.525  0.00  0.00    +0.000 C 
ATOM     16  C   UNL     1      49.366   7.789  11.537  0.00  0.00    +0.000 C 
ATOM     17  C   UNL     1      49.148   8.530  12.809  0.00  0.00    +0.000 C 
BRANCH  15  18
ATOM     18  O   UNL     1      48.628   5.990  13.017  0.00  0.00    +0.000 OA
BRANCH  18  23
ATOM     19  C   UNL     1      47.311   3.601  17.819  0.00  0.00    +0.000 C 
ATOM     20  C   UNL     1      47.533   4.392  16.572  0.00  0.00    +0.000 A 
ATOM     21  C   UNL     1      48.454   5.436  16.529  0.00  0.00    +0.000 A 
ATOM     22  N   UNL     1      48.794   6.075  15.383  0.00  0.00    +0.000 NA
ATOM     23  C   UNL     1      48.187   5.618  14.269  0.00  0.00    +0.000 A 
ATOM     24  C   UNL     1      47.217   4.629  14.311  0.00  0.00    +0.000 A 
ATOM     25  N   UNL     1      46.865   3.996  15.461  0.00  0.00    +0.000 NA
ENDBRANCH  18  23
ENDBRANCH  15  18
ENDBRANCH   1  15
TORSDOF 4
ENDMDL
MODEL 4
REMARK VINA RESULT:    -6.696      2.677      3.706
REMARK INTER + INTRA:          -9.041
REMARK INTER:                  -8.589
REMARK INTRA:                  -0.452
REMARK UNBOUND:                -0.779
REMARK  Name = 
REMARK  5 active torsions:
REMARK  status: ('A' for Active; 'I' for Inactive)
REMARK    1  A    between atoms: C_1  and  C_2
REMARK    2  A    between atoms: C_5  and  O_6
REMARK    3  A    between atoms: O_6  and  C_7
REMARK    4  A    between atoms: C_7  and  C_8
REMARK    5  A    between atoms: C_13  and  C_14
REMARK                            x       y       z     vdW  Elec       q    Type
REMARK                         _______ _______ _______ _____ _____    ______ ____
ROOT
ATOM      1  C   UNL     1      45.087   6.814  11.954  0.00  0.00    +0.000 A 
ATOM      2  C   UNL     1      46.465   6.786  12.190  0.00  0.00    +0.000 A 
ATOM      3  C   UNL     1      47.181   7.970  12.295  0.00  0.00    +0.000 A 
ATOM      4  F   UNL     1      48.505   7.924  12.489  0.00  0.00    +0.000 F 
ATOM      5  C   UNL     1      46.551   9.206  12.177  0.00  0.00    +0.000 A 
ATOM      6  C   UNL     1      45.163   9.286  11.987  0.00  0.00    +0.000 A 
ATOM      7  C   UNL     1      44.462   8.075  11.886  0.00  0.00    +0.000 A 
ENDROOT
BRANCH   6   8
ATOM      8  C   UNL     1      44.490  10.647  11.815  0.00  0.00    +0.000 C 
ATOM      9  C   UNL     1      43.326  10.621  10.806  0.00  0.00    +0.000 C 
ATOM     10  C   UNL     1      43.817  10.644   9.359  0.00  0.00    +0.000 C 
ATOM     11  N   UNL     1      44.656  11.813   9.089  0.00  0.00    +0.000 NA
ATOM     12  C   UNL     1      45.817  11.841   9.975  0.00  0.00    +0.000 C 
ATOM     13  C   UNL     1      45.414  11.832  11.453  0.00  0.00    +0.000 C 
ATOM     14  H   UNL     1      44.105  12.661   9.228  0.00  0.00    +0.000 HD
ENDBRANCH   6   8
BRANCH   1  15
ATOM     15  C   UNL     1      44.294   5.540  11.758  0.00  0.00    +0.000 C 
ATOM     16  C   UNL     1      43.198   5.181  12.772  0.00  0.00    +0.000 C 
ATOM     17  C   UNL     1      42.820   5.665  11.416  0.00  0.00    +0.000 C 
BRANCH  15  18
ATOM     18  O   UNL     1      45.076   4.371  11.433  0.00  0.00    +0.000 OA
BRANCH  18  23
ATOM     19  C   UNL     1      46.520   2.966   6.291  0.00  0.00    +0.000 C 
ATOM     20  C   UNL     1      45.939   3.357   7.609  0.00  0.00    +0.000 A 
ATOM     21  C   UNL     1      45.414   2.408   8.483  0.00  0.00    +0.000 A 
ATOM     22  N   UNL     1      45.019   2.703   9.746  0.00  0.00    +0.000 NA
ATOM     23  C   UNL     1      45.184   3.990  10.112  0.00  0.00    +0.000 A 
ATOM     24  C   UNL     1      45.638   4.956   9.228  0.00  0.00    +0.000 A 
ATOM     25  N   UNL     1      46.022   4.665   7.958  0.00  0.00    +0.000 NA
ENDBRANCH  18  23
ENDBRANCH  15  18
ENDBRANCH   1  15
TORSDOF 4
ENDMDL
MODEL 5
REMARK VINA RESULT:    -6.351      1.871      2.371
REMARK INTER + INTRA:          -8.616
REMARK INTER:                  -9.287
REMARK INTRA:                   0.671
REMARK UNBOUND:                -0.779
REMARK  Name = 
REMARK  5 active torsions:
REMARK  status: ('A' for Active; 'I' for Inactive)
REMARK    1  A    between atoms: C_1  and  C_2
REMARK    2  A    between atoms: C_5  and  O_6
REMARK    3  A    between atoms: O_6  and  C_7
REMARK    4  A    between atoms: C_7  and  C_8
REMARK    5  A    between atoms: C_13  and  C_14
REMARK                            x       y       z     vdW  Elec       q    Type
REMARK                         _______ _______ _______ _____ _____    ______ ____
ROOT
ATOM      1  C   UNL     1      44.901   5.846  11.595  0.00  0.00    +0.000 A 
ATOM      2  C   UNL     1      44.295   7.097  11.442  0.00  0.00    +0.000 A 
ATOM      3  C   UNL     1      45.029   8.258  11.637  0.00  0.00    +0.000 A 
ATOM      4  F   UNL     1      44.425   9.447  11.519  0.00  0.00    +0.000 F 
ATOM      5  C   UNL     1      46.379   8.209  11.979  0.00  0.00    +0.000 A 
ATOM      6  C   UNL     1      47.042   6.978  12.096  0.00  0.00    +0.000 A 
ATOM      7  C   UNL     1      46.278   5.819  11.894  0.00  0.00    +0.000 A 
ENDROOT
BRANCH   6   8
ATOM      8  C   UNL     1      48.510   6.937  12.515  0.00  0.00    +0.000 C 
ATOM      9  C   UNL     1      48.701   6.895  14.043  0.00  0.00    +0.000 C 
ATOM     10  C   UNL     1      48.523   8.272  14.684  0.00  0.00    +0.000 C 
ATOM     11  N   UNL     1      49.444   9.258  14.115  0.00  0.00    +0.000 NA
ATOM     12  C   UNL     1      49.249   9.387  12.673  0.00  0.00    +0.000 C 
ATOM     13  C   UNL     1      49.421   8.049  11.947  0.00  0.00    +0.000 C 
ATOM     14  H   UNL     1      50.404   8.967  14.301  0.00  0.00    +0.000 HD
ENDBRANCH   6   8
BRANCH   1  15
ATOM     15  C   UNL     1      44.107   4.564  11.465  0.00  0.00    +0.000 C 
ATOM     16  C   UNL     1      44.495   3.356  12.330  0.00  0.00    +0.000 C 
ATOM     17  C   UNL     1      43.262   4.128  12.649  0.00  0.00    +0.000 C 
BRANCH  15  18
ATOM     18  O   UNL     1      43.835   4.142  10.112  0.00  0.00    +0.000 OA
BRANCH  18  23
ATOM     19  C   UNL     1      47.318   2.040   6.376  0.00  0.00    +0.000 C 
ATOM     20  C   UNL     1      46.542   2.647   7.498  0.00  0.00    +0.000 A 
ATOM     21  C   UNL     1      46.328   4.022   7.575  0.00  0.00    +0.000 A 
ATOM     22  N   UNL     1      45.506   4.593   8.488  0.00  0.00    +0.000 NA
ATOM     23  C   UNL     1      44.886   3.731   9.320  0.00  0.00    +0.000 A 
ATOM     24  C   UNL     1      45.146   2.370   9.300  0.00  0.00    +0.000 A 
ATOM     25  N   UNL     1      45.981   1.797   8.393  0.00  0.00    +0.000 NA
ENDBRANCH  18  23
ENDBRANCH  15  18
ENDBRANCH   1  15
TORSDOF 4
ENDMDL
MODEL 6
REMARK VINA RESULT:    -6.263      3.255      7.331
REMARK INTER + INTRA:          -8.507
REMARK INTER:                  -7.697
REMARK INTRA:                  -0.810
REMARK UNBOUND:                -0.779
REMARK  Name = 
REMARK  5 active torsions:
REMARK  status: ('A' for Active; 'I' for Inactive)
REMARK    1  A    between atoms: C_1  and  C_2
REMARK    2  A    between atoms: C_5  and  O_6
REMARK    3  A    between atoms: O_6  and  C_7
REMARK    4  A    between atoms: C_7  and  C_8
REMARK    5  A    between atoms: C_13  and  C_14
REMARK                            x       y       z     vdW  Elec       q    Type
REMARK                         _______ _______ _______ _____ _____    ______ ____
ROOT
ATOM      1  C   UNL     1      47.384   7.776  12.319  0.00  0.00    +0.000 A 
ATOM      2  C   UNL     1      46.700   8.988  12.467  0.00  0.00    +0.000 A 
ATOM      3  C   UNL     1      45.359   9.080  12.122  0.00  0.00    +0.000 A 
ATOM      4  F   UNL     1      44.729  10.256  12.239  0.00  0.00    +0.000 F 
ATOM      5  C   UNL     1      44.663   7.978  11.631  0.00  0.00    +0.000 A 
ATOM      6  C   UNL     1      45.293   6.730  11.511  0.00  0.00    +0.000 A 
ATOM      7  C   UNL     1      46.648   6.663  11.867  0.00  0.00    +0.000 A 
ENDROOT
BRANCH   6   8
ATOM      8  C   UNL     1      44.531   5.541  10.930  0.00  0.00    +0.000 C 
ATOM      9  C   UNL     1      43.094   5.422  11.475  0.00  0.00    +0.000 C 
ATOM     10  C   UNL     1      43.057   4.806  12.873  0.00  0.00    +0.000 C 
ATOM     11  N   UNL     1      43.688   3.485  12.901  0.00  0.00    +0.000 NA
ATOM     12  C   UNL     1      45.080   3.559  12.462  0.00  0.00    +0.000 C 
ATOM     13  C   UNL     1      45.209   4.158  11.058  0.00  0.00    +0.000 C 
ATOM     14  H   UNL     1      43.175   2.854  12.286  0.00  0.00    +0.000 HD
ENDBRANCH   6   8
BRANCH   1  15
ATOM     15  C   UNL     1      48.864   7.665  12.614  0.00  0.00    +0.000 C 
ATOM     16  C   UNL     1      49.856   7.625  11.443  0.00  0.00    +0.000 C 
ATOM     17  C   UNL     1      49.747   8.853  12.276  0.00  0.00    +0.000 C 
BRANCH  15  18
ATOM     18  O   UNL     1      49.223   6.681  13.607  0.00  0.00    +0.000 OA
BRANCH  18  23
ATOM     19  C   UNL     1      48.614   6.988  19.087  0.00  0.00    +0.000 C 
ATOM     20  C   UNL     1      48.590   6.982  17.595  0.00  0.00    +0.000 A 
ATOM     21  C   UNL     1      48.952   8.107  16.856  0.00  0.00    +0.000 A 
ATOM     22  N   UNL     1      49.089   8.094  15.508  0.00  0.00    +0.000 NA
ATOM     23  C   UNL     1      48.865   6.901  14.920  0.00  0.00    +0.000 A 
ATOM     24  C   UNL     1      48.435   5.795  15.635  0.00  0.00    +0.000 A 
ATOM     25  N   UNL     1      48.284   5.809  16.986  0.00  0.00    +0.000 NA
ENDBRANCH  18  23
ENDBRANCH  15  18
ENDBRANCH   1  15
TORSDOF 4
ENDMDL
MODEL 7
REMARK VINA RESULT:    -6.246      2.482      6.776
REMARK INTER + INTRA:          -8.486
REMARK INTER:                  -8.376
REMARK INTRA:                  -0.110
REMARK UNBOUND:                -0.779
REMARK  Name = 
REMARK  5 active torsions:
REMARK  status: ('A' for Active; 'I' for Inactive)
REMARK    1  A    between atoms: C_1  and  C_2
REMARK    2  A    between atoms: C_5  and  O_6
REMARK    3  A    between atoms: O_6  and  C_7
REMARK    4  A    between atoms: C_7  and  C_8
REMARK    5  A    between atoms: C_13  and  C_14
REMARK                            x       y       z     vdW  Elec       q    Type
REMARK                         _______ _______ _______ _____ _____    ______ ____
ROOT
ATOM      1  C   UNL     1      47.348   6.765  12.561  0.00  0.00    +0.000 A 
ATOM      2  C   UNL     1      47.411   5.989  13.722  0.00  0.00    +0.000 A 
ATOM      3  C   UNL     1      46.527   4.935  13.907  0.00  0.00    +0.000 A 
ATOM      4  F   UNL     1      46.579   4.223  15.040  0.00  0.00    +0.000 F 
ATOM      5  C   UNL     1      45.568   4.621  12.947  0.00  0.00    +0.000 A 
ATOM      6  C   UNL     1      45.498   5.341  11.745  0.00  0.00    +0.000 A 
ATOM      7  C   UNL     1      46.404   6.400  11.581  0.00  0.00    +0.000 A 
ENDROOT
BRANCH   6   8
ATOM      8  C   UNL     1      44.414   5.015  10.719  0.00  0.00    +0.000 C 
ATOM      9  C   UNL     1      43.199   4.294  11.335  0.00  0.00    +0.000 C 
ATOM     10  C   UNL     1      43.469   2.808  11.571  0.00  0.00    +0.000 C 
ATOM     11  N   UNL     1      43.854   2.124  10.335  0.00  0.00    +0.000 NA
ATOM     12  C   UNL     1      45.049   2.727   9.751  0.00  0.00    +0.000 C 
ATOM     13  C   UNL     1      44.862   4.221   9.471  0.00  0.00    +0.000 C 
ATOM     14  H   UNL     1      43.086   2.182   9.665  0.00  0.00    +0.000 HD
ENDBRANCH   6   8
BRANCH   1  15
ATOM     15  C   UNL     1      48.248   7.967  12.367  0.00  0.00    +0.000 C 
ATOM     16  C   UNL     1      49.755   7.818  12.620  0.00  0.00    +0.000 C 
ATOM     17  C   UNL     1      49.247   7.929  11.225  0.00  0.00    +0.000 C 
BRANCH  15  18
ATOM     18  O   UNL     1      47.764   9.199  12.943  0.00  0.00    +0.000 OA
BRANCH  18  23
ATOM     19  C   UNL     1      44.054  12.749  10.911  0.00  0.00    +0.000 C 
ATOM     20  C   UNL     1      45.046  11.697  11.278  0.00  0.00    +0.000 A 
ATOM     21  C   UNL     1      46.401  11.840  10.985  0.00  0.00    +0.000 A 
ATOM     22  N   UNL     1      47.350  10.983  11.434  0.00  0.00    +0.000 NA
ATOM     23  C   UNL     1      46.894   9.978  12.209  0.00  0.00    +0.000 A 
ATOM     24  C   UNL     1      45.543   9.785  12.448  0.00  0.00    +0.000 A 
ATOM     25  N   UNL     1      44.589  10.636  11.987  0.00  0.00    +0.000 NA
ENDBRANCH  18  23
ENDBRANCH  15  18
ENDBRANCH   1  15
TORSDOF 4
ENDMDL
MODEL 8
REMARK VINA RESULT:    -6.043      3.073      6.453
REMARK INTER + INTRA:          -8.235
REMARK INTER:                  -7.622
REMARK INTRA:                  -0.613
REMARK UNBOUND:                -0.779
REMARK  Name = 
REMARK  5 active torsions:
REMARK  status: ('A' for Active; 'I' for Inactive)
REMARK    1  A    between atoms: C_1  and  C_2
REMARK    2  A    between atoms: C_5  and  O_6
REMARK    3  A    between atoms: O_6  and  C_7
REMARK    4  A    between atoms: C_7  and  C_8
REMARK    5  A    between atoms: C_13  and  C_14
REMARK                            x       y       z     vdW  Elec       q    Type
REMARK                         _______ _______ _______ _____ _____    ______ ____
ROOT
ATOM      1  C   UNL     1      47.755   6.763  13.075  0.00  0.00    +0.000 A 
ATOM      2  C   UNL     1      48.029   6.215  14.332  0.00  0.00    +0.000 A 
ATOM      3  C   UNL     1      47.332   5.099  14.775  0.00  0.00    +0.000 A 
ATOM      4  F   UNL     1      47.584   4.607  15.995  0.00  0.00    +0.000 F 
ATOM      5  C   UNL     1      46.357   4.497  13.984  0.00  0.00    +0.000 A 
ATOM      6  C   UNL     1      46.082   4.981  12.696  0.00  0.00    +0.000 A 
ATOM      7  C   UNL     1      46.800   6.109  12.271  0.00  0.00    +0.000 A 
ENDROOT
BRANCH   6   8
ATOM      8  C   UNL     1      44.980   4.339  11.856  0.00  0.00    +0.000 C 
ATOM      9  C   UNL     1      44.471   5.255  10.727  0.00  0.00    +0.000 C 
ATOM     10  C   UNL     1      43.503   6.320  11.241  0.00  0.00    +0.000 C 
ATOM     11  N   UNL     1      42.354   5.724  11.926  0.00  0.00    +0.000 NA
ATOM     12  C   UNL     1      42.784   4.902  13.054  0.00  0.00    +0.000 C 
ATOM     13  C   UNL     1      43.754   3.797  12.624  0.00  0.00    +0.000 C 
ATOM     14  H   UNL     1      41.834   5.145  11.267  0.00  0.00    +0.000 HD
ENDBRANCH   6   8
BRANCH   1  15
ATOM     15  C   UNL     1      48.443   8.024  12.598  0.00  0.00    +0.000 C 
ATOM     16  C   UNL     1      49.977   8.091  12.626  0.00  0.00    +0.000 C 
ATOM     17  C   UNL     1      49.268   7.945  11.325  0.00  0.00    +0.000 C 
BRANCH  15  18
ATOM     18  O   UNL     1      47.880   9.258  13.090  0.00  0.00    +0.000 OA
BRANCH  18  23
ATOM     19  C   UNL     1      43.664  12.169  11.026  0.00  0.00    +0.000 C 
ATOM     20  C   UNL     1      44.804  11.283  11.405  0.00  0.00    +0.000 A 
ATOM     21  C   UNL     1      46.119  11.612  11.083  0.00  0.00    +0.000 A 
ATOM     22  N   UNL     1      47.189  10.916  11.539  0.00  0.00    +0.000 NA
ATOM     23  C   UNL     1      46.896   9.880  12.351  0.00  0.00    +0.000 A 
ATOM     24  C   UNL     1      45.591   9.501  12.620  0.00  0.00    +0.000 A 
ATOM     25  N   UNL     1      44.516  10.189  12.153  0.00  0.00    +0.000 NA
ENDBRANCH  18  23
ENDBRANCH  15  18
ENDBRANCH   1  15
TORSDOF 4
ENDMDL
MODEL 9
REMARK VINA RESULT:    -5.889      3.520      5.623
REMARK INTER + INTRA:          -8.045
REMARK INTER:                  -7.457
REMARK INTRA:                  -0.588
REMARK UNBOUND:                -0.779
REMARK  Name = 
REMARK  5 active torsions:
REMARK  status: ('A' for Active; 'I' for Inactive)
REMARK    1  A    between atoms: C_1  and  C_2
REMARK    2  A    between atoms: C_5  and  O_6
REMARK    3  A    between atoms: O_6  and  C_7
REMARK    4  A    between atoms: C_7  and  C_8
REMARK    5  A    between atoms: C_13  and  C_14
REMARK                            x       y       z     vdW  Elec       q    Type
REMARK                         _______ _______ _______ _____ _____    ______ ____
ROOT
ATOM      1  C   UNL     1      48.331   7.878  14.296  0.00  0.00    +0.000 A 
ATOM      2  C   UNL     1      48.239   9.176  14.808  0.00  0.00    +0.000 A 
ATOM      3  C   UNL     1      48.442   9.410  16.161  0.00  0.00    +0.000 A 
ATOM      4  F   UNL     1      48.317  10.655  16.640  0.00  0.00    +0.000 F 
ATOM      5  C   UNL     1      48.747   8.370  17.035  0.00  0.00    +0.000 A 
ATOM      6  C   UNL     1      48.898   7.058  16.560  0.00  0.00    +0.000 A 
ATOM      7  C   UNL     1      48.689   6.848  15.189  0.00  0.00    +0.000 A 
ENDROOT
BRANCH   6   8
ATOM      8  C   UNL     1      49.190   5.920  17.536  0.00  0.00    +0.000 C 
ATOM      9  C   UNL     1      48.917   4.527  16.936  0.00  0.00    +0.000 C 
ATOM     10  C   UNL     1      47.428   4.184  16.930  0.00  0.00    +0.000 C 
ATOM     11  N   UNL     1      46.852   4.245  18.275  0.00  0.00    +0.000 NA
ATOM     12  C   UNL     1      47.021   5.574  18.858  0.00  0.00    +0.000 C 
ATOM     13  C   UNL     1      48.493   5.995  18.913  0.00  0.00    +0.000 C 
ATOM     14  H   UNL     1      47.312   3.556  18.870  0.00  0.00    +0.000 HD
ENDBRANCH   6   8
BRANCH   1  15
ATOM     15  C   UNL     1      48.040   7.581  12.841  0.00  0.00    +0.000 C 
ATOM     16  C   UNL     1      48.803   8.354  11.756  0.00  0.00    +0.000 C 
ATOM     17  C   UNL     1      49.133   6.926  12.017  0.00  0.00    +0.000 C 
BRANCH  15  18
ATOM     18  O   UNL     1      46.640   7.491  12.499  0.00  0.00    +0.000 OA
BRANCH  18  23
ATOM     19  C   UNL     1      43.616   2.901  11.956  0.00  0.00    +0.000 C 
ATOM     20  C   UNL     1      44.594   4.025  12.055  0.00  0.00    +0.000 A 
ATOM     21  C   UNL     1      44.962   4.769  10.936  0.00  0.00    +0.000 A 
ATOM     22  N   UNL     1      45.725   5.887  11.008  0.00  0.00    +0.000 NA
ATOM     23  C   UNL     1      46.096   6.248  12.254  0.00  0.00    +0.000 A 
ATOM     24  C   UNL     1      45.796   5.477  13.365  0.00  0.00    +0.000 A 
ATOM     25  N   UNL     1      45.042   4.348  13.293  0.00  0.00    +0.000 NA
ENDBRANCH  18  23
ENDBRANCH  15  18
ENDBRANCH   1  15
TORSDOF 4
ENDMDL
