MODEL 1
REMARK VINA RESULT:    -8.216      0.000      0.000
REMARK INTER + INTRA:         -11.485
REMARK INTER:                 -10.617
REMARK INTRA:                  -0.867
REMARK UNBOUND:                -0.867
REMARK  Name = 
REMARK  5 active torsions:
REMARK  status: ('A' for Active; 'I' for Inactive)
REMARK    1  A    between atoms: C_2  and  C_3
REMARK    2  A    between atoms: C_6  and  O_7
REMARK    3  A    between atoms: O_7  and  C_8
REMARK    4  A    between atoms: C_8  and  C_9
REMARK    5  A    between atoms: C_14  and  C_15
REMARK                            x       y       z     vdW  Elec       q    Type
REMARK                         _______ _______ _______ _____ _____    ______ ____
ROOT
ATOM      1  C   UNL     1      45.007   4.186  12.082  0.00  0.00    +0.000 A 
ATOM      2  C   UNL     1      45.827   3.437  12.934  0.00  0.00    +0.000 A 
ATOM      3  C   UNL     1      46.847   4.064  13.644  0.00  0.00    +0.000 A 
ATOM      4  C   UNL     1      47.061   5.434  13.498  0.00  0.00    +0.000 A 
ATOM      5  F   UNL     1      48.042   5.983  14.232  0.00  0.00    +0.000 F 
ATOM      6  C   UNL     1      46.290   6.219  12.625  0.00  0.00    +0.000 A 
ATOM      7  C   UNL     1      45.269   5.556  11.919  0.00  0.00    +0.000 A 
ENDROOT
BRANCH   6   8
ATOM      8  C   UNL     1      46.534   7.666  12.408  0.00  0.00    +0.000 A 
ATOM      9  C   UNL     1      47.814   8.158  12.104  0.00  0.00    +0.000 A 
ATOM     10  C   UNL     1      48.037   9.516  11.858  0.00  0.00    +0.000 A 
ATOM     11  C   UNL     1      46.978  10.416  11.895  0.00  0.00    +0.000 A 
ATOM     12  C   UNL     1      45.699   9.961  12.195  0.00  0.00    +0.000 A 
ATOM     13  C   UNL     1      45.484   8.605  12.457  0.00  0.00    +0.000 A 
ENDBRANCH   6   8
BRANCH   1  14
ATOM     14  C   UNL     1      43.914   3.513  11.283  0.00  0.00    +0.000 C 
BRANCH  14  15
ATOM     15  O   UNL     1      43.823   4.094   9.975  0.00  0.00    +0.000 OA
BRANCH  15  19
ATOM     16  C   UNL     1      46.635   2.495   7.433  0.00  0.00    +0.000 A 
ATOM     17  C   UNL     1      45.938   1.655   8.303  0.00  0.00    +0.000 A 
ATOM     18  C   UNL     1      44.978   2.201   9.159  0.00  0.00    +0.000 A 
ATOM     19  C   UNL     1      44.756   3.569   9.107  0.00  0.00    +0.000 A 
ATOM     20  N   UNL     1      45.413   4.399   8.270  0.00  0.00    +0.000 NA
ATOM     21  C   UNL     1      46.335   3.844   7.452  0.00  0.00    +0.000 A 
BRANCH  16  23
ATOM     22  N   UNL     1      48.455   1.613   5.818  0.00  0.00    +0.000 NA
ATOM     23  C   UNL     1      47.640   1.998   6.548  0.00  0.00    +0.000 C 
ENDBRANCH  16  23
ENDBRANCH  15  19
ENDBRANCH  14  15
ENDBRANCH   1  14
TORSDOF 5
ENDMDL
MODEL 2
REMARK VINA RESULT:    -7.828      1.760      2.646
REMARK INTER + INTRA:         -10.983
REMARK INTER:                 -10.028
REMARK INTRA:                  -0.955
REMARK UNBOUND:                -0.867
REMARK  Name = 
REMARK  5 active torsions:
REMARK  status: ('A' for Active; 'I' for Inactive)
REMARK    1  A    between atoms: C_2  and  C_3
REMARK    2  A    between atoms: C_6  and  O_7
REMARK    3  A    between atoms: O_7  and  C_8
REMARK    4  A    between atoms: C_8  and  C_9
REMARK    5  A    between atoms: C_14  and  C_15
REMARK                            x       y       z     vdW  Elec       q    Type
REMARK                         _______ _______ _______ _____ _____    ______ ____
ROOT
ATOM      1  C   UNL     1      44.533   5.020  11.493  0.00  0.00    +0.000 A 
ATOM      2  C   UNL     1      43.575   6.022  11.297  0.00  0.00    +0.000 A 
ATOM      3  C   UNL     1      43.935   7.362  11.423  0.00  0.00    +0.000 A 
ATOM      4  C   UNL     1      45.245   7.705  11.755  0.00  0.00    +0.000 A 
ATOM      5  F   UNL     1      45.534   9.013  11.833  0.00  0.00    +0.000 F 
ATOM      6  C   UNL     1      46.230   6.734  12.000  0.00  0.00    +0.000 A 
ATOM      7  C   UNL     1      45.835   5.390  11.869  0.00  0.00    +0.000 A 
ENDROOT
BRANCH   6   8
ATOM      8  C   UNL     1      47.615   7.071  12.412  0.00  0.00    +0.000 A 
ATOM      9  C   UNL     1      48.539   7.616  11.504  0.00  0.00    +0.000 A 
ATOM     10  C   UNL     1      49.831   7.973  11.901  0.00  0.00    +0.000 A 
ATOM     11  C   UNL     1      50.226   7.808  13.224  0.00  0.00    +0.000 A 
ATOM     12  C   UNL     1      49.336   7.271  14.146  0.00  0.00    +0.000 A 
ATOM     13  C   UNL     1      48.050   6.898  13.741  0.00  0.00    +0.000 A 
ENDBRANCH   6   8
BRANCH   1  14
ATOM     14  C   UNL     1      44.148   3.562  11.389  0.00  0.00    +0.000 C 
BRANCH  14  15
ATOM     15  O   UNL     1      43.638   3.274  10.079  0.00  0.00    +0.000 OA
BRANCH  15  19
ATOM     16  C   UNL     1      46.600   2.395   7.363  0.00  0.00    +0.000 A 
ATOM     17  C   UNL     1      46.093   3.694   7.431  0.00  0.00    +0.000 A 
ATOM     18  C   UNL     1      45.094   3.991   8.361  0.00  0.00    +0.000 A 
ATOM     19  C   UNL     1      44.642   2.970   9.185  0.00  0.00    +0.000 A 
ATOM     20  N   UNL     1      45.122   1.710   9.141  0.00  0.00    +0.000 NA
ATOM     21  C   UNL     1      46.090   1.452   8.234  0.00  0.00    +0.000 A 
BRANCH  16  23
ATOM     22  N   UNL     1      48.417   1.719   5.648  0.00  0.00    +0.000 NA
ATOM     23  C   UNL     1      47.610   2.028   6.422  0.00  0.00    +0.000 C 
ENDBRANCH  16  23
ENDBRANCH  15  19
ENDBRANCH  14  15
ENDBRANCH   1  14
TORSDOF 5
ENDMDL
MODEL 3
REMARK VINA RESULT:    -7.586      1.769      3.758
REMARK INTER + INTRA:         -10.671
REMARK INTER:                 -10.235
REMARK INTRA:                  -0.436
REMARK UNBOUND:                -0.867
REMARK  Name = 
REMARK  5 active torsions:
REMARK  status: ('A' for Active; 'I' for Inactive)
REMARK    1  A    between atoms: C_2  and  C_3
REMARK    2  A    between atoms: C_6  and  O_7
REMARK    3  A    between atoms: O_7  and  C_8
REMARK    4  A    between atoms: C_8  and  C_9
REMARK    5  A    between atoms: C_14  and  C_15
REMARK                            x       y       z     vdW  Elec       q    Type
REMARK                         _______ _______ _______ _____ _____    ______ ____
ROOT
ATOM      1  C   UNL     1      45.302   4.695  12.133  0.00  0.00    +0.000 A 
ATOM      2  C   UNL     1      45.683   5.923  11.579  0.00  0.00    +0.000 A 
ATOM      3  C   UNL     1      46.678   6.682  12.191  0.00  0.00    +0.000 A 
ATOM      4  C   UNL     1      47.284   6.227  13.361  0.00  0.00    +0.000 A 
ATOM      5  F   UNL     1      48.255   6.991  13.885  0.00  0.00    +0.000 F 
ATOM      6  C   UNL     1      46.907   5.020  13.975  0.00  0.00    +0.000 A 
ATOM      7  C   UNL     1      45.898   4.278  13.334  0.00  0.00    +0.000 A 
ENDROOT
BRANCH   6   8
ATOM      8  C   UNL     1      47.496   4.541  15.249  0.00  0.00    +0.000 A 
ATOM      9  C   UNL     1      47.659   3.171  15.514  0.00  0.00    +0.000 A 
ATOM     10  C   UNL     1      48.252   2.721  16.696  0.00  0.00    +0.000 A 
ATOM     11  C   UNL     1      48.712   3.633  17.640  0.00  0.00    +0.000 A 
ATOM     12  C   UNL     1      48.564   4.995  17.408  0.00  0.00    +0.000 A 
ATOM     13  C   UNL     1      47.954   5.441  16.232  0.00  0.00    +0.000 A 
ENDBRANCH   6   8
BRANCH   1  14
ATOM     14  C   UNL     1      44.204   3.875  11.495  0.00  0.00    +0.000 C 
BRANCH  14  15
ATOM     15  O   UNL     1      43.968   4.319  10.151  0.00  0.00    +0.000 OA
BRANCH  15  19
ATOM     16  C   UNL     1      46.591   2.556   7.517  0.00  0.00    +0.000 A 
ATOM     17  C   UNL     1      45.890   1.761   8.425  0.00  0.00    +0.000 A 
ATOM     18  C   UNL     1      44.994   2.362   9.312  0.00  0.00    +0.000 A 
ATOM     19  C   UNL     1      44.837   3.739   9.252  0.00  0.00    +0.000 A 
ATOM     20  N   UNL     1      45.499   4.527   8.378  0.00  0.00    +0.000 NA
ATOM     21  C   UNL     1      46.357   3.918   7.530  0.00  0.00    +0.000 A 
BRANCH  16  23
ATOM     22  N   UNL     1      48.296   1.568   5.840  0.00  0.00    +0.000 NA
ATOM     23  C   UNL     1      47.532   2.001   6.597  0.00  0.00    +0.000 C 
ENDBRANCH  16  23
ENDBRANCH  15  19
ENDBRANCH  14  15
ENDBRANCH   1  14
TORSDOF 5
ENDMDL
MODEL 4
REMARK VINA RESULT:    -7.179      3.274      6.774
REMARK INTER + INTRA:         -10.145
REMARK INTER:                  -9.439
REMARK INTRA:                  -0.705
REMARK UNBOUND:                -0.867
REMARK  Name = 
REMARK  5 active torsions:
REMARK  status: ('A' for Active; 'I' for Inactive)
REMARK    1  A    between atoms: C_2  and  C_3
REMARK    2  A    between atoms: C_6  and  O_7
REMARK    3  A    between atoms: O_7  and  C_8
REMARK    4  A    between atoms: C_8  and  C_9
REMARK    5  A    between atoms: C_14  and  C_15
REMARK                            x       y       z     vdW  Elec       q    Type
REMARK                         _______ _______ _______ _____ _____    ______ ____
ROOT
ATOM      1  C   UNL     1      44.550   5.562  11.014  0.00  0.00    +0.000 A 
ATOM      2  C   UNL     1      43.589   4.830  11.722  0.00  0.00    +0.000 A 
ATOM      3  C   UNL     1      43.345   3.500  11.390  0.00  0.00    +0.000 A 
ATOM      4  C   UNL     1      44.047   2.900  10.346  0.00  0.00    +0.000 A 
ATOM      5  F   UNL     1      43.787   1.608  10.094  0.00  0.00    +0.000 F 
ATOM      6  C   UNL     1      44.992   3.606   9.581  0.00  0.00    +0.000 A 
ATOM      7  C   UNL     1      45.213   4.948   9.939  0.00  0.00    +0.000 A 
ENDROOT
BRANCH   6   8
ATOM      8  C   UNL     1      45.710   3.008   8.429  0.00  0.00    +0.000 A 
ATOM      9  C   UNL     1      46.056   3.773   7.302  0.00  0.00    +0.000 A 
ATOM     10  C   UNL     1      46.769   3.221   6.234  0.00  0.00    +0.000 A 
ATOM     11  C   UNL     1      47.170   1.890   6.275  0.00  0.00    +0.000 A 
ATOM     12  C   UNL     1      46.843   1.107   7.375  0.00  0.00    +0.000 A 
ATOM     13  C   UNL     1      46.114   1.658   8.433  0.00  0.00    +0.000 A 
ENDBRANCH   6   8
BRANCH   1  14
ATOM     14  C   UNL     1      44.803   7.015  11.345  0.00  0.00    +0.000 C 
BRANCH  14  15
ATOM     15  O   UNL     1      45.493   7.127  12.598  0.00  0.00    +0.000 OA
BRANCH  15  19
ATOM     16  C   UNL     1      49.442   8.199  12.169  0.00  0.00    +0.000 A 
ATOM     17  C   UNL     1      49.120   6.894  12.547  0.00  0.00    +0.000 A 
ATOM     18  C   UNL     1      47.778   6.532  12.684  0.00  0.00    +0.000 A 
ATOM     19  C   UNL     1      46.811   7.494  12.435  0.00  0.00    +0.000 A 
ATOM     20  N   UNL     1      47.098   8.759  12.062  0.00  0.00    +0.000 NA
ATOM     21  C   UNL     1      48.405   9.082  11.936  0.00  0.00    +0.000 A 
BRANCH  16  23
ATOM     22  N   UNL     1      51.888   9.003  11.914  0.00  0.00    +0.000 NA
ATOM     23  C   UNL     1      50.795   8.632  12.030  0.00  0.00    +0.000 C 
ENDBRANCH  16  23
ENDBRANCH  15  19
ENDBRANCH  14  15
ENDBRANCH   1  14
TORSDOF 5
ENDMDL
MODEL 5
REMARK VINA RESULT:    -6.880      3.684      7.320
REMARK INTER + INTRA:          -9.758
REMARK INTER:                  -9.129
REMARK INTRA:                  -0.629
REMARK UNBOUND:                -0.867
REMARK  Name = 
REMARK  5 active torsions:
REMARK  status: ('A' for Active; 'I' for Inactive)
REMARK    1  A    between atoms: C_2  and  C_3
REMARK    2  A    between atoms: C_6  and  O_7
REMARK    3  A    between atoms: O_7  and  C_8
REMARK    4  A    between atoms: C_8  and  C_9
REMARK    5  A    between atoms: C_14  and  C_15
REMARK                            x       y       z     vdW  Elec       q    Type
REMARK                         _______ _______ _______ _____ _____    ______ ____
ROOT
ATOM      1  C   UNL     1      44.871   4.701  11.642  0.00  0.00    +0.000 A 
ATOM      2  C   UNL     1      43.816   3.919  12.127  0.00  0.00    +0.000 A 
ATOM      3  C   UNL     1      43.431   2.769  11.443  0.00  0.00    +0.000 A 
ATOM      4  C   UNL     1      44.088   2.402  10.269  0.00  0.00    +0.000 A 
ATOM      5  F   UNL     1      43.689   1.268   9.673  0.00  0.00    +0.000 F 
ATOM      6  C   UNL     1      45.125   3.176   9.722  0.00  0.00    +0.000 A 
ATOM      7  C   UNL     1      45.488   4.334  10.435  0.00  0.00    +0.000 A 
ENDROOT
BRANCH   6   8
ATOM      8  C   UNL     1      45.800   2.839   8.445  0.00  0.00    +0.000 A 
ATOM      9  C   UNL     1      45.979   3.798   7.433  0.00  0.00    +0.000 A 
ATOM     10  C   UNL     1      46.651   3.492   6.247  0.00  0.00    +0.000 A 
ATOM     11  C   UNL     1      47.178   2.221   6.050  0.00  0.00    +0.000 A 
ATOM     12  C   UNL     1      47.017   1.250   7.031  0.00  0.00    +0.000 A 
ATOM     13  C   UNL     1      46.328   1.554   8.208  0.00  0.00    +0.000 A 
ENDBRANCH   6   8
BRANCH   1  14
ATOM     14  C   UNL     1      45.279   5.967  12.359  0.00  0.00    +0.000 C 
BRANCH  14  15
ATOM     15  O   UNL     1      46.709   6.083  12.393  0.00  0.00    +0.000 OA
BRANCH  15  19
ATOM     16  C   UNL     1      48.183   5.295  16.151  0.00  0.00    +0.000 A 
ATOM     17  C   UNL     1      47.282   4.404  15.565  0.00  0.00    +0.000 A 
ATOM     18  C   UNL     1      46.791   4.670  14.285  0.00  0.00    +0.000 A 
ATOM     19  C   UNL     1      47.223   5.822  13.644  0.00  0.00    +0.000 A 
ATOM     20  N   UNL     1      48.097   6.694  14.189  0.00  0.00    +0.000 NA
ATOM     21  C   UNL     1      48.558   6.410  15.427  0.00  0.00    +0.000 A 
BRANCH  16  23
ATOM     22  N   UNL     1      49.126   4.893  18.527  0.00  0.00    +0.000 NA
ATOM     23  C   UNL     1      48.706   5.085  17.463  0.00  0.00    +0.000 C 
ENDBRANCH  16  23
ENDBRANCH  15  19
ENDBRANCH  14  15
ENDBRANCH   1  14
TORSDOF 5
ENDMDL
MODEL 6
REMARK VINA RESULT:    -6.782      2.733      3.738
REMARK INTER + INTRA:          -9.632
REMARK INTER:                  -8.719
REMARK INTRA:                  -0.913
REMARK UNBOUND:                -0.867
REMARK  Name = 
REMARK  5 active torsions:
REMARK  status: ('A' for Active; 'I' for Inactive)
REMARK    1  A    between atoms: C_2  and  C_3
REMARK    2  A    between atoms: C_6  and  O_7
REMARK    3  A    between atoms: O_7  and  C_8
REMARK    4  A    between atoms: C_8  and  C_9
REMARK    5  A    between atoms: C_14  and  C_15
REMARK                            x       y       z     vdW  Elec       q    Type
REMARK                         _______ _______ _______ _____ _____    ______ ____
ROOT
ATOM      1  C   UNL     1      44.798   6.711  11.862  0.00  0.00    +0.000 A 
ATOM      2  C   UNL     1      45.924   7.169  12.556  0.00  0.00    +0.000 A 
ATOM      3  C   UNL     1      46.187   8.535  12.630  0.00  0.00    +0.000 A 
ATOM      4  C   UNL     1      45.337   9.445  12.003  0.00  0.00    +0.000 A 
ATOM      5  F   UNL     1      45.630  10.748  12.136  0.00  0.00    +0.000 F 
ATOM      6  C   UNL     1      44.217   9.031  11.263  0.00  0.00    +0.000 A 
ATOM      7  C   UNL     1      43.981   7.645  11.204  0.00  0.00    +0.000 A 
ENDROOT
BRANCH   6   8
ATOM      8  C   UNL     1      43.331   9.974  10.539  0.00  0.00    +0.000 A 
ATOM      9  C   UNL     1      43.781  10.695   9.420  0.00  0.00    +0.000 A 
ATOM     10  C   UNL     1      42.934  11.553   8.713  0.00  0.00    +0.000 A 
ATOM     11  C   UNL     1      41.606  11.699   9.099  0.00  0.00    +0.000 A 
ATOM     12  C   UNL     1      41.130  11.000  10.202  0.00  0.00    +0.000 A 
ATOM     13  C   UNL     1      41.985  10.157  10.918  0.00  0.00    +0.000 A 
ENDBRANCH   6   8
BRANCH   1  14
ATOM     14  C   UNL     1      44.517   5.230  11.750  0.00  0.00    +0.000 C 
BRANCH  14  15
ATOM     15  O   UNL     1      43.871   4.939  10.503  0.00  0.00    +0.000 OA
BRANCH  15  19
ATOM     16  C   UNL     1      46.111   2.490   8.073  0.00  0.00    +0.000 A 
ATOM     17  C   UNL     1      46.233   3.876   7.953  0.00  0.00    +0.000 A 
ATOM     18  C   UNL     1      45.477   4.703   8.786  0.00  0.00    +0.000 A 
ATOM     19  C   UNL     1      44.628   4.107   9.707  0.00  0.00    +0.000 A 
ATOM     20  N   UNL     1      44.498   2.771   9.844  0.00  0.00    +0.000 NA
ATOM     21  C   UNL     1      45.244   1.994   9.026  0.00  0.00    +0.000 A 
BRANCH  16  23
ATOM     22  N   UNL     1      47.430   0.850   6.567  0.00  0.00    +0.000 NA
ATOM     23  C   UNL     1      46.845   1.593   7.238  0.00  0.00    +0.000 C 
ENDBRANCH  16  23
ENDBRANCH  15  19
ENDBRANCH  14  15
ENDBRANCH   1  14
TORSDOF 5
ENDMDL
MODEL 7
REMARK VINA RESULT:    -6.529      1.644      2.383
REMARK INTER + INTRA:          -9.304
REMARK INTER:                  -8.483
REMARK INTRA:                  -0.821
REMARK UNBOUND:                -0.867
REMARK  Name = 
REMARK  5 active torsions:
REMARK  status: ('A' for Active; 'I' for Inactive)
REMARK    1  A    between atoms: C_2  and  C_3
REMARK    2  A    between atoms: C_6  and  O_7
REMARK    3  A    between atoms: O_7  and  C_8
REMARK    4  A    between atoms: C_8  and  C_9
REMARK    5  A    between atoms: C_14  and  C_15
REMARK                            x       y       z     vdW  Elec       q    Type
REMARK                         _______ _______ _______ _____ _____    ______ ____
ROOT
ATOM      1  C   UNL     1      46.010   6.257  12.082  0.00  0.00    +0.000 A 
ATOM      2  C   UNL     1      46.207   5.544  13.270  0.00  0.00    +0.000 A 
ATOM      3  C   UNL     1      47.370   5.734  14.011  0.00  0.00    +0.000 A 
ATOM      4  C   UNL     1      48.345   6.625  13.564  0.00  0.00    +0.000 A 
ATOM      5  F   UNL     1      49.430   6.785  14.338  0.00  0.00    +0.000 F 
ATOM      6  C   UNL     1      48.211   7.334  12.358  0.00  0.00    +0.000 A 
ATOM      7  C   UNL     1      47.025   7.117  11.631  0.00  0.00    +0.000 A 
ENDROOT
BRANCH   6   8
ATOM      8  C   UNL     1      49.257   8.243  11.832  0.00  0.00    +0.000 A 
ATOM      9  C   UNL     1      50.504   7.758  11.402  0.00  0.00    +0.000 A 
ATOM     10  C   UNL     1      51.475   8.608  10.868  0.00  0.00    +0.000 A 
ATOM     11  C   UNL     1      51.217   9.968  10.735  0.00  0.00    +0.000 A 
ATOM     12  C   UNL     1      49.994  10.480  11.152  0.00  0.00    +0.000 A 
ATOM     13  C   UNL     1      49.032   9.628  11.703  0.00  0.00    +0.000 A 
ENDBRANCH   6   8
BRANCH   1  14
ATOM     14  C   UNL     1      44.765   6.039  11.253  0.00  0.00    +0.000 C 
BRANCH  14  15
ATOM     15  O   UNL     1      44.538   4.636  11.056  0.00  0.00    +0.000 OA
BRANCH  15  19
ATOM     16  C   UNL     1      46.152   3.245   7.537  0.00  0.00    +0.000 A 
ATOM     17  C   UNL     1      45.575   2.343   8.434  0.00  0.00    +0.000 A 
ATOM     18  C   UNL     1      45.021   2.820   9.623  0.00  0.00    +0.000 A 
ATOM     19  C   UNL     1      45.067   4.185   9.867  0.00  0.00    +0.000 A 
ATOM     20  N   UNL     1      45.613   5.076   9.013  0.00  0.00    +0.000 NA
ATOM     21  C   UNL     1      46.140   4.586   7.868  0.00  0.00    +0.000 A 
BRANCH  16  23
ATOM     22  N   UNL     1      47.222   2.479   5.309  0.00  0.00    +0.000 NA
ATOM     23  C   UNL     1      46.749   2.815   6.314  0.00  0.00    +0.000 C 
ENDBRANCH  16  23
ENDBRANCH  15  19
ENDBRANCH  14  15
ENDBRANCH   1  14
TORSDOF 5
ENDMDL
MODEL 8
REMARK VINA RESULT:    -6.403      4.263      7.798
REMARK INTER + INTRA:          -9.142
REMARK INTER:                  -8.121
REMARK INTRA:                  -1.020
REMARK UNBOUND:                -0.867
REMARK  Name = 
REMARK  5 active torsions:
REMARK  status: ('A' for Active; 'I' for Inactive)
REMARK    1  A    between atoms: C_2  and  C_3
REMARK    2  A    between atoms: C_6  and  O_7
REMARK    3  A    between atoms: O_7  and  C_8
REMARK    4  A    between atoms: C_8  and  C_9
REMARK    5  A    between atoms: C_14  and  C_15
REMARK                            x       y       z     vdW  Elec       q    Type
REMARK                         _______ _______ _______ _____ _____    ______ ____
ROOT
ATOM      1  C   UNL     1      47.294   7.622  12.581  0.00  0.00    +0.000 A 
ATOM      2  C   UNL     1      46.352   8.632  12.808  0.00  0.00    +0.000 A 
ATOM      3  C   UNL     1      45.061   8.505  12.302  0.00  0.00    +0.000 A 
ATOM      4  C   UNL     1      44.710   7.378  11.560  0.00  0.00    +0.000 A 
ATOM      5  F   UNL     1      43.442   7.302  11.125  0.00  0.00    +0.000 F 
ATOM      6  C   UNL     1      45.631   6.357  11.273  0.00  0.00    +0.000 A 
ATOM      7  C   UNL     1      46.928   6.517  11.795  0.00  0.00    +0.000 A 
ENDROOT
BRANCH   6   8
ATOM      8  C   UNL     1      45.300   5.178  10.438  0.00  0.00    +0.000 A 
ATOM      9  C   UNL     1      45.720   5.082   9.100  0.00  0.00    +0.000 A 
ATOM     10  C   UNL     1      45.443   3.953   8.325  0.00  0.00    +0.000 A 
ATOM     11  C   UNL     1      44.751   2.880   8.876  0.00  0.00    +0.000 A 
ATOM     12  C   UNL     1      44.321   2.943  10.196  0.00  0.00    +0.000 A 
ATOM     13  C   UNL     1      44.584   4.083  10.962  0.00  0.00    +0.000 A 
ENDBRANCH   6   8
BRANCH   1  14
ATOM     14  C   UNL     1      48.707   7.762  13.101  0.00  0.00    +0.000 C 
BRANCH  14  15
ATOM     15  O   UNL     1      49.145   6.530  13.691  0.00  0.00    +0.000 OA
BRANCH  15  19
ATOM     16  C   UNL     1      48.251   6.322  17.701  0.00  0.00    +0.000 A 
ATOM     17  C   UNL     1      48.781   7.501  17.176  0.00  0.00    +0.000 A 
ATOM     18  C   UNL     1      49.076   7.571  15.812  0.00  0.00    +0.000 A 
ATOM     19  C   UNL     1      48.825   6.453  15.030  0.00  0.00    +0.000 A 
ATOM     20  N   UNL     1      48.307   5.305  15.515  0.00  0.00    +0.000 NA
ATOM     21  C   UNL     1      48.030   5.267  16.838  0.00  0.00    +0.000 A 
BRANCH  16  23
ATOM     22  N   UNL     1      47.704   6.095  20.221  0.00  0.00    +0.000 NA
ATOM     23  C   UNL     1      47.946   6.185  19.090  0.00  0.00    +0.000 C 
ENDBRANCH  16  23
ENDBRANCH  15  19
ENDBRANCH  14  15
ENDBRANCH   1  14
TORSDOF 5
ENDMDL
MODEL 9
REMARK VINA RESULT:    -6.237      4.981      7.760
REMARK INTER + INTRA:          -8.927
REMARK INTER:                  -7.987
REMARK INTRA:                  -0.940
REMARK UNBOUND:                -0.867
REMARK  Name = 
REMARK  5 active torsions:
REMARK  status: ('A' for Active; 'I' for Inactive)
REMARK    1  A    between atoms: C_2  and  C_3
REMARK    2  A    between atoms: C_6  and  O_7
REMARK    3  A    between atoms: O_7  and  C_8
REMARK    4  A    between atoms: C_8  and  C_9
REMARK    5  A    between atoms: C_14  and  C_15
REMARK                            x       y       z     vdW  Elec       q    Type
REMARK                         _______ _______ _______ _____ _____    ______ ____
ROOT
ATOM      1  C   UNL     1      48.533   6.644  14.648  0.00  0.00    +0.000 A 
ATOM      2  C   UNL     1      49.192   7.298  13.600  0.00  0.00    +0.000 A 
ATOM      3  C   UNL     1      48.648   7.279  12.318  0.00  0.00    +0.000 A 
ATOM      4  C   UNL     1      47.455   6.599  12.076  0.00  0.00    +0.000 A 
ATOM      5  F   UNL     1      46.969   6.643  10.825  0.00  0.00    +0.000 F 
ATOM      6  C   UNL     1      46.779   5.896  13.086  0.00  0.00    +0.000 A 
ATOM      7  C   UNL     1      47.355   5.931  14.370  0.00  0.00    +0.000 A 
ENDROOT
BRANCH   6   8
ATOM      8  C   UNL     1      45.540   5.118  12.842  0.00  0.00    +0.000 A 
ATOM      9  C   UNL     1      44.269   5.707  12.949  0.00  0.00    +0.000 A 
ATOM     10  C   UNL     1      43.103   4.986  12.678  0.00  0.00    +0.000 A 
ATOM     11  C   UNL     1      43.181   3.657  12.277  0.00  0.00    +0.000 A 
ATOM     12  C   UNL     1      44.423   3.044  12.163  0.00  0.00    +0.000 A 
ATOM     13  C   UNL     1      45.586   3.764  12.452  0.00  0.00    +0.000 A 
ENDBRANCH   6   8
BRANCH   1  14
ATOM     14  C   UNL     1      49.127   6.633  16.038  0.00  0.00    +0.000 C 
BRANCH  14  15
ATOM     15  O   UNL     1      48.512   5.610  16.835  0.00  0.00    +0.000 OA
BRANCH  15  19
ATOM     16  C   UNL     1      51.127   2.523  17.578  0.00  0.00    +0.000 A 
ATOM     17  C   UNL     1      51.515   3.834  17.857  0.00  0.00    +0.000 A 
ATOM     18  C   UNL     1      50.621   4.879  17.611  0.00  0.00    +0.000 A 
ATOM     19  C   UNL     1      49.372   4.565  17.094  0.00  0.00    +0.000 A 
ATOM     20  N   UNL     1      48.974   3.305  16.823  0.00  0.00    +0.000 NA
ATOM     21  C   UNL     1      49.858   2.314  17.073  0.00  0.00    +0.000 A 
BRANCH  16  23
ATOM     22  N   UNL     1      52.698   0.503  17.966  0.00  0.00    +0.000 NA
ATOM     23  C   UNL     1      52.003   1.415  17.792  0.00  0.00    +0.000 C 
ENDBRANCH  16  23
ENDBRANCH  15  19
ENDBRANCH  14  15
ENDBRANCH   1  14
TORSDOF 5
ENDMDL
