MODEL 1
REMARK VINA RESULT:    -8.579      0.000      0.000
REMARK INTER + INTRA:         -13.516
REMARK INTER:                 -12.341
REMARK INTRA:                  -1.175
REMARK UNBOUND:                -1.175
REMARK  Name = 
REMARK  8 active torsions:
REMARK  status: ('A' for Active; 'I' for Inactive)
REMARK    1  A    between atoms: C_2  and  C_21
REMARK    2  A    between atoms: N_3  and  C_4
REMARK    3  A    between atoms: C_4  and  C_5
REMARK    4  A    between atoms: C_8  and  C_9
REMARK    5  A    between atoms: C_9  and  C_10
REMARK    6  A    between atoms: C_9  and  C_12
REMARK    7  A    between atoms: C_10  and  O_11
REMARK    8  A    between atoms: C_12  and  C_13
REMARK                            x       y       z     vdW  Elec       q    Type
REMARK                         _______ _______ _______ _____ _____    ______ ____
ROOT
ATOM      1  C   UNL     1      47.247   6.050  13.405  0.00  0.00    +0.000 A 
ATOM      2  C   UNL     1      46.432   4.959  13.728  0.00  0.00    +0.000 A 
ATOM      3  C   UNL     1      45.396   4.572  12.876  0.00  0.00    +0.000 A 
ATOM      4  C   UNL     1      45.156   5.263  11.678  0.00  0.00    +0.000 A 
ATOM      5  C   UNL     1      46.017   6.314  11.331  0.00  0.00    +0.000 A 
ATOM      6  C   UNL     1      47.047   6.706  12.186  0.00  0.00    +0.000 A 
ENDROOT
BRANCH   1   7
ATOM      7  C   UNL     1      48.305   6.528  14.355  0.00  0.00    +0.000 C 
BRANCH   7  10
ATOM      8  O   UNL     1      50.219   5.848  16.240  0.00  0.00    +0.000 OA
ATOM      9  C   UNL     1      49.040   5.869  16.584  0.00  0.00    +0.000 C 
ATOM     10  N   UNL     1      48.018   6.184  15.719  0.00  0.00    +0.000 N 
ATOM     11  H   UNL     1      47.071   6.178  16.087  0.00  0.00    +0.000 HD
BRANCH   9  12
ATOM     12  C   UNL     1      48.609   5.576  17.957  0.00  0.00    +0.000 A 
ATOM     13  N   UNL     1      48.533   4.315  18.438  0.00  0.00    +0.000 NA
ATOM     14  N   UNL     1      48.095   4.482  19.701  0.00  0.00    +0.000 N 
ATOM     15  C   UNL     1      47.870   5.781  20.053  0.00  0.00    +0.000 A 
ATOM     16  C   UNL     1      47.412   6.362  21.225  0.00  0.00    +0.000 A 
ATOM     17  N   UNL     1      47.285   7.710  21.276  0.00  0.00    +0.000 NA
ATOM     18  C   UNL     1      47.614   8.447  20.191  0.00  0.00    +0.000 A 
ATOM     19  C   UNL     1      48.082   7.926  18.994  0.00  0.00    +0.000 A 
ATOM     20  C   UNL     1      48.208   6.531  18.935  0.00  0.00    +0.000 A 
ATOM     21  H   UNL     1      47.962   3.656  20.275  0.00  0.00    +0.000 HD
ENDBRANCH   9  12
ENDBRANCH   7  10
ENDBRANCH   1   7
BRANCH   4  22
ATOM     22  C   UNL     1      43.972   4.857  10.807  0.00  0.00    +0.000 C 
BRANCH  22  23
ATOM     23  C   UNL     1      42.651   5.092  11.567  0.00  0.00    +0.000 C 
BRANCH  23  24
ATOM     24  O   UNL     1      42.253   6.461  11.557  0.00  0.00    +0.000 OA
ATOM     25  H   UNL     1      42.509   6.832  12.421  0.00  0.00    +0.000 HD
ENDBRANCH  23  24
ENDBRANCH  22  23
BRANCH  22  26
ATOM     26  C   UNL     1      44.030   3.414  10.235  0.00  0.00    +0.000 C 
BRANCH  26  27
ATOM     27  C   UNL     1      45.046   3.142   9.138  0.00  0.00    +0.000 A 
ATOM     28  C   UNL     1      45.472   1.822   8.916  0.00  0.00    +0.000 A 
ATOM     29  C   UNL     1      46.407   1.527   7.921  0.00  0.00    +0.000 A 
ATOM     30  C   UNL     1      46.921   2.545   7.124  0.00  0.00    +0.000 A 
ATOM     31  C   UNL     1      46.494   3.856   7.317  0.00  0.00    +0.000 A 
ATOM     32  C   UNL     1      45.555   4.152   8.309  0.00  0.00    +0.000 A 
ENDBRANCH  26  27
ENDBRANCH  22  26
ENDBRANCH   4  22
TORSDOF 8
ENDMDL
MODEL 2
REMARK VINA RESULT:    -8.171      1.692      2.502
REMARK INTER + INTRA:         -12.929
REMARK INTER:                 -11.753
REMARK INTRA:                  -1.175
REMARK UNBOUND:                -1.175
REMARK  Name = 
REMARK  8 active torsions:
REMARK  status: ('A' for Active; 'I' for Inactive)
REMARK    1  A    between atoms: C_2  and  C_21
REMARK    2  A    between atoms: N_3  and  C_4
REMARK    3  A    between atoms: C_4  and  C_5
REMARK    4  A    between atoms: C_8  and  C_9
REMARK    5  A    between atoms: C_9  and  C_10
REMARK    6  A    between atoms: C_9  and  C_12
REMARK    7  A    between atoms: C_10  and  O_11
REMARK    8  A    between atoms: C_12  and  C_13
REMARK                            x       y       z     vdW  Elec       q    Type
REMARK                         _______ _______ _______ _____ _____    ______ ____
ROOT
ATOM      1  C   UNL     1      47.025   6.266  12.659  0.00  0.00    +0.000 A 
ATOM      2  C   UNL     1      46.598   6.608  11.370  0.00  0.00    +0.000 A 
ATOM      3  C   UNL     1      45.705   5.787  10.680  0.00  0.00    +0.000 A 
ATOM      4  C   UNL     1      45.213   4.610  11.264  0.00  0.00    +0.000 A 
ATOM      5  C   UNL     1      45.596   4.308  12.579  0.00  0.00    +0.000 A 
ATOM      6  C   UNL     1      46.495   5.124  13.267  0.00  0.00    +0.000 A 
ENDROOT
BRANCH   1   7
ATOM      7  C   UNL     1      48.052   7.094  13.374  0.00  0.00    +0.000 C 
BRANCH   7  10
ATOM      8  O   UNL     1      50.390   7.088  14.863  0.00  0.00    +0.000 OA
ATOM      9  C   UNL     1      49.332   6.827  15.432  0.00  0.00    +0.000 C 
ATOM     10  N   UNL     1      48.124   6.794  14.776  0.00  0.00    +0.000 N 
ATOM     11  H   UNL     1      47.297   6.571  15.323  0.00  0.00    +0.000 HD
BRANCH   9  12
ATOM     12  C   UNL     1      49.254   6.540  16.869  0.00  0.00    +0.000 A 
ATOM     13  N   UNL     1      49.536   7.471  17.809  0.00  0.00    +0.000 NA
ATOM     14  N   UNL     1      49.359   6.814  18.971  0.00  0.00    +0.000 N 
ATOM     15  C   UNL     1      48.994   5.506  18.831  0.00  0.00    +0.000 A 
ATOM     16  C   UNL     1      48.738   4.507  19.755  0.00  0.00    +0.000 A 
ATOM     17  N   UNL     1      48.393   3.277  19.304  0.00  0.00    +0.000 NA
ATOM     18  C   UNL     1      48.301   3.062  17.972  0.00  0.00    +0.000 A 
ATOM     19  C   UNL     1      48.539   4.021  16.999  0.00  0.00    +0.000 A 
ATOM     20  C   UNL     1      48.904   5.293  17.462  0.00  0.00    +0.000 A 
ATOM     21  H   UNL     1      49.513   7.321  19.836  0.00  0.00    +0.000 HD
ENDBRANCH   9  12
ENDBRANCH   7  10
ENDBRANCH   1   7
BRANCH   4  22
ATOM     22  C   UNL     1      44.294   3.701  10.453  0.00  0.00    +0.000 C 
BRANCH  22  23
ATOM     23  C   UNL     1      43.011   3.396  11.252  0.00  0.00    +0.000 C 
BRANCH  23  24
ATOM     24  O   UNL     1      42.935   2.033  11.660  0.00  0.00    +0.000 OA
ATOM     25  H   UNL     1      42.605   1.530  10.894  0.00  0.00    +0.000 HD
ENDBRANCH  23  24
ENDBRANCH  22  23
BRANCH  22  26
ATOM     26  C   UNL     1      44.946   2.391   9.932  0.00  0.00    +0.000 C 
BRANCH  26  27
ATOM     27  C   UNL     1      45.700   2.467   8.615  0.00  0.00    +0.000 A 
ATOM     28  C   UNL     1      46.382   1.328   8.155  0.00  0.00    +0.000 A 
ATOM     29  C   UNL     1      47.091   1.353   6.952  0.00  0.00    +0.000 A 
ATOM     30  C   UNL     1      47.120   2.513   6.183  0.00  0.00    +0.000 A 
ATOM     31  C   UNL     1      46.432   3.644   6.615  0.00  0.00    +0.000 A 
ATOM     32  C   UNL     1      45.718   3.619   7.816  0.00  0.00    +0.000 A 
ENDBRANCH  26  27
ENDBRANCH  22  26
ENDBRANCH   4  22
TORSDOF 8
ENDMDL
MODEL 3
REMARK VINA RESULT:    -7.864      1.030      1.810
REMARK INTER + INTRA:         -12.487
REMARK INTER:                 -11.469
REMARK INTRA:                  -1.018
REMARK UNBOUND:                -1.175
REMARK  Name = 
REMARK  8 active torsions:
REMARK  status: ('A' for Active; 'I' for Inactive)
REMARK    1  A    between atoms: C_2  and  C_21
REMARK    2  A    between atoms: N_3  and  C_4
REMARK    3  A    between atoms: C_4  and  C_5
REMARK    4  A    between atoms: C_8  and  C_9
REMARK    5  A    between atoms: C_9  and  C_10
REMARK    6  A    between atoms: C_9  and  C_12
REMARK    7  A    between atoms: C_10  and  O_11
REMARK    8  A    between atoms: C_12  and  C_13
REMARK                            x       y       z     vdW  Elec       q    Type
REMARK                         _______ _______ _______ _____ _____    ______ ____
ROOT
ATOM      1  C   UNL     1      47.442   6.407  13.158  0.00  0.00    +0.000 A 
ATOM      2  C   UNL     1      46.849   5.167  13.420  0.00  0.00    +0.000 A 
ATOM      3  C   UNL     1      45.729   4.752  12.697  0.00  0.00    +0.000 A 
ATOM      4  C   UNL     1      45.182   5.565  11.692  0.00  0.00    +0.000 A 
ATOM      5  C   UNL     1      45.820   6.777  11.393  0.00  0.00    +0.000 A 
ATOM      6  C   UNL     1      46.935   7.195  12.120  0.00  0.00    +0.000 A 
ENDROOT
BRANCH   1   7
ATOM      7  C   UNL     1      48.591   6.901  13.988  0.00  0.00    +0.000 C 
BRANCH   7  10
ATOM      8  O   UNL     1      49.760   5.720  16.207  0.00  0.00    +0.000 OA
ATOM      9  C   UNL     1      48.861   6.540  16.384  0.00  0.00    +0.000 C 
ATOM     10  N   UNL     1      48.214   7.169  15.347  0.00  0.00    +0.000 N 
ATOM     11  H   UNL     1      47.483   7.834  15.584  0.00  0.00    +0.000 HD
BRANCH   9  12
ATOM     12  C   UNL     1      48.404   6.938  17.721  0.00  0.00    +0.000 A 
ATOM     13  N   UNL     1      47.886   8.160  17.975  0.00  0.00    +0.000 NA
ATOM     14  N   UNL     1      47.609   8.123  19.292  0.00  0.00    +0.000 N 
ATOM     15  C   UNL     1      47.936   6.947  19.904  0.00  0.00    +0.000 A 
ATOM     16  C   UNL     1      47.832   6.521  21.219  0.00  0.00    +0.000 A 
ATOM     17  N   UNL     1      48.253   5.273  21.532  0.00  0.00    +0.000 NA
ATOM     18  C   UNL     1      48.754   4.479  20.559  0.00  0.00    +0.000 A 
ATOM     19  C   UNL     1      48.879   4.845  19.228  0.00  0.00    +0.000 A 
ATOM     20  C   UNL     1      48.451   6.139  18.900  0.00  0.00    +0.000 A 
ATOM     21  H   UNL     1      47.199   8.947  19.720  0.00  0.00    +0.000 HD
ENDBRANCH   9  12
ENDBRANCH   7  10
ENDBRANCH   1   7
BRANCH   4  22
ATOM     22  C   UNL     1      43.915   5.111  10.972  0.00  0.00    +0.000 C 
BRANCH  22  23
ATOM     23  C   UNL     1      42.677   5.412  11.839  0.00  0.00    +0.000 C 
BRANCH  23  24
ATOM     24  O   UNL     1      42.106   6.686  11.551  0.00  0.00    +0.000 OA
ATOM     25  H   UNL     1      41.160   6.535  11.376  0.00  0.00    +0.000 HD
ENDBRANCH  23  24
ENDBRANCH  22  23
BRANCH  22  26
ATOM     26  C   UNL     1      43.913   3.631  10.500  0.00  0.00    +0.000 C 
BRANCH  26  27
ATOM     27  C   UNL     1      44.855   3.262   9.367  0.00  0.00    +0.000 A 
ATOM     28  C   UNL     1      45.404   4.286   8.577  0.00  0.00    +0.000 A 
ATOM     29  C   UNL     1      46.271   3.993   7.522  0.00  0.00    +0.000 A 
ATOM     30  C   UNL     1      46.614   2.672   7.248  0.00  0.00    +0.000 A 
ATOM     31  C   UNL     1      46.095   1.647   8.034  0.00  0.00    +0.000 A 
ATOM     32  C   UNL     1      45.231   1.939   9.093  0.00  0.00    +0.000 A 
ENDBRANCH  26  27
ENDBRANCH  22  26
ENDBRANCH   4  22
TORSDOF 8
ENDMDL
MODEL 4
REMARK VINA RESULT:    -7.836      1.991      2.808
REMARK INTER + INTRA:         -12.447
REMARK INTER:                 -11.311
REMARK INTRA:                  -1.136
REMARK UNBOUND:                -1.175
REMARK  Name = 
REMARK  8 active torsions:
REMARK  status: ('A' for Active; 'I' for Inactive)
REMARK    1  A    between atoms: C_2  and  C_21
REMARK    2  A    between atoms: N_3  and  C_4
REMARK    3  A    between atoms: C_4  and  C_5
REMARK    4  A    between atoms: C_8  and  C_9
REMARK    5  A    between atoms: C_9  and  C_10
REMARK    6  A    between atoms: C_9  and  C_12
REMARK    7  A    between atoms: C_10  and  O_11
REMARK    8  A    between atoms: C_12  and  C_13
REMARK                            x       y       z     vdW  Elec       q    Type
REMARK                         _______ _______ _______ _____ _____    ______ ____
ROOT
ATOM      1  C   UNL     1      47.085   6.457  13.333  0.00  0.00    +0.000 A 
ATOM      2  C   UNL     1      46.350   5.324  13.700  0.00  0.00    +0.000 A 
ATOM      3  C   UNL     1      45.358   4.820  12.857  0.00  0.00    +0.000 A 
ATOM      4  C   UNL     1      45.084   5.433  11.624  0.00  0.00    +0.000 A 
ATOM      5  C   UNL     1      45.868   6.529  11.236  0.00  0.00    +0.000 A 
ATOM      6  C   UNL     1      46.854   7.038  12.082  0.00  0.00    +0.000 A 
ENDROOT
BRANCH   1   7
ATOM      7  C   UNL     1      48.091   7.059  14.270  0.00  0.00    +0.000 C 
BRANCH   7  10
ATOM      8  O   UNL     1      48.758   7.417  16.936  0.00  0.00    +0.000 OA
ATOM      9  C   UNL     1      49.025   6.342  16.405  0.00  0.00    +0.000 C 
ATOM     10  N   UNL     1      48.743   6.074  15.086  0.00  0.00    +0.000 N 
ATOM     11  H   UNL     1      48.997   5.158  14.727  0.00  0.00    +0.000 HD
BRANCH   9  12
ATOM     12  C   UNL     1      49.656   5.233  17.131  0.00  0.00    +0.000 A 
ATOM     13  N   UNL     1      48.936   4.253  17.723  0.00  0.00    +0.000 NA
ATOM     14  N   UNL     1      49.873   3.459  18.276  0.00  0.00    +0.000 N 
ATOM     15  C   UNL     1      51.156   3.885  18.088  0.00  0.00    +0.000 A 
ATOM     16  C   UNL     1      52.377   3.375  18.501  0.00  0.00    +0.000 A 
ATOM     17  N   UNL     1      53.508   4.035  18.155  0.00  0.00    +0.000 NA
ATOM     18  C   UNL     1      53.416   5.162  17.414  0.00  0.00    +0.000 A 
ATOM     19  C   UNL     1      52.227   5.719  16.967  0.00  0.00    +0.000 A 
ATOM     20  C   UNL     1      51.054   5.043  17.329  0.00  0.00    +0.000 A 
ATOM     21  H   UNL     1      49.565   2.636  18.783  0.00  0.00    +0.000 HD
ENDBRANCH   9  12
ENDBRANCH   7  10
ENDBRANCH   1   7
BRANCH   4  22
ATOM     22  C   UNL     1      43.946   4.898  10.762  0.00  0.00    +0.000 C 
BRANCH  22  23
ATOM     23  C   UNL     1      42.599   5.079  11.491  0.00  0.00    +0.000 C 
BRANCH  23  24
ATOM     24  O   UNL     1      42.214   6.447  11.594  0.00  0.00    +0.000 OA
ATOM     25  H   UNL     1      41.759   6.672  10.762  0.00  0.00    +0.000 HD
ENDBRANCH  23  24
ENDBRANCH  22  23
BRANCH  22  26
ATOM     26  C   UNL     1      44.116   3.435  10.269  0.00  0.00    +0.000 C 
BRANCH  26  27
ATOM     27  C   UNL     1      45.113   3.190   9.149  0.00  0.00    +0.000 A 
ATOM     28  C   UNL     1      45.526   1.874   8.881  0.00  0.00    +0.000 A 
ATOM     29  C   UNL     1      46.443   1.603   7.864  0.00  0.00    +0.000 A 
ATOM     30  C   UNL     1      46.954   2.641   7.090  0.00  0.00    +0.000 A 
ATOM     31  C   UNL     1      46.540   3.949   7.330  0.00  0.00    +0.000 A 
ATOM     32  C   UNL     1      45.617   4.221   8.344  0.00  0.00    +0.000 A 
ENDBRANCH  26  27
ENDBRANCH  22  26
ENDBRANCH   4  22
TORSDOF 8
ENDMDL
MODEL 5
REMARK VINA RESULT:    -7.125      1.522      1.915
REMARK INTER + INTRA:         -11.424
REMARK INTER:                 -10.540
REMARK INTRA:                  -0.884
REMARK UNBOUND:                -1.175
REMARK  Name = 
REMARK  8 active torsions:
REMARK  status: ('A' for Active; 'I' for Inactive)
REMARK    1  A    between atoms: C_2  and  C_21
REMARK    2  A    between atoms: N_3  and  C_4
REMARK    3  A    between atoms: C_4  and  C_5
REMARK    4  A    between atoms: C_8  and  C_9
REMARK    5  A    between atoms: C_9  and  C_10
REMARK    6  A    between atoms: C_9  and  C_12
REMARK    7  A    between atoms: C_10  and  O_11
REMARK    8  A    between atoms: C_12  and  C_13
REMARK                            x       y       z     vdW  Elec       q    Type
REMARK                         _______ _______ _______ _____ _____    ______ ____
ROOT
ATOM      1  C   UNL     1      47.072   6.681  13.179  0.00  0.00    +0.000 A 
ATOM      2  C   UNL     1      47.008   5.303  13.414  0.00  0.00    +0.000 A 
ATOM      3  C   UNL     1      45.977   4.538  12.864  0.00  0.00    +0.000 A 
ATOM      4  C   UNL     1      44.992   5.133  12.060  0.00  0.00    +0.000 A 
ATOM      5  C   UNL     1      45.099   6.502  11.777  0.00  0.00    +0.000 A 
ATOM      6  C   UNL     1      46.125   7.268  12.333  0.00  0.00    +0.000 A 
ENDROOT
BRANCH   1   7
ATOM      7  C   UNL     1      48.123   7.526  13.836  0.00  0.00    +0.000 C 
BRANCH   7  10
ATOM      8  O   UNL     1      50.042   6.464  15.530  0.00  0.00    +0.000 OA
ATOM      9  C   UNL     1      49.037   6.969  16.026  0.00  0.00    +0.000 C 
ATOM     10  N   UNL     1      48.026   7.511  15.268  0.00  0.00    +0.000 N 
ATOM     11  H   UNL     1      47.231   7.909  15.761  0.00  0.00    +0.000 HD
BRANCH   9  12
ATOM     12  C   UNL     1      48.828   7.056  17.477  0.00  0.00    +0.000 A 
ATOM     13  N   UNL     1      48.662   5.960  18.251  0.00  0.00    +0.000 NA
ATOM     14  N   UNL     1      48.491   6.466  19.488  0.00  0.00    +0.000 N 
ATOM     15  C   UNL     1      48.522   7.830  19.548  0.00  0.00    +0.000 A 
ATOM     16  C   UNL     1      48.374   8.719  20.601  0.00  0.00    +0.000 A 
ATOM     17  N   UNL     1      48.452  10.047  20.347  0.00  0.00    +0.000 NA
ATOM     18  C   UNL     1      48.679  10.466  19.081  0.00  0.00    +0.000 A 
ATOM     19  C   UNL     1      48.841   9.627  17.989  0.00  0.00    +0.000 A 
ATOM     20  C   UNL     1      48.753   8.253  18.247  0.00  0.00    +0.000 A 
ATOM     21  H   UNL     1      48.349   5.819  20.255  0.00  0.00    +0.000 HD
ENDBRANCH   9  12
ENDBRANCH   7  10
ENDBRANCH   1   7
BRANCH   4  22
ATOM     22  C   UNL     1      43.842   4.279  11.535  0.00  0.00    +0.000 C 
BRANCH  22  23
ATOM     23  C   UNL     1      43.983   2.831  12.047  0.00  0.00    +0.000 C 
BRANCH  23  24
ATOM     24  O   UNL     1      42.873   2.014  11.683  0.00  0.00    +0.000 OA
ATOM     25  H   UNL     1      42.936   1.869  10.722  0.00  0.00    +0.000 HD
ENDBRANCH  23  24
ENDBRANCH  22  23
BRANCH  22  26
ATOM     26  C   UNL     1      43.644   4.304   9.995  0.00  0.00    +0.000 C 
BRANCH  26  27
ATOM     27  C   UNL     1      44.726   3.659   9.145  0.00  0.00    +0.000 A 
ATOM     28  C   UNL     1      45.596   4.482   8.411  0.00  0.00    +0.000 A 
ATOM     29  C   UNL     1      46.602   3.933   7.614  0.00  0.00    +0.000 A 
ATOM     30  C   UNL     1      46.762   2.552   7.545  0.00  0.00    +0.000 A 
ATOM     31  C   UNL     1      45.920   1.723   8.282  0.00  0.00    +0.000 A 
ATOM     32  C   UNL     1      44.916   2.271   9.085  0.00  0.00    +0.000 A 
ENDBRANCH  26  27
ENDBRANCH  22  26
ENDBRANCH   4  22
TORSDOF 8
ENDMDL
MODEL 6
REMARK VINA RESULT:    -6.805      4.760      6.932
REMARK INTER + INTRA:         -10.964
REMARK INTER:                  -9.901
REMARK INTRA:                  -1.063
REMARK UNBOUND:                -1.175
REMARK  Name = 
REMARK  8 active torsions:
REMARK  status: ('A' for Active; 'I' for Inactive)
REMARK    1  A    between atoms: C_2  and  C_21
REMARK    2  A    between atoms: N_3  and  C_4
REMARK    3  A    between atoms: C_4  and  C_5
REMARK    4  A    between atoms: C_8  and  C_9
REMARK    5  A    between atoms: C_9  and  C_10
REMARK    6  A    between atoms: C_9  and  C_12
REMARK    7  A    between atoms: C_10  and  O_11
REMARK    8  A    between atoms: C_12  and  C_13
REMARK                            x       y       z     vdW  Elec       q    Type
REMARK                         _______ _______ _______ _____ _____    ______ ____
ROOT
ATOM      1  C   UNL     1      46.954   8.124  12.394  0.00  0.00    +0.000 A 
ATOM      2  C   UNL     1      47.395   6.829  12.691  0.00  0.00    +0.000 A 
ATOM      3  C   UNL     1      46.578   5.727  12.434  0.00  0.00    +0.000 A 
ATOM      4  C   UNL     1      45.304   5.894  11.868  0.00  0.00    +0.000 A 
ATOM      5  C   UNL     1      44.896   7.188  11.515  0.00  0.00    +0.000 A 
ATOM      6  C   UNL     1      45.710   8.291  11.779  0.00  0.00    +0.000 A 
ENDROOT
BRANCH   1   7
ATOM      7  C   UNL     1      47.788   9.320  12.748  0.00  0.00    +0.000 C 
BRANCH   7  10
ATOM      8  O   UNL     1      50.485   8.853  13.179  0.00  0.00    +0.000 OA
ATOM      9  C   UNL     1      50.135   9.302  12.090  0.00  0.00    +0.000 C 
ATOM     10  N   UNL     1      48.822   9.576  11.786  0.00  0.00    +0.000 N 
ATOM     11  H   UNL     1      48.620   9.944  10.861  0.00  0.00    +0.000 HD
BRANCH   9  12
ATOM     12  C   UNL     1      51.083   9.572  11.001  0.00  0.00    +0.000 A 
ATOM     13  N   UNL     1      51.283  10.815  10.509  0.00  0.00    +0.000 NA
ATOM     14  N   UNL     1      52.199  10.631   9.539  0.00  0.00    +0.000 N 
ATOM     15  C   UNL     1      52.586   9.333   9.369  0.00  0.00    +0.000 A 
ATOM     16  C   UNL     1      53.472   8.733   8.488  0.00  0.00    +0.000 A 
ATOM     17  N   UNL     1      53.651   7.392   8.558  0.00  0.00    +0.000 NA
ATOM     18  C   UNL     1      52.969   6.681   9.484  0.00  0.00    +0.000 A 
ATOM     19  C   UNL     1      52.075   7.222  10.395  0.00  0.00    +0.000 A 
ATOM     20  C   UNL     1      51.882   8.609  10.321  0.00  0.00    +0.000 A 
ATOM     21  H   UNL     1      52.516  11.441   9.018  0.00  0.00    +0.000 HD
ENDBRANCH   9  12
ENDBRANCH   7  10
ENDBRANCH   1   7
BRANCH   4  22
ATOM     22  C   UNL     1      44.411   4.674  11.667  0.00  0.00    +0.000 C 
BRANCH  22  23
ATOM     23  C   UNL     1      45.103   3.414  12.229  0.00  0.00    +0.000 C 
BRANCH  23  24
ATOM     24  O   UNL     1      44.174   2.387  12.564  0.00  0.00    +0.000 OA
ATOM     25  H   UNL     1      43.307   2.818  12.672  0.00  0.00    +0.000 HD
ENDBRANCH  23  24
ENDBRANCH  22  23
BRANCH  22  26
ATOM     26  C   UNL     1      43.927   4.436  10.211  0.00  0.00    +0.000 C 
BRANCH  26  27
ATOM     27  C   UNL     1      44.892   3.744   9.262  0.00  0.00    +0.000 A 
ATOM     28  C   UNL     1      45.702   4.529   8.425  0.00  0.00    +0.000 A 
ATOM     29  C   UNL     1      46.601   3.936   7.534  0.00  0.00    +0.000 A 
ATOM     30  C   UNL     1      46.712   2.550   7.476  0.00  0.00    +0.000 A 
ATOM     31  C   UNL     1      45.931   1.759   8.314  0.00  0.00    +0.000 A 
ATOM     32  C   UNL     1      45.035   2.351   9.209  0.00  0.00    +0.000 A 
ENDBRANCH  26  27
ENDBRANCH  22  26
ENDBRANCH   4  22
TORSDOF 8
ENDMDL
MODEL 7
REMARK VINA RESULT:    -6.782      1.774      2.537
REMARK INTER + INTRA:         -10.931
REMARK INTER:                  -9.700
REMARK INTRA:                  -1.231
REMARK UNBOUND:                -1.175
REMARK  Name = 
REMARK  8 active torsions:
REMARK  status: ('A' for Active; 'I' for Inactive)
REMARK    1  A    between atoms: C_2  and  C_21
REMARK    2  A    between atoms: N_3  and  C_4
REMARK    3  A    between atoms: C_4  and  C_5
REMARK    4  A    between atoms: C_8  and  C_9
REMARK    5  A    between atoms: C_9  and  C_10
REMARK    6  A    between atoms: C_9  and  C_12
REMARK    7  A    between atoms: C_10  and  O_11
REMARK    8  A    between atoms: C_12  and  C_13
REMARK                            x       y       z     vdW  Elec       q    Type
REMARK                         _______ _______ _______ _____ _____    ______ ____
ROOT
ATOM      1  C   UNL     1      47.120   4.415  14.608  0.00  0.00    +0.000 A 
ATOM      2  C   UNL     1      47.190   5.757  14.215  0.00  0.00    +0.000 A 
ATOM      3  C   UNL     1      46.531   6.193  13.064  0.00  0.00    +0.000 A 
ATOM      4  C   UNL     1      45.781   5.299  12.284  0.00  0.00    +0.000 A 
ATOM      5  C   UNL     1      45.663   3.971  12.719  0.00  0.00    +0.000 A 
ATOM      6  C   UNL     1      46.328   3.534  13.865  0.00  0.00    +0.000 A 
ENDROOT
BRANCH   1   7
ATOM      7  C   UNL     1      47.895   3.919  15.792  0.00  0.00    +0.000 C 
BRANCH   7  10
ATOM      8  O   UNL     1      46.736   4.737  18.172  0.00  0.00    +0.000 OA
ATOM      9  C   UNL     1      47.751   5.313  17.786  0.00  0.00    +0.000 C 
ATOM     10  N   UNL     1      48.391   4.986  16.614  0.00  0.00    +0.000 N 
ATOM     11  H   UNL     1      49.225   5.513  16.370  0.00  0.00    +0.000 HD
BRANCH   9  12
ATOM     12  C   UNL     1      48.387   6.395  18.548  0.00  0.00    +0.000 A 
ATOM     13  N   UNL     1      48.869   6.214  19.798  0.00  0.00    +0.000 NA
ATOM     14  N   UNL     1      49.348   7.427  20.134  0.00  0.00    +0.000 N 
ATOM     15  C   UNL     1      49.185   8.384  19.174  0.00  0.00    +0.000 A 
ATOM     16  C   UNL     1      49.515   9.729  19.135  0.00  0.00    +0.000 A 
ATOM     17  N   UNL     1      49.218  10.439  18.020  0.00  0.00    +0.000 NA
ATOM     18  C   UNL     1      48.618   9.818  16.980  0.00  0.00    +0.000 A 
ATOM     19  C   UNL     1      48.268   8.476  16.957  0.00  0.00    +0.000 A 
ATOM     20  C   UNL     1      48.567   7.739  18.111  0.00  0.00    +0.000 A 
ATOM     21  H   UNL     1      49.773   7.538  21.049  0.00  0.00    +0.000 HD
ENDBRANCH   9  12
ENDBRANCH   7  10
ENDBRANCH   1   7
BRANCH   4  22
ATOM     22  C   UNL     1      45.134   5.796  10.995  0.00  0.00    +0.000 C 
BRANCH  22  23
ATOM     23  C   UNL     1      44.276   7.046  11.281  0.00  0.00    +0.000 C 
BRANCH  23  24
ATOM     24  O   UNL     1      42.885   6.807  11.089  0.00  0.00    +0.000 OA
ATOM     25  H   UNL     1      42.554   6.403  11.911  0.00  0.00    +0.000 HD
ENDBRANCH  23  24
ENDBRANCH  22  23
BRANCH  22  26
ATOM     26  C   UNL     1      44.318   4.734  10.208  0.00  0.00    +0.000 C 
BRANCH  26  27
ATOM     27  C   UNL     1      45.086   3.837   9.252  0.00  0.00    +0.000 A 
ATOM     28  C   UNL     1      45.845   4.427   8.227  0.00  0.00    +0.000 A 
ATOM     29  C   UNL     1      46.564   3.641   7.323  0.00  0.00    +0.000 A 
ATOM     30  C   UNL     1      46.545   2.254   7.436  0.00  0.00    +0.000 A 
ATOM     31  C   UNL     1      45.814   1.655   8.459  0.00  0.00    +0.000 A 
ATOM     32  C   UNL     1      45.098   2.440   9.367  0.00  0.00    +0.000 A 
ENDBRANCH  26  27
ENDBRANCH  22  26
ENDBRANCH   4  22
TORSDOF 8
ENDMDL
MODEL 8
REMARK VINA RESULT:    -6.597      3.115      8.869
REMARK INTER + INTRA:         -10.664
REMARK INTER:                  -9.070
REMARK INTRA:                  -1.594
REMARK UNBOUND:                -1.175
REMARK  Name = 
REMARK  8 active torsions:
REMARK  status: ('A' for Active; 'I' for Inactive)
REMARK    1  A    between atoms: C_2  and  C_21
REMARK    2  A    between atoms: N_3  and  C_4
REMARK    3  A    between atoms: C_4  and  C_5
REMARK    4  A    between atoms: C_8  and  C_9
REMARK    5  A    between atoms: C_9  and  C_10
REMARK    6  A    between atoms: C_9  and  C_12
REMARK    7  A    between atoms: C_10  and  O_11
REMARK    8  A    between atoms: C_12  and  C_13
REMARK                            x       y       z     vdW  Elec       q    Type
REMARK                         _______ _______ _______ _____ _____    ______ ____
ROOT
ATOM      1  C   UNL     1      48.476   7.770  14.172  0.00  0.00    +0.000 A 
ATOM      2  C   UNL     1      47.961   8.635  15.145  0.00  0.00    +0.000 A 
ATOM      3  C   UNL     1      48.458   8.608  16.450  0.00  0.00    +0.000 A 
ATOM      4  C   UNL     1      49.486   7.722  16.808  0.00  0.00    +0.000 A 
ATOM      5  C   UNL     1      50.039   6.905  15.813  0.00  0.00    +0.000 A 
ATOM      6  C   UNL     1      49.537   6.926  14.511  0.00  0.00    +0.000 A 
ENDROOT
BRANCH   1   7
ATOM      7  C   UNL     1      47.888   7.729  12.792  0.00  0.00    +0.000 C 
BRANCH   7  10
ATOM      8  O   UNL     1      45.165   7.232  12.913  0.00  0.00    +0.000 OA
ATOM      9  C   UNL     1      45.912   6.319  12.569  0.00  0.00    +0.000 C 
ATOM     10  N   UNL     1      47.277   6.466  12.490  0.00  0.00    +0.000 N 
ATOM     11  H   UNL     1      47.821   5.659  12.196  0.00  0.00    +0.000 HD
BRANCH   9  12
ATOM     12  C   UNL     1      45.418   4.988  12.195  0.00  0.00    +0.000 A 
ATOM     13  N   UNL     1      45.128   4.040  13.113  0.00  0.00    +0.000 NA
ATOM     14  N   UNL     1      44.727   2.989  12.370  0.00  0.00    +0.000 N 
ATOM     15  C   UNL     1      44.760   3.206  11.023  0.00  0.00    +0.000 A 
ATOM     16  C   UNL     1      44.452   2.396   9.942  0.00  0.00    +0.000 A 
ATOM     17  N   UNL     1      44.590   2.899   8.692  0.00  0.00    +0.000 NA
ATOM     18  C   UNL     1      45.015   4.173   8.535  0.00  0.00    +0.000 A 
ATOM     19  C   UNL     1      45.333   5.033   9.574  0.00  0.00    +0.000 A 
ATOM     20  C   UNL     1      45.199   4.514  10.869  0.00  0.00    +0.000 A 
ATOM     21  H   UNL     1      44.448   2.141  12.851  0.00  0.00    +0.000 HD
ENDBRANCH   9  12
ENDBRANCH   7  10
ENDBRANCH   1   7
BRANCH   4  22
ATOM     22  C   UNL     1      49.954   7.671  18.259  0.00  0.00    +0.000 C 
BRANCH  22  23
ATOM     23  C   UNL     1      51.493   7.586  18.315  0.00  0.00    +0.000 C 
BRANCH  23  24
ATOM     24  O   UNL     1      52.122   8.778  17.853  0.00  0.00    +0.000 OA
ATOM     25  H   UNL     1      51.474   9.233  17.285  0.00  0.00    +0.000 HD
ENDBRANCH  23  24
ENDBRANCH  22  23
BRANCH  22  26
ATOM     26  C   UNL     1      49.308   6.559  19.129  0.00  0.00    +0.000 C 
BRANCH  26  27
ATOM     27  C   UNL     1      48.833   5.305  18.413  0.00  0.00    +0.000 A 
ATOM     28  C   UNL     1      49.743   4.255  18.206  0.00  0.00    +0.000 A 
ATOM     29  C   UNL     1      49.352   3.085  17.549  0.00  0.00    +0.000 A 
ATOM     30  C   UNL     1      48.042   2.943  17.100  0.00  0.00    +0.000 A 
ATOM     31  C   UNL     1      47.123   3.966  17.315  0.00  0.00    +0.000 A 
ATOM     32  C   UNL     1      47.512   5.135  17.976  0.00  0.00    +0.000 A 
ENDBRANCH  26  27
ENDBRANCH  22  26
ENDBRANCH   4  22
TORSDOF 8
ENDMDL
MODEL 9
REMARK VINA RESULT:    -6.506      3.619      9.310
REMARK INTER + INTRA:         -10.534
REMARK INTER:                  -9.483
REMARK INTRA:                  -1.051
REMARK UNBOUND:                -1.175
REMARK  Name = 
REMARK  8 active torsions:
REMARK  status: ('A' for Active; 'I' for Inactive)
REMARK    1  A    between atoms: C_2  and  C_21
REMARK    2  A    between atoms: N_3  and  C_4
REMARK    3  A    between atoms: C_4  and  C_5
REMARK    4  A    between atoms: C_8  and  C_9
REMARK    5  A    between atoms: C_9  and  C_10
REMARK    6  A    between atoms: C_9  and  C_12
REMARK    7  A    between atoms: C_10  and  O_11
REMARK    8  A    between atoms: C_12  and  C_13
REMARK                            x       y       z     vdW  Elec       q    Type
REMARK                         _______ _______ _______ _____ _____    ______ ____
ROOT
ATOM      1  C   UNL     1      48.194   6.653  14.349  0.00  0.00    +0.000 A 
ATOM      2  C   UNL     1      47.743   5.634  15.196  0.00  0.00    +0.000 A 
ATOM      3  C   UNL     1      48.427   5.342  16.378  0.00  0.00    +0.000 A 
ATOM      4  C   UNL     1      49.571   6.068  16.744  0.00  0.00    +0.000 A 
ATOM      5  C   UNL     1      49.979   7.128  15.922  0.00  0.00    +0.000 A 
ATOM      6  C   UNL     1      49.301   7.415  14.737  0.00  0.00    +0.000 A 
ENDROOT
BRANCH   1   7
ATOM      7  C   UNL     1      47.520   6.916  13.035  0.00  0.00    +0.000 C 
BRANCH   7  10
ATOM      8  O   UNL     1      44.778   6.520  12.956  0.00  0.00    +0.000 OA
ATOM      9  C   UNL     1      45.510   5.646  12.496  0.00  0.00    +0.000 C 
ATOM     10  N   UNL     1      46.881   5.747  12.499  0.00  0.00    +0.000 N 
ATOM     11  H   UNL     1      47.411   4.979  12.097  0.00  0.00    +0.000 HD
BRANCH   9  12
ATOM     12  C   UNL     1      44.989   4.418  11.882  0.00  0.00    +0.000 A 
ATOM     13  N   UNL     1      44.413   3.435  12.608  0.00  0.00    +0.000 NA
ATOM     14  N   UNL     1      44.092   2.505  11.688  0.00  0.00    +0.000 N 
ATOM     15  C   UNL     1      44.446   2.830  10.411  0.00  0.00    +0.000 A 
ATOM     16  C   UNL     1      44.313   2.155   9.207  0.00  0.00    +0.000 A 
ATOM     17  N   UNL     1      44.774   2.744   8.078  0.00  0.00    +0.000 NA
ATOM     18  C   UNL     1      45.341   3.969   8.154  0.00  0.00    +0.000 A 
ATOM     19  C   UNL     1      45.498   4.695   9.325  0.00  0.00    +0.000 A 
ATOM     20  C   UNL     1      45.029   4.087  10.497  0.00  0.00    +0.000 A 
ATOM     21  H   UNL     1      43.633   1.657  12.004  0.00  0.00    +0.000 HD
ENDBRANCH   9  12
ENDBRANCH   7  10
ENDBRANCH   1   7
BRANCH   4  22
ATOM     22  C   UNL     1      50.332   5.674  18.006  0.00  0.00    +0.000 C 
BRANCH  22  23
ATOM     23  C   UNL     1      50.324   6.841  19.014  0.00  0.00    +0.000 C 
BRANCH  23  24
ATOM     24  O   UNL     1      49.213   6.782  19.905  0.00  0.00    +0.000 OA
ATOM     25  H   UNL     1      48.869   7.690  19.983  0.00  0.00    +0.000 HD
ENDBRANCH  23  24
ENDBRANCH  22  23
BRANCH  22  26
ATOM     26  C   UNL     1      51.777   5.152  17.776  0.00  0.00    +0.000 C 
BRANCH  26  27
ATOM     27  C   UNL     1      51.976   3.646  17.749  0.00  0.00    +0.000 A 
ATOM     28  C   UNL     1      53.229   3.119  18.104  0.00  0.00    +0.000 A 
ATOM     29  C   UNL     1      53.458   1.741  18.090  0.00  0.00    +0.000 A 
ATOM     30  C   UNL     1      52.435   0.868  17.733  0.00  0.00    +0.000 A 
ATOM     31  C   UNL     1      51.181   1.373  17.398  0.00  0.00    +0.000 A 
ATOM     32  C   UNL     1      50.949   2.752  17.417  0.00  0.00    +0.000 A 
ENDBRANCH  26  27
ENDBRANCH  22  26
ENDBRANCH   4  22
TORSDOF 8
ENDMDL
