MODEL 1
REMARK VINA RESULT:    -8.004      0.000      0.000
REMARK INTER + INTRA:         -12.098
REMARK INTER:                 -11.279
REMARK INTRA:                  -0.819
REMARK UNBOUND:                -0.819
REMARK  Name = 
REMARK  8 active torsions:
REMARK  status: ('A' for Active; 'I' for Inactive)
REMARK    1  A    between atoms: C_1  and  O_2
REMARK    2  A    between atoms: O_2  and  C_3
REMARK    3  A    between atoms: C_6  and  C_7
REMARK    4  A    between atoms: C_10  and  C_11
REMARK    5  A    between atoms: C_11  and  C_12
REMARK    6  A    between atoms: C_12  and  O_13
REMARK    7  A    between atoms: O_13  and  C_14
REMARK    8  A    between atoms: C_17  and  C_18
REMARK                            x       y       z     vdW  Elec       q    Type
REMARK                         _______ _______ _______ _____ _____    ______ ____
ROOT
ATOM      1  C   UNL     1      43.273   4.205  11.123  0.00  0.00    +0.000 C 
ENDROOT
BRANCH   1   2
ATOM      2  C   UNL     1      43.310   5.260  12.226  0.00  0.00    +0.000 C 
BRANCH   2   8
ATOM      3  C   UNL     1      45.399   6.732  12.408  0.00  0.00    +0.000 A 
ATOM      4  C   UNL     1      46.712   6.921  12.862  0.00  0.00    +0.000 A 
ATOM      5  C   UNL     1      47.360   5.928  13.601  0.00  0.00    +0.000 A 
ATOM      6  C   UNL     1      46.698   4.740  13.909  0.00  0.00    +0.000 A 
ATOM      7  C   UNL     1      45.390   4.540  13.455  0.00  0.00    +0.000 A 
ATOM      8  C   UNL     1      44.731   5.524  12.691  0.00  0.00    +0.000 A 
BRANCH   3  10
ATOM      9  C   UNL     1      45.057   9.036  11.928  0.00  0.00    +0.000 C 
ATOM     10  O   UNL     1      44.684   7.676  11.720  0.00  0.00    +0.000 OA
ENDBRANCH   3  10
BRANCH   6  11
ATOM     11  C   UNL     1      47.356   3.735  14.690  0.00  0.00    +0.000 C 
ATOM     12  N   UNL     1      47.879   2.913  15.323  0.00  0.00    +0.000 NA
ENDBRANCH   6  11
ENDBRANCH   2   8
ENDBRANCH   1   2
BRANCH   1  13
ATOM     13  O   UNL     1      43.578   4.786   9.843  0.00  0.00    +0.000 OA
BRANCH  13  14
ATOM     14  C   UNL     1      44.513   4.024   9.165  0.00  0.00    +0.000 A 
ATOM     15  C   UNL     1      44.556   2.658   9.410  0.00  0.00    +0.000 A 
ATOM     16  C   UNL     1      45.498   1.891   8.714  0.00  0.00    +0.000 A 
ATOM     17  C   UNL     1      46.364   2.506   7.800  0.00  0.00    +0.000 A 
ATOM     18  C   UNL     1      46.237   3.873   7.632  0.00  0.00    +0.000 A 
ATOM     19  N   UNL     1      45.338   4.639   8.290  0.00  0.00    +0.000 NA
BRANCH  17  20
ATOM     20  C   UNL     1      47.359   1.697   7.055  0.00  0.00    +0.000 C 
ATOM     21  N   UNL     1      48.441   2.330   6.498  0.00  0.00    +0.000 N 
ATOM     22  O   UNL     1      47.226   0.488   6.930  0.00  0.00    +0.000 OA
ATOM     23  H   UNL     1      48.646   3.316   6.539  0.00  0.00    +0.000 HD
ATOM     24  H   UNL     1      49.095   1.748   5.992  0.00  0.00    +0.000 HD
ENDBRANCH  17  20
ENDBRANCH  13  14
ENDBRANCH   1  13
TORSDOF 7
ENDMDL
MODEL 2
REMARK VINA RESULT:    -7.540      2.035      3.350
REMARK INTER + INTRA:         -11.445
REMARK INTER:                 -10.720
REMARK INTRA:                  -0.725
REMARK UNBOUND:                -0.819
REMARK  Name = 
REMARK  8 active torsions:
REMARK  status: ('A' for Active; 'I' for Inactive)
REMARK    1  A    between atoms: C_1  and  O_2
REMARK    2  A    between atoms: O_2  and  C_3
REMARK    3  A    between atoms: C_6  and  C_7
REMARK    4  A    between atoms: C_10  and  C_11
REMARK    5  A    between atoms: C_11  and  C_12
REMARK    6  A    between atoms: C_12  and  O_13
REMARK    7  A    between atoms: O_13  and  C_14
REMARK    8  A    between atoms: C_17  and  C_18
REMARK                            x       y       z     vdW  Elec       q    Type
REMARK                         _______ _______ _______ _____ _____    ______ ____
ROOT
ATOM      1  C   UNL     1      43.820   3.046  11.735  0.00  0.00    +0.000 C 
ENDROOT
BRANCH   1   2
ATOM      2  C   UNL     1      43.576   4.060  12.849  0.00  0.00    +0.000 C 
BRANCH   2   8
ATOM      3  C   UNL     1      45.840   5.178  13.283  0.00  0.00    +0.000 A 
ATOM      4  C   UNL     1      46.684   6.291  13.165  0.00  0.00    +0.000 A 
ATOM      5  C   UNL     1      46.250   7.449  12.515  0.00  0.00    +0.000 A 
ATOM      6  C   UNL     1      44.970   7.503  11.963  0.00  0.00    +0.000 A 
ATOM      7  C   UNL     1      44.119   6.399  12.081  0.00  0.00    +0.000 A 
ATOM      8  C   UNL     1      44.537   5.232  12.751  0.00  0.00    +0.000 A 
BRANCH   3  10
ATOM      9  C   UNL     1      47.048   4.082  15.014  0.00  0.00    +0.000 C 
ATOM     10  O   UNL     1      46.213   3.994  13.863  0.00  0.00    +0.000 OA
ENDBRANCH   3  10
BRANCH   6  11
ATOM     11  C   UNL     1      44.536   8.682  11.274  0.00  0.00    +0.000 C 
ATOM     12  N   UNL     1      44.178   9.642  10.725  0.00  0.00    +0.000 NA
ENDBRANCH   6  11
ENDBRANCH   2   8
ENDBRANCH   1   2
BRANCH   1  13
ATOM     13  O   UNL     1      43.477   3.597  10.451  0.00  0.00    +0.000 OA
BRANCH  13  14
ATOM     14  C   UNL     1      44.438   3.284   9.506  0.00  0.00    +0.000 A 
ATOM     15  C   UNL     1      44.983   4.313   8.752  0.00  0.00    +0.000 A 
ATOM     16  C   UNL     1      45.962   3.991   7.804  0.00  0.00    +0.000 A 
ATOM     17  C   UNL     1      46.365   2.660   7.639  0.00  0.00    +0.000 A 
ATOM     18  C   UNL     1      45.757   1.712   8.442  0.00  0.00    +0.000 A 
ATOM     19  N   UNL     1      44.810   1.993   9.364  0.00  0.00    +0.000 NA
BRANCH  17  20
ATOM     20  C   UNL     1      47.406   2.314   6.641  0.00  0.00    +0.000 C 
ATOM     21  N   UNL     1      47.466   3.029   5.473  0.00  0.00    +0.000 N 
ATOM     22  O   UNL     1      48.200   1.406   6.844  0.00  0.00    +0.000 OA
ATOM     23  H   UNL     1      46.864   3.791   5.204  0.00  0.00    +0.000 HD
ATOM     24  H   UNL     1      48.185   2.760   4.813  0.00  0.00    +0.000 HD
ENDBRANCH  17  20
ENDBRANCH  13  14
ENDBRANCH   1  13
TORSDOF 7
ENDMDL
MODEL 3
REMARK VINA RESULT:    -6.536      1.532      1.814
REMARK INTER + INTRA:         -10.030
REMARK INTER:                  -9.593
REMARK INTRA:                  -0.437
REMARK UNBOUND:                -0.819
REMARK  Name = 
REMARK  8 active torsions:
REMARK  status: ('A' for Active; 'I' for Inactive)
REMARK    1  A    between atoms: C_1  and  O_2
REMARK    2  A    between atoms: O_2  and  C_3
REMARK    3  A    between atoms: C_6  and  C_7
REMARK    4  A    between atoms: C_10  and  C_11
REMARK    5  A    between atoms: C_11  and  C_12
REMARK    6  A    between atoms: C_12  and  O_13
REMARK    7  A    between atoms: O_13  and  C_14
REMARK    8  A    between atoms: C_17  and  C_18
REMARK                            x       y       z     vdW  Elec       q    Type
REMARK                         _______ _______ _______ _____ _____    ______ ____
ROOT
ATOM      1  C   UNL     1      43.883   5.404  10.512  0.00  0.00    +0.000 C 
ENDROOT
BRANCH   1   2
ATOM      2  C   UNL     1      43.864   5.863  11.968  0.00  0.00    +0.000 C 
BRANCH   2   8
ATOM      3  C   UNL     1      44.931   8.186  11.798  0.00  0.00    +0.000 A 
ATOM      4  C   UNL     1      45.991   9.056  12.087  0.00  0.00    +0.000 A 
ATOM      5  C   UNL     1      47.091   8.618  12.829  0.00  0.00    +0.000 A 
ATOM      6  C   UNL     1      47.137   7.307  13.303  0.00  0.00    +0.000 A 
ATOM      7  C   UNL     1      46.086   6.430  13.015  0.00  0.00    +0.000 A 
ATOM      8  C   UNL     1      44.980   6.853  12.251  0.00  0.00    +0.000 A 
BRANCH   3  10
ATOM      9  C   UNL     1      43.757   9.896  10.634  0.00  0.00    +0.000 C 
ATOM     10  O   UNL     1      43.801   8.557  11.119  0.00  0.00    +0.000 OA
ENDBRANCH   3  10
BRANCH   6  11
ATOM     11  C   UNL     1      48.254   6.868  14.086  0.00  0.00    +0.000 C 
ATOM     12  N   UNL     1      49.167   6.514  14.713  0.00  0.00    +0.000 NA
ENDBRANCH   6  11
ENDBRANCH   2   8
ENDBRANCH   1   2
BRANCH   1  13
ATOM     13  O   UNL     1      43.901   3.969  10.423  0.00  0.00    +0.000 OA
BRANCH  13  14
ATOM     14  C   UNL     1      44.784   3.546   9.446  0.00  0.00    +0.000 A 
ATOM     15  C   UNL     1      45.058   2.189   9.343  0.00  0.00    +0.000 A 
ATOM     16  C   UNL     1      45.946   1.767   8.346  0.00  0.00    +0.000 A 
ATOM     17  C   UNL     1      46.530   2.706   7.486  0.00  0.00    +0.000 A 
ATOM     18  C   UNL     1      46.189   4.033   7.675  0.00  0.00    +0.000 A 
ATOM     19  N   UNL     1      45.337   4.470   8.629  0.00  0.00    +0.000 NA
BRANCH  17  20
ATOM     20  C   UNL     1      47.466   2.264   6.424  0.00  0.00    +0.000 C 
ATOM     21  N   UNL     1      47.545   2.995   5.267  0.00  0.00    +0.000 N 
ATOM     22  O   UNL     1      48.157   1.264   6.566  0.00  0.00    +0.000 OA
ATOM     23  H   UNL     1      47.023   3.829   5.046  0.00  0.00    +0.000 HD
ATOM     24  H   UNL     1      48.189   2.659   4.562  0.00  0.00    +0.000 HD
ENDBRANCH  17  20
ENDBRANCH  13  14
ENDBRANCH   1  13
TORSDOF 7
ENDMDL
MODEL 4
REMARK VINA RESULT:    -6.367      2.003      3.579
REMARK INTER + INTRA:          -9.792
REMARK INTER:                  -9.635
REMARK INTRA:                  -0.157
REMARK UNBOUND:                -0.819
REMARK  Name = 
REMARK  8 active torsions:
REMARK  status: ('A' for Active; 'I' for Inactive)
REMARK    1  A    between atoms: C_1  and  O_2
REMARK    2  A    between atoms: O_2  and  C_3
REMARK    3  A    between atoms: C_6  and  C_7
REMARK    4  A    between atoms: C_10  and  C_11
REMARK    5  A    between atoms: C_11  and  C_12
REMARK    6  A    between atoms: C_12  and  O_13
REMARK    7  A    between atoms: O_13  and  C_14
REMARK    8  A    between atoms: C_17  and  C_18
REMARK                            x       y       z     vdW  Elec       q    Type
REMARK                         _______ _______ _______ _____ _____    ______ ____
ROOT
ATOM      1  C   UNL     1      44.499   4.538  11.232  0.00  0.00    +0.000 C 
ENDROOT
BRANCH   1   2
ATOM      2  C   UNL     1      43.679   5.690  11.808  0.00  0.00    +0.000 C 
BRANCH   2   8
ATOM      3  C   UNL     1      45.645   6.867  12.955  0.00  0.00    +0.000 A 
ATOM      4  C   UNL     1      46.410   8.022  13.164  0.00  0.00    +0.000 A 
ATOM      5  C   UNL     1      46.101   9.211  12.499  0.00  0.00    +0.000 A 
ATOM      6  C   UNL     1      45.031   9.256  11.605  0.00  0.00    +0.000 A 
ATOM      7  C   UNL     1      44.259   8.108  11.395  0.00  0.00    +0.000 A 
ATOM      8  C   UNL     1      44.547   6.908  12.074  0.00  0.00    +0.000 A 
BRANCH   3  10
ATOM      9  C   UNL     1      47.290   5.341  13.746  0.00  0.00    +0.000 C 
ATOM     10  O   UNL     1      45.917   5.655  13.534  0.00  0.00    +0.000 OA
ENDBRANCH   3  10
BRANCH   6  11
ATOM     11  C   UNL     1      44.733  10.469  10.905  0.00  0.00    +0.000 C 
ATOM     12  N   UNL     1      44.496  11.460  10.345  0.00  0.00    +0.000 NA
ENDBRANCH   6  11
ENDBRANCH   2   8
ENDBRANCH   1   2
BRANCH   1  13
ATOM     13  O   UNL     1      43.877   4.000  10.053  0.00  0.00    +0.000 OA
BRANCH  13  14
ATOM     14  C   UNL     1      44.827   3.576   9.142  0.00  0.00    +0.000 A 
ATOM     15  C   UNL     1      45.082   2.216   9.035  0.00  0.00    +0.000 A 
ATOM     16  C   UNL     1      46.038   1.793   8.104  0.00  0.00    +0.000 A 
ATOM     17  C   UNL     1      46.708   2.734   7.313  0.00  0.00    +0.000 A 
ATOM     18  C   UNL     1      46.380   4.065   7.500  0.00  0.00    +0.000 A 
ATOM     19  N   UNL     1      45.462   4.502   8.390  0.00  0.00    +0.000 NA
BRANCH  17  20
ATOM     20  C   UNL     1      47.718   2.291   6.320  0.00  0.00    +0.000 C 
ATOM     21  N   UNL     1      47.891   3.030   5.179  0.00  0.00    +0.000 N 
ATOM     22  O   UNL     1      48.388   1.285   6.506  0.00  0.00    +0.000 OA
ATOM     23  H   UNL     1      47.394   3.871   4.926  0.00  0.00    +0.000 HD
ATOM     24  H   UNL     1      48.584   2.694   4.522  0.00  0.00    +0.000 HD
ENDBRANCH  17  20
ENDBRANCH  13  14
ENDBRANCH   1  13
TORSDOF 7
ENDMDL
MODEL 5
REMARK VINA RESULT:    -6.317      2.231      6.899
REMARK INTER + INTRA:          -9.722
REMARK INTER:                  -9.408
REMARK INTRA:                  -0.314
REMARK UNBOUND:                -0.819
REMARK  Name = 
REMARK  8 active torsions:
REMARK  status: ('A' for Active; 'I' for Inactive)
REMARK    1  A    between atoms: C_1  and  O_2
REMARK    2  A    between atoms: O_2  and  C_3
REMARK    3  A    between atoms: C_6  and  C_7
REMARK    4  A    between atoms: C_10  and  C_11
REMARK    5  A    between atoms: C_11  and  C_12
REMARK    6  A    between atoms: C_12  and  O_13
REMARK    7  A    between atoms: O_13  and  C_14
REMARK    8  A    between atoms: C_17  and  C_18
REMARK                            x       y       z     vdW  Elec       q    Type
REMARK                         _______ _______ _______ _____ _____    ______ ____
ROOT
ATOM      1  C   UNL     1      45.233   5.818  11.014  0.00  0.00    +0.000 C 
ENDROOT
BRANCH   1   2
ATOM      2  C   UNL     1      45.011   5.592   9.521  0.00  0.00    +0.000 C 
BRANCH   2   8
ATOM      3  C   UNL     1      44.417   3.107   9.706  0.00  0.00    +0.000 A 
ATOM      4  C   UNL     1      44.640   1.776   9.326  0.00  0.00    +0.000 A 
ATOM      5  C   UNL     1      45.629   1.459   8.391  0.00  0.00    +0.000 A 
ATOM      6  C   UNL     1      46.397   2.470   7.814  0.00  0.00    +0.000 A 
ATOM      7  C   UNL     1      46.184   3.800   8.192  0.00  0.00    +0.000 A 
ATOM      8  C   UNL     1      45.205   4.133   9.148  0.00  0.00    +0.000 A 
BRANCH   3  10
ATOM      9  C   UNL     1      43.338   2.768  11.799  0.00  0.00    +0.000 C 
ATOM     10  O   UNL     1      43.436   3.498  10.579  0.00  0.00    +0.000 OA
ENDBRANCH   3  10
BRANCH   6  11
ATOM     11  C   UNL     1      47.391   2.144   6.836  0.00  0.00    +0.000 C 
ATOM     12  N   UNL     1      48.190   1.882   6.033  0.00  0.00    +0.000 NA
ENDBRANCH   6  11
ENDBRANCH   2   8
ENDBRANCH   1   2
BRANCH   1  13
ATOM     13  O   UNL     1      46.598   6.182  11.285  0.00  0.00    +0.000 OA
BRANCH  13  14
ATOM     14  C   UNL     1      46.956   5.834  12.575  0.00  0.00    +0.000 A 
ATOM     15  C   UNL     1      47.788   6.689  13.284  0.00  0.00    +0.000 A 
ATOM     16  C   UNL     1      48.138   6.336  14.593  0.00  0.00    +0.000 A 
ATOM     17  C   UNL     1      47.652   5.147  15.151  0.00  0.00    +0.000 A 
ATOM     18  C   UNL     1      46.830   4.367  14.357  0.00  0.00    +0.000 A 
ATOM     19  N   UNL     1      46.476   4.682  13.091  0.00  0.00    +0.000 NA
BRANCH  17  20
ATOM     20  C   UNL     1      48.015   4.770  16.539  0.00  0.00    +0.000 C 
ATOM     21  N   UNL     1      47.155   5.091  17.557  0.00  0.00    +0.000 N 
ATOM     22  O   UNL     1      49.062   4.186  16.782  0.00  0.00    +0.000 OA
ATOM     23  H   UNL     1      46.272   5.570  17.469  0.00  0.00    +0.000 HD
ATOM     24  H   UNL     1      47.439   4.825  18.491  0.00  0.00    +0.000 HD
ENDBRANCH  17  20
ENDBRANCH  13  14
ENDBRANCH   1  13
TORSDOF 7
ENDMDL
MODEL 6
REMARK VINA RESULT:    -6.226      2.375      3.147
REMARK INTER + INTRA:          -9.594
REMARK INTER:                  -9.023
REMARK INTRA:                  -0.571
REMARK UNBOUND:                -0.819
REMARK  Name = 
REMARK  8 active torsions:
REMARK  status: ('A' for Active; 'I' for Inactive)
REMARK    1  A    between atoms: C_1  and  O_2
REMARK    2  A    between atoms: O_2  and  C_3
REMARK    3  A    between atoms: C_6  and  C_7
REMARK    4  A    between atoms: C_10  and  C_11
REMARK    5  A    between atoms: C_11  and  C_12
REMARK    6  A    between atoms: C_12  and  O_13
REMARK    7  A    between atoms: O_13  and  C_14
REMARK    8  A    between atoms: C_17  and  C_18
REMARK                            x       y       z     vdW  Elec       q    Type
REMARK                         _______ _______ _______ _____ _____    ______ ____
ROOT
ATOM      1  C   UNL     1      44.874   5.389  11.107  0.00  0.00    +0.000 C 
ENDROOT
BRANCH   1   2
ATOM      2  C   UNL     1      43.911   6.537  11.401  0.00  0.00    +0.000 C 
BRANCH   2   8
ATOM      3  C   UNL     1      44.083   9.082  11.158  0.00  0.00    +0.000 A 
ATOM      4  C   UNL     1      44.813  10.268  11.321  0.00  0.00    +0.000 A 
ATOM      5  C   UNL     1      46.093  10.246  11.880  0.00  0.00    +0.000 A 
ATOM      6  C   UNL     1      46.654   9.039  12.297  0.00  0.00    +0.000 A 
ATOM      7  C   UNL     1      45.935   7.850  12.133  0.00  0.00    +0.000 A 
ATOM      8  C   UNL     1      44.651   7.855  11.553  0.00  0.00    +0.000 A 
BRANCH   3  10
ATOM      9  C   UNL     1      42.071  10.251  10.668  0.00  0.00    +0.000 C 
ATOM     10  O   UNL     1      42.807   9.031  10.663  0.00  0.00    +0.000 OA
ENDBRANCH   3  10
BRANCH   6  11
ATOM     11  C   UNL     1      47.956   9.022  12.894  0.00  0.00    +0.000 C 
ATOM     12  N   UNL     1      49.017   9.014  13.369  0.00  0.00    +0.000 NA
ENDBRANCH   6  11
ENDBRANCH   2   8
ENDBRANCH   1   2
BRANCH   1  13
ATOM     13  O   UNL     1      44.208   4.324  10.407  0.00  0.00    +0.000 OA
BRANCH  13  14
ATOM     14  C   UNL     1      45.019   3.803   9.414  0.00  0.00    +0.000 A 
ATOM     15  C   UNL     1      45.676   4.684   8.566  0.00  0.00    +0.000 A 
ATOM     16  C   UNL     1      46.502   4.150   7.569  0.00  0.00    +0.000 A 
ATOM     17  C   UNL     1      46.648   2.762   7.450  0.00  0.00    +0.000 A 
ATOM     18  C   UNL     1      45.948   1.975   8.347  0.00  0.00    +0.000 A 
ATOM     19  N   UNL     1      45.143   2.461   9.318  0.00  0.00    +0.000 NA
BRANCH  17  20
ATOM     20  C   UNL     1      47.527   2.191   6.401  0.00  0.00    +0.000 C 
ATOM     21  N   UNL     1      47.894   2.983   5.344  0.00  0.00    +0.000 N 
ATOM     22  O   UNL     1      47.920   1.035   6.466  0.00  0.00    +0.000 OA
ATOM     23  H   UNL     1      47.627   3.943   5.191  0.00  0.00    +0.000 HD
ATOM     24  H   UNL     1      48.488   2.558   4.644  0.00  0.00    +0.000 HD
ENDBRANCH  17  20
ENDBRANCH  13  14
ENDBRANCH   1  13
TORSDOF 7
ENDMDL
MODEL 7
REMARK VINA RESULT:    -6.003      2.626      6.932
REMARK INTER + INTRA:          -9.278
REMARK INTER:                  -8.557
REMARK INTRA:                  -0.722
REMARK UNBOUND:                -0.819
REMARK  Name = 
REMARK  8 active torsions:
REMARK  status: ('A' for Active; 'I' for Inactive)
REMARK    1  A    between atoms: C_1  and  O_2
REMARK    2  A    between atoms: O_2  and  C_3
REMARK    3  A    between atoms: C_6  and  C_7
REMARK    4  A    between atoms: C_10  and  C_11
REMARK    5  A    between atoms: C_11  and  C_12
REMARK    6  A    between atoms: C_12  and  O_13
REMARK    7  A    between atoms: O_13  and  C_14
REMARK    8  A    between atoms: C_17  and  C_18
REMARK                            x       y       z     vdW  Elec       q    Type
REMARK                         _______ _______ _______ _____ _____    ______ ____
ROOT
ATOM      1  C   UNL     1      47.285   6.583  11.780  0.00  0.00    +0.000 C 
ENDROOT
BRANCH   1   2
ATOM      2  C   UNL     1      45.917   6.819  11.145  0.00  0.00    +0.000 C 
BRANCH   2   8
ATOM      3  C   UNL     1      44.356   4.789  11.062  0.00  0.00    +0.000 A 
ATOM      4  C   UNL     1      43.907   3.632  10.410  0.00  0.00    +0.000 A 
ATOM      5  C   UNL     1      44.464   3.240   9.190  0.00  0.00    +0.000 A 
ATOM      6  C   UNL     1      45.468   4.008   8.600  0.00  0.00    +0.000 A 
ATOM      7  C   UNL     1      45.926   5.161   9.246  0.00  0.00    +0.000 A 
ATOM      8  C   UNL     1      45.387   5.557  10.486  0.00  0.00    +0.000 A 
BRANCH   3  10
ATOM      9  C   UNL     1      43.273   4.292  13.120  0.00  0.00    +0.000 C 
ATOM     10  O   UNL     1      43.826   5.261  12.233  0.00  0.00    +0.000 OA
ENDBRANCH   3  10
BRANCH   6  11
ATOM     11  C   UNL     1      46.018   3.618   7.336  0.00  0.00    +0.000 C 
ATOM     12  N   UNL     1      46.464   3.290   6.314  0.00  0.00    +0.000 NA
ENDBRANCH   6  11
ENDBRANCH   2   8
ENDBRANCH   1   2
BRANCH   1  13
ATOM     13  O   UNL     1      47.391   7.260  13.044  0.00  0.00    +0.000 OA
BRANCH  13  14
ATOM     14  C   UNL     1      47.539   6.355  14.079  0.00  0.00    +0.000 A 
ATOM     15  C   UNL     1      46.838   5.159  14.018  0.00  0.00    +0.000 A 
ATOM     16  C   UNL     1      46.999   4.243  15.064  0.00  0.00    +0.000 A 
ATOM     17  C   UNL     1      47.851   4.545  16.134  0.00  0.00    +0.000 A 
ATOM     18  C   UNL     1      48.501   5.765  16.097  0.00  0.00    +0.000 A 
ATOM     19  N   UNL     1      48.365   6.669  15.102  0.00  0.00    +0.000 NA
BRANCH  17  20
ATOM     20  C   UNL     1      48.031   3.576  17.242  0.00  0.00    +0.000 C 
ATOM     21  N   UNL     1      46.958   2.820  17.640  0.00  0.00    +0.000 N 
ATOM     22  O   UNL     1      49.111   3.448  17.801  0.00  0.00    +0.000 OA
ATOM     23  H   UNL     1      46.028   2.847  17.252  0.00  0.00    +0.000 HD
ATOM     24  H   UNL     1      47.117   2.175  18.403  0.00  0.00    +0.000 HD
ENDBRANCH  17  20
ENDBRANCH  13  14
ENDBRANCH   1  13
TORSDOF 7
ENDMDL
MODEL 8
REMARK VINA RESULT:    -5.996      4.201      6.634
REMARK INTER + INTRA:          -9.269
REMARK INTER:                  -8.992
REMARK INTRA:                  -0.277
REMARK UNBOUND:                -0.819
REMARK  Name = 
REMARK  8 active torsions:
REMARK  status: ('A' for Active; 'I' for Inactive)
REMARK    1  A    between atoms: C_1  and  O_2
REMARK    2  A    between atoms: O_2  and  C_3
REMARK    3  A    between atoms: C_6  and  C_7
REMARK    4  A    between atoms: C_10  and  C_11
REMARK    5  A    between atoms: C_11  and  C_12
REMARK    6  A    between atoms: C_12  and  O_13
REMARK    7  A    between atoms: O_13  and  C_14
REMARK    8  A    between atoms: C_17  and  C_18
REMARK                            x       y       z     vdW  Elec       q    Type
REMARK                         _______ _______ _______ _____ _____    ______ ____
ROOT
ATOM      1  C   UNL     1      47.443   3.934  15.881  0.00  0.00    +0.000 C 
ENDROOT
BRANCH   1   2
ATOM      2  C   UNL     1      47.840   2.969  16.995  0.00  0.00    +0.000 C 
BRANCH   2   8
ATOM      3  C   UNL     1      49.669   4.392  18.087  0.00  0.00    +0.000 A 
ATOM      4  C   UNL     1      51.004   4.554  18.482  0.00  0.00    +0.000 A 
ATOM      5  C   UNL     1      51.941   3.544  18.256  0.00  0.00    +0.000 A 
ATOM      6  C   UNL     1      51.552   2.352  17.645  0.00  0.00    +0.000 A 
ATOM      7  C   UNL     1      50.222   2.184  17.243  0.00  0.00    +0.000 A 
ATOM      8  C   UNL     1      49.271   3.203  17.447  0.00  0.00    +0.000 A 
BRANCH   3  10
ATOM      9  C   UNL     1      48.452   5.677  19.677  0.00  0.00    +0.000 C 
ATOM     10  O   UNL     1      48.686   5.318  18.318  0.00  0.00    +0.000 OA
ENDBRANCH   3  10
BRANCH   6  11
ATOM     11  C   UNL     1      52.509   1.306  17.439  0.00  0.00    +0.000 C 
ATOM     12  N   UNL     1      53.293   0.466  17.266  0.00  0.00    +0.000 NA
ENDBRANCH   6  11
ENDBRANCH   2   8
ENDBRANCH   1   2
BRANCH   1  13
ATOM     13  O   UNL     1      47.470   3.283  14.599  0.00  0.00    +0.000 OA
BRANCH  13  14
ATOM     14  C   UNL     1      46.546   3.849  13.738  0.00  0.00    +0.000 A 
ATOM     15  C   UNL     1      46.386   5.228  13.753  0.00  0.00    +0.000 A 
ATOM     16  C   UNL     1      45.456   5.795  12.873  0.00  0.00    +0.000 A 
ATOM     17  C   UNL     1      44.719   4.974  12.010  0.00  0.00    +0.000 A 
ATOM     18  C   UNL     1      44.956   3.613  12.077  0.00  0.00    +0.000 A 
ATOM     19  N   UNL     1      45.846   3.038  12.916  0.00  0.00    +0.000 NA
BRANCH  17  20
ATOM     20  C   UNL     1      43.737   5.570  11.071  0.00  0.00    +0.000 C 
ATOM     21  N   UNL     1      43.377   6.882  11.236  0.00  0.00    +0.000 N 
ATOM     22  O   UNL     1      43.249   4.910  10.164  0.00  0.00    +0.000 OA
ATOM     23  H   UNL     1      43.715   7.513  11.946  0.00  0.00    +0.000 HD
ATOM     24  H   UNL     1      42.701   7.252  10.581  0.00  0.00    +0.000 HD
ENDBRANCH  17  20
ENDBRANCH  13  14
ENDBRANCH   1  13
TORSDOF 7
ENDMDL
MODEL 9
REMARK VINA RESULT:    -5.923      4.024      7.413
REMARK INTER + INTRA:          -9.166
REMARK INTER:                  -8.653
REMARK INTRA:                  -0.514
REMARK UNBOUND:                -0.819
REMARK  Name = 
REMARK  8 active torsions:
REMARK  status: ('A' for Active; 'I' for Inactive)
REMARK    1  A    between atoms: C_1  and  O_2
REMARK    2  A    between atoms: O_2  and  C_3
REMARK    3  A    between atoms: C_6  and  C_7
REMARK    4  A    between atoms: C_10  and  C_11
REMARK    5  A    between atoms: C_11  and  C_12
REMARK    6  A    between atoms: C_12  and  O_13
REMARK    7  A    between atoms: O_13  and  C_14
REMARK    8  A    between atoms: C_17  and  C_18
REMARK                            x       y       z     vdW  Elec       q    Type
REMARK                         _______ _______ _______ _____ _____    ______ ____
ROOT
ATOM      1  C   UNL     1      47.045   4.493  15.187  0.00  0.00    +0.000 C 
ENDROOT
BRANCH   1   2
ATOM      2  C   UNL     1      47.304   5.492  14.063  0.00  0.00    +0.000 C 
BRANCH   2   8
ATOM      3  C   UNL     1      45.735   6.801  12.517  0.00  0.00    +0.000 A 
ATOM      4  C   UNL     1      44.629   6.830  11.657  0.00  0.00    +0.000 A 
ATOM      5  C   UNL     1      43.906   5.665  11.386  0.00  0.00    +0.000 A 
ATOM      6  C   UNL     1      44.291   4.453  11.959  0.00  0.00    +0.000 A 
ATOM      7  C   UNL     1      45.391   4.416  12.823  0.00  0.00    +0.000 A 
ATOM      8  C   UNL     1      46.116   5.587  13.122  0.00  0.00    +0.000 A 
BRANCH   3  10
ATOM      9  C   UNL     1      45.946   9.170  12.537  0.00  0.00    +0.000 C 
ATOM     10  O   UNL     1      46.519   7.890  12.792  0.00  0.00    +0.000 OA
ENDBRANCH   3  10
BRANCH   6  11
ATOM     11  C   UNL     1      43.564   3.256  11.658  0.00  0.00    +0.000 C 
ATOM     12  N   UNL     1      42.970   2.290  11.405  0.00  0.00    +0.000 NA
ENDBRANCH   6  11
ENDBRANCH   2   8
ENDBRANCH   1   2
BRANCH   1  13
ATOM     13  O   UNL     1      47.669   4.918  16.411  0.00  0.00    +0.000 OA
BRANCH  13  14
ATOM     14  C   UNL     1      48.727   4.089  16.740  0.00  0.00    +0.000 A 
ATOM     15  C   UNL     1      48.527   2.716  16.703  0.00  0.00    +0.000 A 
ATOM     16  C   UNL     1      49.604   1.883  17.028  0.00  0.00    +0.000 A 
ATOM     17  C   UNL     1      50.840   2.440  17.379  0.00  0.00    +0.000 A 
ATOM     18  C   UNL     1      50.930   3.821  17.386  0.00  0.00    +0.000 A 
ATOM     19  N   UNL     1      49.909   4.650  17.077  0.00  0.00    +0.000 NA
BRANCH  17  20
ATOM     20  C   UNL     1      51.986   1.562  17.719  0.00  0.00    +0.000 C 
ATOM     21  N   UNL     1      51.740   0.259  18.066  0.00  0.00    +0.000 N 
ATOM     22  O   UNL     1      53.134   1.984  17.697  0.00  0.00    +0.000 OA
ATOM     23  H   UNL     1      50.838  -0.188  18.118  0.00  0.00    +0.000 HD
ATOM     24  H   UNL     1      52.545  -0.308  18.297  0.00  0.00    +0.000 HD
ENDBRANCH  17  20
ENDBRANCH  13  14
ENDBRANCH   1  13
TORSDOF 7
ENDMDL
