MODEL 1
REMARK VINA RESULT:    -8.475      0.000      0.000
REMARK INTER + INTRA:         -13.063
REMARK INTER:                 -12.190
REMARK INTRA:                  -0.873
REMARK UNBOUND:                -0.873
REMARK  Name = 
REMARK  8 active torsions:
REMARK  status: ('A' for Active; 'I' for Inactive)
REMARK    1  A    between atoms: N_1  and  C_2
REMARK    2  A    between atoms: C_2  and  C_3
REMARK    3  A    between atoms: C_2  and  C_24
REMARK    4  A    between atoms: C_3  and  C_4
REMARK    5  A    between atoms: C_7  and  C_8
REMARK    6  A    between atoms: C_8  and  N_9
REMARK    7  A    between atoms: C_10  and  C_12
REMARK    8  A    between atoms: C_24  and  C_26
REMARK                            x       y       z     vdW  Elec       q    Type
REMARK                         _______ _______ _______ _____ _____    ______ ____
ROOT
ATOM      1  C   UNL     1      45.636   4.666  12.006  0.00  0.00    +0.000 A 
ATOM      2  C   UNL     1      46.081   4.228  13.253  0.00  0.00    +0.000 A 
ATOM      3  C   UNL     1      47.017   4.984  13.956  0.00  0.00    +0.000 A 
ATOM      4  C   UNL     1      47.512   6.150  13.380  0.00  0.00    +0.000 A 
ATOM      5  N   UNL     1      47.079   6.605  12.177  0.00  0.00    +0.000 NA
ATOM      6  C   UNL     1      46.149   5.868  11.531  0.00  0.00    +0.000 A 
ENDROOT
BRANCH   1   7
ATOM      7  C   UNL     1      44.653   3.865  11.194  0.00  0.00    +0.000 C 
BRANCH   7   8
ATOM      8  C   UNL     1      44.804   4.041   9.665  0.00  0.00    +0.000 C 
BRANCH   8   9
ATOM      9  N   UNL     1      43.628   4.673   9.034  0.00  0.00    +0.000 NA
ATOM     10  H   UNL     1      43.417   4.192   8.157  0.00  0.00    +0.000 HD
ATOM     11  H   UNL     1      43.869   5.633   8.774  0.00  0.00    +0.000 HD
ENDBRANCH   8   9
BRANCH   8  12
ATOM     12  C   UNL     1      45.008   2.659   9.024  0.00  0.00    +0.000 C 
ATOM     13  O   UNL     1      44.388   1.663   9.398  0.00  0.00    +0.000 OA
BRANCH  12  14
ATOM     14  C   UNL     1      45.987   2.512   7.920  0.00  0.00    +0.000 A 
ATOM     15  C   UNL     1      46.204   3.489   6.949  0.00  0.00    +0.000 A 
ATOM     16  C   UNL     1      47.134   3.250   5.937  0.00  0.00    +0.000 A 
ATOM     17  C   UNL     1      47.821   2.045   5.941  0.00  0.00    +0.000 A 
ATOM     18  N   UNL     1      47.636   1.082   6.868  0.00  0.00    +0.000 NA
ATOM     19  C   UNL     1      46.713   1.331   7.830  0.00  0.00    +0.000 A 
ENDBRANCH  12  14
ENDBRANCH   8  12
ENDBRANCH   7   8
ENDBRANCH   1   7
BRANCH   4  20
ATOM     20  C   UNL     1      48.562   6.966  14.091  0.00  0.00    +0.000 C 
BRANCH  20  21
ATOM     21  N   UNL     1      48.327   7.052  15.513  0.00  0.00    +0.000 N 
ATOM     22  C   UNL     1      49.234   6.611  16.437  0.00  0.00    +0.000 C 
ATOM     23  O   UNL     1      50.299   6.092  16.106  0.00  0.00    +0.000 OA
ATOM     24  H   UNL     1      47.372   7.262  15.794  0.00  0.00    +0.000 HD
BRANCH  22  25
ATOM     25  C   UNL     1      48.908   6.850  17.849  0.00  0.00    +0.000 A 
ATOM     26  C   UNL     1      48.712   8.150  18.293  0.00  0.00    +0.000 A 
ATOM     27  S   UNL     1      48.307   8.257  19.946  0.00  0.00    +0.000 S 
ATOM     28  C   UNL     1      48.420   6.570  20.138  0.00  0.00    +0.000 A 
ATOM     29  N   UNL     1      48.215   5.990  21.350  0.00  0.00    +0.000 NA
ATOM     30  C   UNL     1      48.361   4.707  21.361  0.00  0.00    +0.000 A 
ATOM     31  N   UNL     1      48.681   3.951  20.264  0.00  0.00    +0.000 N 
ATOM     32  C   UNL     1      48.844   4.487  19.010  0.00  0.00    +0.000 A 
ATOM     33  O   UNL     1      49.039   3.771  18.032  0.00  0.00    +0.000 OA
ATOM     34  C   UNL     1      48.731   5.931  18.950  0.00  0.00    +0.000 A 
ATOM     35  H   UNL     1      48.757   2.946  20.333  0.00  0.00    +0.000 HD
ENDBRANCH  22  25
ENDBRANCH  20  21
ENDBRANCH   4  20
TORSDOF 8
ENDMDL
MODEL 2
REMARK VINA RESULT:    -8.412      1.372      2.076
REMARK INTER + INTRA:         -12.973
REMARK INTER:                 -11.930
REMARK INTRA:                  -1.043
REMARK UNBOUND:                -0.873
REMARK  Name = 
REMARK  8 active torsions:
REMARK  status: ('A' for Active; 'I' for Inactive)
REMARK    1  A    between atoms: N_1  and  C_2
REMARK    2  A    between atoms: C_2  and  C_3
REMARK    3  A    between atoms: C_2  and  C_24
REMARK    4  A    between atoms: C_3  and  C_4
REMARK    5  A    between atoms: C_7  and  C_8
REMARK    6  A    between atoms: C_8  and  N_9
REMARK    7  A    between atoms: C_10  and  C_12
REMARK    8  A    between atoms: C_24  and  C_26
REMARK                            x       y       z     vdW  Elec       q    Type
REMARK                         _______ _______ _______ _____ _____    ______ ____
ROOT
ATOM      1  C   UNL     1      45.758   4.634  12.103  0.00  0.00    +0.000 A 
ATOM      2  C   UNL     1      46.133   5.921  11.716  0.00  0.00    +0.000 A 
ATOM      3  C   UNL     1      47.043   6.637  12.491  0.00  0.00    +0.000 A 
ATOM      4  C   UNL     1      47.537   6.059  13.657  0.00  0.00    +0.000 A 
ATOM      5  N   UNL     1      47.202   4.802  14.041  0.00  0.00    +0.000 NA
ATOM      6  C   UNL     1      46.341   4.120  13.255  0.00  0.00    +0.000 A 
ENDROOT
BRANCH   1   7
ATOM      7  C   UNL     1      44.752   3.837  11.317  0.00  0.00    +0.000 C 
BRANCH   7   8
ATOM      8  C   UNL     1      44.836   4.046   9.786  0.00  0.00    +0.000 C 
BRANCH   8   9
ATOM      9  N   UNL     1      43.650   4.725   9.226  0.00  0.00    +0.000 NA
ATOM     10  H   UNL     1      42.924   4.781   9.942  0.00  0.00    +0.000 HD
ATOM     11  H   UNL     1      43.260   4.146   8.478  0.00  0.00    +0.000 HD
ENDBRANCH   8   9
BRANCH   8  12
ATOM     12  C   UNL     1      44.970   2.676   9.105  0.00  0.00    +0.000 C 
ATOM     13  O   UNL     1      44.302   1.701   9.451  0.00  0.00    +0.000 OA
BRANCH  12  14
ATOM     14  C   UNL     1      45.939   2.512   7.994  0.00  0.00    +0.000 A 
ATOM     15  C   UNL     1      46.143   3.472   7.004  0.00  0.00    +0.000 A 
ATOM     16  C   UNL     1      47.064   3.219   5.987  0.00  0.00    +0.000 A 
ATOM     17  C   UNL     1      47.757   2.018   6.007  0.00  0.00    +0.000 A 
ATOM     18  N   UNL     1      47.586   1.071   6.953  0.00  0.00    +0.000 NA
ATOM     19  C   UNL     1      46.670   1.333   7.919  0.00  0.00    +0.000 A 
ENDBRANCH  12  14
ENDBRANCH   8  12
ENDBRANCH   7   8
ENDBRANCH   1   7
BRANCH   4  20
ATOM     20  C   UNL     1      48.486   6.825  14.545  0.00  0.00    +0.000 C 
BRANCH  20  21
ATOM     21  N   UNL     1      48.269   6.558  15.947  0.00  0.00    +0.000 N 
ATOM     22  C   UNL     1      49.250   6.059  16.759  0.00  0.00    +0.000 C 
ATOM     23  O   UNL     1      50.372   5.788  16.334  0.00  0.00    +0.000 OA
ATOM     24  H   UNL     1      47.301   6.559  16.256  0.00  0.00    +0.000 HD
BRANCH  22  25
ATOM     25  C   UNL     1      48.922   5.927  18.186  0.00  0.00    +0.000 A 
ATOM     26  C   UNL     1      49.172   4.727  18.835  0.00  0.00    +0.000 A 
ATOM     27  S   UNL     1      48.771   4.747  20.492  0.00  0.00    +0.000 S 
ATOM     28  C   UNL     1      48.210   6.350  20.392  0.00  0.00    +0.000 A 
ATOM     29  N   UNL     1      47.691   6.978  21.481  0.00  0.00    +0.000 NA
ATOM     30  C   UNL     1      47.276   8.181  21.258  0.00  0.00    +0.000 A 
ATOM     31  N   UNL     1      47.346   8.816  20.046  0.00  0.00    +0.000 N 
ATOM     32  C   UNL     1      47.912   8.241  18.934  0.00  0.00    +0.000 A 
ATOM     33  O   UNL     1      48.042   8.871  17.888  0.00  0.00    +0.000 OA
ATOM     34  C   UNL     1      48.357   6.874  19.119  0.00  0.00    +0.000 A 
ATOM     35  H   UNL     1      47.027   9.768  19.942  0.00  0.00    +0.000 HD
ENDBRANCH  22  25
ENDBRANCH  20  21
ENDBRANCH   4  20
TORSDOF 8
ENDMDL
MODEL 3
REMARK VINA RESULT:    -8.150      2.568      3.182
REMARK INTER + INTRA:         -12.596
REMARK INTER:                 -11.749
REMARK INTRA:                  -0.847
REMARK UNBOUND:                -0.873
REMARK  Name = 
REMARK  8 active torsions:
REMARK  status: ('A' for Active; 'I' for Inactive)
REMARK    1  A    between atoms: N_1  and  C_2
REMARK    2  A    between atoms: C_2  and  C_3
REMARK    3  A    between atoms: C_2  and  C_24
REMARK    4  A    between atoms: C_3  and  C_4
REMARK    5  A    between atoms: C_7  and  C_8
REMARK    6  A    between atoms: C_8  and  N_9
REMARK    7  A    between atoms: C_10  and  C_12
REMARK    8  A    between atoms: C_24  and  C_26
REMARK                            x       y       z     vdW  Elec       q    Type
REMARK                         _______ _______ _______ _____ _____    ______ ____
ROOT
ATOM      1  C   UNL     1      46.103   5.052  12.999  0.00  0.00    +0.000 A 
ATOM      2  C   UNL     1      46.329   6.382  12.642  0.00  0.00    +0.000 A 
ATOM      3  C   UNL     1      47.293   7.125  13.321  0.00  0.00    +0.000 A 
ATOM      4  C   UNL     1      47.990   6.528  14.367  0.00  0.00    +0.000 A 
ATOM      5  N   UNL     1      47.801   5.231  14.718  0.00  0.00    +0.000 NA
ATOM      6  C   UNL     1      46.881   4.526  14.023  0.00  0.00    +0.000 A 
ENDROOT
BRANCH   1   7
ATOM      7  C   UNL     1      45.048   4.222  12.318  0.00  0.00    +0.000 C 
BRANCH   7   8
ATOM      8  C   UNL     1      44.789   4.615  10.844  0.00  0.00    +0.000 C 
BRANCH   8   9
ATOM      9  N   UNL     1      43.613   5.492  10.674  0.00  0.00    +0.000 NA
ATOM     10  H   UNL     1      43.767   6.110   9.875  0.00  0.00    +0.000 HD
ATOM     11  H   UNL     1      43.538   6.105  11.490  0.00  0.00    +0.000 HD
ENDBRANCH   8   9
BRANCH   8  12
ATOM     12  C   UNL     1      44.556   3.336  10.024  0.00  0.00    +0.000 C 
ATOM     13  O   UNL     1      43.678   2.522  10.310  0.00  0.00    +0.000 OA
BRANCH  12  14
ATOM     14  C   UNL     1      45.417   3.065   8.848  0.00  0.00    +0.000 A 
ATOM     15  C   UNL     1      45.914   1.801   8.533  0.00  0.00    +0.000 A 
ATOM     16  C   UNL     1      46.734   1.649   7.415  0.00  0.00    +0.000 A 
ATOM     17  C   UNL     1      47.016   2.767   6.644  0.00  0.00    +0.000 A 
ATOM     18  N   UNL     1      46.548   4.002   6.920  0.00  0.00    +0.000 NA
ATOM     19  C   UNL     1      45.770   4.127   8.024  0.00  0.00    +0.000 A 
ENDBRANCH  12  14
ENDBRANCH   8  12
ENDBRANCH   7   8
ENDBRANCH   1   7
BRANCH   4  20
ATOM     20  C   UNL     1      49.005   7.318  15.155  0.00  0.00    +0.000 C 
BRANCH  20  21
ATOM     21  N   UNL     1      50.046   6.484  15.709  0.00  0.00    +0.000 N 
ATOM     22  C   UNL     1      50.096   6.156  17.036  0.00  0.00    +0.000 C 
ATOM     23  O   UNL     1      49.264   6.572  17.841  0.00  0.00    +0.000 OA
ATOM     24  H   UNL     1      50.853   6.326  15.113  0.00  0.00    +0.000 HD
BRANCH  22  25
ATOM     25  C   UNL     1      51.153   5.221  17.446  0.00  0.00    +0.000 A 
ATOM     26  C   UNL     1      52.360   5.719  17.915  0.00  0.00    +0.000 A 
ATOM     27  S   UNL     1      53.466   4.508  18.382  0.00  0.00    +0.000 S 
ATOM     28  C   UNL     1      52.385   3.272  17.935  0.00  0.00    +0.000 A 
ATOM     29  N   UNL     1      52.734   1.963  18.053  0.00  0.00    +0.000 NA
ATOM     30  C   UNL     1      51.832   1.131  17.650  0.00  0.00    +0.000 A 
ATOM     31  N   UNL     1      50.608   1.492  17.150  0.00  0.00    +0.000 N 
ATOM     32  C   UNL     1      50.193   2.798  17.063  0.00  0.00    +0.000 A 
ATOM     33  O   UNL     1      49.056   3.082  16.697  0.00  0.00    +0.000 OA
ATOM     34  C   UNL     1      51.185   3.777  17.465  0.00  0.00    +0.000 A 
ATOM     35  H   UNL     1      49.935   0.791  16.874  0.00  0.00    +0.000 HD
ENDBRANCH  22  25
ENDBRANCH  20  21
ENDBRANCH   4  20
TORSDOF 8
ENDMDL
MODEL 4
REMARK VINA RESULT:    -8.147      1.117      1.553
REMARK INTER + INTRA:         -12.592
REMARK INTER:                 -11.653
REMARK INTRA:                  -0.940
REMARK UNBOUND:                -0.873
REMARK  Name = 
REMARK  8 active torsions:
REMARK  status: ('A' for Active; 'I' for Inactive)
REMARK    1  A    between atoms: N_1  and  C_2
REMARK    2  A    between atoms: C_2  and  C_3
REMARK    3  A    between atoms: C_2  and  C_24
REMARK    4  A    between atoms: C_3  and  C_4
REMARK    5  A    between atoms: C_7  and  C_8
REMARK    6  A    between atoms: C_8  and  N_9
REMARK    7  A    between atoms: C_10  and  C_12
REMARK    8  A    between atoms: C_24  and  C_26
REMARK                            x       y       z     vdW  Elec       q    Type
REMARK                         _______ _______ _______ _____ _____    ______ ____
ROOT
ATOM      1  C   UNL     1      45.924   5.164  12.672  0.00  0.00    +0.000 A 
ATOM      2  C   UNL     1      46.436   6.311  12.065  0.00  0.00    +0.000 A 
ATOM      3  C   UNL     1      47.541   6.952  12.622  0.00  0.00    +0.000 A 
ATOM      4  C   UNL     1      48.091   6.447  13.797  0.00  0.00    +0.000 A 
ATOM      5  N   UNL     1      47.622   5.321  14.393  0.00  0.00    +0.000 NA
ATOM      6  C   UNL     1      46.569   4.704  13.814  0.00  0.00    +0.000 A 
ENDROOT
BRANCH   1   7
ATOM      7  C   UNL     1      44.711   4.458  12.125  0.00  0.00    +0.000 C 
BRANCH   7   8
ATOM      8  C   UNL     1      44.492   4.661  10.607  0.00  0.00    +0.000 C 
BRANCH   8   9
ATOM      9  N   UNL     1      43.236   5.369  10.290  0.00  0.00    +0.000 NA
ATOM     10  H   UNL     1      42.540   4.693   9.968  0.00  0.00    +0.000 HD
ATOM     11  H   UNL     1      43.401   5.997   9.500  0.00  0.00    +0.000 HD
ENDBRANCH   8   9
BRANCH   8  12
ATOM     12  C   UNL     1      44.454   3.286   9.924  0.00  0.00    +0.000 C 
ATOM     13  O   UNL     1      43.684   2.394  10.283  0.00  0.00    +0.000 OA
BRANCH  12  14
ATOM     14  C   UNL     1      45.376   3.013   8.795  0.00  0.00    +0.000 A 
ATOM     15  C   UNL     1      45.904   1.753   8.520  0.00  0.00    +0.000 A 
ATOM     16  C   UNL     1      46.780   1.599   7.445  0.00  0.00    +0.000 A 
ATOM     17  C   UNL     1      47.085   2.712   6.677  0.00  0.00    +0.000 A 
ATOM     18  N   UNL     1      46.588   3.945   6.915  0.00  0.00    +0.000 NA
ATOM     19  C   UNL     1      45.754   4.070   7.977  0.00  0.00    +0.000 A 
ENDBRANCH  12  14
ENDBRANCH   8  12
ENDBRANCH   7   8
ENDBRANCH   1   7
BRANCH   4  20
ATOM     20  C   UNL     1      49.256   7.144  14.454  0.00  0.00    +0.000 C 
BRANCH  20  21
ATOM     21  N   UNL     1      49.101   7.252  15.886  0.00  0.00    +0.000 N 
ATOM     22  C   UNL     1      49.871   6.541  16.764  0.00  0.00    +0.000 C 
ATOM     23  O   UNL     1      50.730   5.749  16.381  0.00  0.00    +0.000 OA
ATOM     24  H   UNL     1      48.257   7.719  16.207  0.00  0.00    +0.000 HD
BRANCH  22  25
ATOM     25  C   UNL     1      49.673   6.822  18.193  0.00  0.00    +0.000 A 
ATOM     26  C   UNL     1      49.924   8.097  18.678  0.00  0.00    +0.000 A 
ATOM     27  S   UNL     1      49.613   8.270  20.346  0.00  0.00    +0.000 S 
ATOM     28  C   UNL     1      49.171   6.633  20.487  0.00  0.00    +0.000 A 
ATOM     29  N   UNL     1      48.814   6.108  21.690  0.00  0.00    +0.000 NA
ATOM     30  C   UNL     1      48.531   4.847  21.660  0.00  0.00    +0.000 A 
ATOM     31  N   UNL     1      48.562   4.069  20.533  0.00  0.00    +0.000 N 
ATOM     32  C   UNL     1      48.863   4.569  19.289  0.00  0.00    +0.000 A 
ATOM     33  O   UNL     1      48.791   3.865  18.286  0.00  0.00    +0.000 OA
ATOM     34  C   UNL     1      49.229   5.971  19.273  0.00  0.00    +0.000 A 
ATOM     35  H   UNL     1      48.305   3.093  20.571  0.00  0.00    +0.000 HD
ENDBRANCH  22  25
ENDBRANCH  20  21
ENDBRANCH   4  20
TORSDOF 8
ENDMDL
MODEL 5
REMARK VINA RESULT:    -7.794      2.003      2.530
REMARK INTER + INTRA:         -12.084
REMARK INTER:                 -10.838
REMARK INTRA:                  -1.246
REMARK UNBOUND:                -0.873
REMARK  Name = 
REMARK  8 active torsions:
REMARK  status: ('A' for Active; 'I' for Inactive)
REMARK    1  A    between atoms: N_1  and  C_2
REMARK    2  A    between atoms: C_2  and  C_3
REMARK    3  A    between atoms: C_2  and  C_24
REMARK    4  A    between atoms: C_3  and  C_4
REMARK    5  A    between atoms: C_7  and  C_8
REMARK    6  A    between atoms: C_8  and  N_9
REMARK    7  A    between atoms: C_10  and  C_12
REMARK    8  A    between atoms: C_24  and  C_26
REMARK                            x       y       z     vdW  Elec       q    Type
REMARK                         _______ _______ _______ _____ _____    ______ ____
ROOT
ATOM      1  C   UNL     1      45.502   5.390  13.134  0.00  0.00    +0.000 A 
ATOM      2  C   UNL     1      45.842   6.548  12.433  0.00  0.00    +0.000 A 
ATOM      3  C   UNL     1      47.096   7.125  12.620  0.00  0.00    +0.000 A 
ATOM      4  C   UNL     1      47.973   6.548  13.533  0.00  0.00    +0.000 A 
ATOM      5  N   UNL     1      47.672   5.412  14.211  0.00  0.00    +0.000 NA
ATOM      6  C   UNL     1      46.461   4.857  13.986  0.00  0.00    +0.000 A 
ENDROOT
BRANCH   1   7
ATOM      7  C   UNL     1      44.146   4.752  12.990  0.00  0.00    +0.000 C 
BRANCH   7   8
ATOM      8  C   UNL     1      43.559   4.829  11.560  0.00  0.00    +0.000 C 
BRANCH   8   9
ATOM      9  N   UNL     1      42.125   5.181  11.538  0.00  0.00    +0.000 NA
ATOM     10  H   UNL     1      41.651   4.618  10.830  0.00  0.00    +0.000 HD
ATOM     11  H   UNL     1      42.029   6.153  11.233  0.00  0.00    +0.000 HD
ENDBRANCH   8   9
BRANCH   8  12
ATOM     12  C   UNL     1      43.729   3.462  10.880  0.00  0.00    +0.000 C 
ATOM     13  O   UNL     1      43.144   2.453  11.276  0.00  0.00    +0.000 OA
BRANCH  12  14
ATOM     14  C   UNL     1      44.629   3.344   9.708  0.00  0.00    +0.000 A 
ATOM     15  C   UNL     1      45.030   2.124   9.165  0.00  0.00    +0.000 A 
ATOM     16  C   UNL     1      45.896   2.115   8.071  0.00  0.00    +0.000 A 
ATOM     17  C   UNL     1      46.320   3.330   7.554  0.00  0.00    +0.000 A 
ATOM     18  N   UNL     1      45.948   4.527   8.054  0.00  0.00    +0.000 NA
ATOM     19  C   UNL     1      45.122   4.507   9.129  0.00  0.00    +0.000 A 
ENDBRANCH  12  14
ENDBRANCH   8  12
ENDBRANCH   7   8
ENDBRANCH   1   7
BRANCH   4  20
ATOM     20  C   UNL     1      49.320   7.175  13.797  0.00  0.00    +0.000 C 
BRANCH  20  21
ATOM     21  N   UNL     1      49.699   7.106  15.189  0.00  0.00    +0.000 N 
ATOM     22  C   UNL     1      50.961   7.408  15.622  0.00  0.00    +0.000 C 
ATOM     23  O   UNL     1      51.854   7.737  14.844  0.00  0.00    +0.000 OA
ATOM     24  H   UNL     1      49.049   6.623  15.803  0.00  0.00    +0.000 HD
BRANCH  22  25
ATOM     25  C   UNL     1      51.182   7.391  17.074  0.00  0.00    +0.000 A 
ATOM     26  C   UNL     1      51.789   8.479  17.685  0.00  0.00    +0.000 A 
ATOM     27  S   UNL     1      51.941   8.321  19.376  0.00  0.00    +0.000 S 
ATOM     28  C   UNL     1      51.236   6.773  19.348  0.00  0.00    +0.000 A 
ATOM     29  N   UNL     1      51.093   6.050  20.491  0.00  0.00    +0.000 NA
ATOM     30  C   UNL     1      50.571   4.881  20.323  0.00  0.00    +0.000 A 
ATOM     31  N   UNL     1      50.168   4.374  19.114  0.00  0.00    +0.000 N 
ATOM     32  C   UNL     1      50.245   5.089  17.944  0.00  0.00    +0.000 A 
ATOM     33  O   UNL     1      49.790   4.641  16.894  0.00  0.00    +0.000 OA
ATOM     34  C   UNL     1      50.862   6.395  18.070  0.00  0.00    +0.000 A 
ATOM     35  H   UNL     1      49.744   3.460  19.052  0.00  0.00    +0.000 HD
ENDBRANCH  22  25
ENDBRANCH  20  21
ENDBRANCH   4  20
TORSDOF 8
ENDMDL
MODEL 6
REMARK VINA RESULT:    -7.504      1.909      2.480
REMARK INTER + INTRA:         -11.667
REMARK INTER:                 -10.799
REMARK INTRA:                  -0.868
REMARK UNBOUND:                -0.873
REMARK  Name = 
REMARK  8 active torsions:
REMARK  status: ('A' for Active; 'I' for Inactive)
REMARK    1  A    between atoms: N_1  and  C_2
REMARK    2  A    between atoms: C_2  and  C_3
REMARK    3  A    between atoms: C_2  and  C_24
REMARK    4  A    between atoms: C_3  and  C_4
REMARK    5  A    between atoms: C_7  and  C_8
REMARK    6  A    between atoms: C_8  and  N_9
REMARK    7  A    between atoms: C_10  and  C_12
REMARK    8  A    between atoms: C_24  and  C_26
REMARK                            x       y       z     vdW  Elec       q    Type
REMARK                         _______ _______ _______ _____ _____    ______ ____
ROOT
ATOM      1  C   UNL     1      45.900   4.967  12.745  0.00  0.00    +0.000 A 
ATOM      2  C   UNL     1      46.248   6.222  12.245  0.00  0.00    +0.000 A 
ATOM      3  C   UNL     1      47.229   6.974  12.886  0.00  0.00    +0.000 A 
ATOM      4  C   UNL     1      47.822   6.466  14.038  0.00  0.00    +0.000 A 
ATOM      5  N   UNL     1      47.514   5.240  14.532  0.00  0.00    +0.000 NA
ATOM      6  C   UNL     1      46.581   4.520  13.872  0.00  0.00    +0.000 A 
ENDROOT
BRANCH   1   7
ATOM      7  C   UNL     1      44.821   4.135  12.106  0.00  0.00    +0.000 C 
BRANCH   7   8
ATOM      8  C   UNL     1      44.603   4.429  10.603  0.00  0.00    +0.000 C 
BRANCH   8   9
ATOM      9  N   UNL     1      43.355   5.170  10.331  0.00  0.00    +0.000 NA
ATOM     10  H   UNL     1      43.585   6.086   9.940  0.00  0.00    +0.000 HD
ATOM     11  H   UNL     1      42.882   5.356  11.219  0.00  0.00    +0.000 HD
ENDBRANCH   8   9
BRANCH   8  12
ATOM     12  C   UNL     1      44.547   3.097   9.840  0.00  0.00    +0.000 C 
ATOM     13  O   UNL     1      43.771   2.193  10.151  0.00  0.00    +0.000 OA
BRANCH  12  14
ATOM     14  C   UNL     1      45.458   2.884   8.690  0.00  0.00    +0.000 A 
ATOM     15  C   UNL     1      46.033   1.651   8.382  0.00  0.00    +0.000 A 
ATOM     16  C   UNL     1      46.894   1.554   7.289  0.00  0.00    +0.000 A 
ATOM     17  C   UNL     1      47.139   2.692   6.536  0.00  0.00    +0.000 A 
ATOM     18  N   UNL     1      46.596   3.898   6.806  0.00  0.00    +0.000 NA
ATOM     19  C   UNL     1      45.778   3.970   7.885  0.00  0.00    +0.000 A 
ENDBRANCH  12  14
ENDBRANCH   8  12
ENDBRANCH   7   8
ENDBRANCH   1   7
BRANCH   4  20
ATOM     20  C   UNL     1      48.852   7.275  14.786  0.00  0.00    +0.000 C 
BRANCH  20  21
ATOM     21  N   UNL     1      48.302   7.937  15.946  0.00  0.00    +0.000 N 
ATOM     22  C   UNL     1      49.081   8.606  16.849  0.00  0.00    +0.000 C 
ATOM     23  O   UNL     1      50.304   8.664  16.735  0.00  0.00    +0.000 OA
ATOM     24  H   UNL     1      47.338   7.707  16.173  0.00  0.00    +0.000 HD
BRANCH  22  25
ATOM     25  C   UNL     1      48.380   9.316  17.927  0.00  0.00    +0.000 A 
ATOM     26  C   UNL     1      48.026  10.646  17.750  0.00  0.00    +0.000 A 
ATOM     27  S   UNL     1      47.189  11.316  19.076  0.00  0.00    +0.000 S 
ATOM     28  C   UNL     1      47.306   9.862  19.953  0.00  0.00    +0.000 A 
ATOM     29  N   UNL     1      46.804   9.764  21.213  0.00  0.00    +0.000 NA
ATOM     30  C   UNL     1      46.986   8.615  21.773  0.00  0.00    +0.000 A 
ATOM     31  N   UNL     1      47.616   7.551  21.182  0.00  0.00    +0.000 N 
ATOM     32  C   UNL     1      48.090   7.588  19.893  0.00  0.00    +0.000 A 
ATOM     33  O   UNL     1      48.566   6.588  19.361  0.00  0.00    +0.000 OA
ATOM     34  C   UNL     1      47.947   8.870  19.231  0.00  0.00    +0.000 A 
ATOM     35  H   UNL     1      47.706   6.669  21.665  0.00  0.00    +0.000 HD
ENDBRANCH  22  25
ENDBRANCH  20  21
ENDBRANCH   4  20
TORSDOF 8
ENDMDL
MODEL 7
REMARK VINA RESULT:    -7.470      3.599      8.936
REMARK INTER + INTRA:         -11.617
REMARK INTER:                 -10.057
REMARK INTRA:                  -1.561
REMARK UNBOUND:                -0.873
REMARK  Name = 
REMARK  8 active torsions:
REMARK  status: ('A' for Active; 'I' for Inactive)
REMARK    1  A    between atoms: N_1  and  C_2
REMARK    2  A    between atoms: C_2  and  C_3
REMARK    3  A    between atoms: C_2  and  C_24
REMARK    4  A    between atoms: C_3  and  C_4
REMARK    5  A    between atoms: C_7  and  C_8
REMARK    6  A    between atoms: C_8  and  N_9
REMARK    7  A    between atoms: C_10  and  C_12
REMARK    8  A    between atoms: C_24  and  C_26
REMARK                            x       y       z     vdW  Elec       q    Type
REMARK                         _______ _______ _______ _____ _____    ______ ____
ROOT
ATOM      1  C   UNL     1      48.905   7.804  16.438  0.00  0.00    +0.000 A 
ATOM      2  C   UNL     1      48.109   8.797  15.866  0.00  0.00    +0.000 A 
ATOM      3  C   UNL     1      47.944   8.838  14.483  0.00  0.00    +0.000 A 
ATOM      4  C   UNL     1      48.608   7.901  13.697  0.00  0.00    +0.000 A 
ATOM      5  N   UNL     1      49.371   6.915  14.233  0.00  0.00    +0.000 NA
ATOM      6  C   UNL     1      49.488   6.881  15.578  0.00  0.00    +0.000 A 
ENDROOT
BRANCH   1   7
ATOM      7  C   UNL     1      49.140   7.742  17.924  0.00  0.00    +0.000 C 
BRANCH   7   8
ATOM      8  C   UNL     1      47.905   7.291  18.740  0.00  0.00    +0.000 C 
BRANCH   8   9
ATOM      9  N   UNL     1      47.603   8.184  19.877  0.00  0.00    +0.000 NA
ATOM     10  H   UNL     1      47.596   7.639  20.741  0.00  0.00    +0.000 HD
ATOM     11  H   UNL     1      46.652   8.546  19.769  0.00  0.00    +0.000 HD
ENDBRANCH   8   9
BRANCH   8  12
ATOM     12  C   UNL     1      48.165   5.881  19.293  0.00  0.00    +0.000 C 
ATOM     13  O   UNL     1      48.309   5.662  20.495  0.00  0.00    +0.000 OA
BRANCH  12  14
ATOM     14  C   UNL     1      48.250   4.740  18.349  0.00  0.00    +0.000 A 
ATOM     15  C   UNL     1      49.358   3.899  18.258  0.00  0.00    +0.000 A 
ATOM     16  C   UNL     1      49.352   2.862  17.325  0.00  0.00    +0.000 A 
ATOM     17  C   UNL     1      48.232   2.698  16.525  0.00  0.00    +0.000 A 
ATOM     18  N   UNL     1      47.143   3.493  16.591  0.00  0.00    +0.000 NA
ATOM     19  C   UNL     1      47.182   4.505  17.493  0.00  0.00    +0.000 A 
ENDBRANCH  12  14
ENDBRANCH   8  12
ENDBRANCH   7   8
ENDBRANCH   1   7
BRANCH   4  20
ATOM     20  C   UNL     1      48.492   7.947  12.194  0.00  0.00    +0.000 C 
BRANCH  20  21
ATOM     21  N   UNL     1      47.713   6.851  11.665  0.00  0.00    +0.000 N 
ATOM     22  C   UNL     1      46.357   6.926  11.502  0.00  0.00    +0.000 C 
ATOM     23  O   UNL     1      45.718   7.928  11.818  0.00  0.00    +0.000 OA
ATOM     24  H   UNL     1      48.186   5.953  11.616  0.00  0.00    +0.000 HD
BRANCH  22  25
ATOM     25  C   UNL     1      45.705   5.775  10.862  0.00  0.00    +0.000 A 
ATOM     26  C   UNL     1      45.830   5.596   9.491  0.00  0.00    +0.000 A 
ATOM     27  S   UNL     1      45.048   4.198   8.908  0.00  0.00    +0.000 S 
ATOM     28  C   UNL     1      44.478   3.803  10.462  0.00  0.00    +0.000 A 
ATOM     29  N   UNL     1      43.696   2.709  10.662  0.00  0.00    +0.000 NA
ATOM     30  C   UNL     1      43.310   2.543  11.884  0.00  0.00    +0.000 A 
ATOM     31  N   UNL     1      43.646   3.369  12.925  0.00  0.00    +0.000 N 
ATOM     32  C   UNL     1      44.476   4.454  12.779  0.00  0.00    +0.000 A 
ATOM     33  O   UNL     1      44.831   5.118  13.749  0.00  0.00    +0.000 OA
ATOM     34  C   UNL     1      44.906   4.709  11.418  0.00  0.00    +0.000 A 
ATOM     35  H   UNL     1      43.331   3.171  13.864  0.00  0.00    +0.000 HD
ENDBRANCH  22  25
ENDBRANCH  20  21
ENDBRANCH   4  20
TORSDOF 8
ENDMDL
MODEL 8
REMARK VINA RESULT:    -7.426      4.413      5.917
REMARK INTER + INTRA:         -11.555
REMARK INTER:                 -10.524
REMARK INTRA:                  -1.030
REMARK UNBOUND:                -0.873
REMARK  Name = 
REMARK  8 active torsions:
REMARK  status: ('A' for Active; 'I' for Inactive)
REMARK    1  A    between atoms: N_1  and  C_2
REMARK    2  A    between atoms: C_2  and  C_3
REMARK    3  A    between atoms: C_2  and  C_24
REMARK    4  A    between atoms: C_3  and  C_4
REMARK    5  A    between atoms: C_7  and  C_8
REMARK    6  A    between atoms: C_8  and  N_9
REMARK    7  A    between atoms: C_10  and  C_12
REMARK    8  A    between atoms: C_24  and  C_26
REMARK                            x       y       z     vdW  Elec       q    Type
REMARK                         _______ _______ _______ _____ _____    ______ ____
ROOT
ATOM      1  C   UNL     1      45.462   5.150  11.873  0.00  0.00    +0.000 A 
ATOM      2  C   UNL     1      46.402   5.005  12.894  0.00  0.00    +0.000 A 
ATOM      3  C   UNL     1      46.935   6.137  13.508  0.00  0.00    +0.000 A 
ATOM      4  C   UNL     1      46.538   7.394  13.063  0.00  0.00    +0.000 A 
ATOM      5  N   UNL     1      45.611   7.559  12.085  0.00  0.00    +0.000 NA
ATOM      6  C   UNL     1      45.090   6.444  11.529  0.00  0.00    +0.000 A 
ENDROOT
BRANCH   1   7
ATOM      7  C   UNL     1      44.886   3.957  11.158  0.00  0.00    +0.000 C 
BRANCH   7   8
ATOM      8  C   UNL     1      44.901   4.077   9.615  0.00  0.00    +0.000 C 
BRANCH   8   9
ATOM      9  N   UNL     1      43.659   4.657   9.066  0.00  0.00    +0.000 NA
ATOM     10  H   UNL     1      43.495   5.570   9.494  0.00  0.00    +0.000 HD
ATOM     11  H   UNL     1      42.868   4.071   9.347  0.00  0.00    +0.000 HD
ENDBRANCH   8   9
BRANCH   8  12
ATOM     12  C   UNL     1      45.085   2.677   9.011  0.00  0.00    +0.000 C 
ATOM     13  O   UNL     1      44.482   1.692   9.436  0.00  0.00    +0.000 OA
BRANCH  12  14
ATOM     14  C   UNL     1      46.025   2.498   7.877  0.00  0.00    +0.000 A 
ATOM     15  C   UNL     1      46.193   3.437   6.861  0.00  0.00    +0.000 A 
ATOM     16  C   UNL     1      47.089   3.169   5.826  0.00  0.00    +0.000 A 
ATOM     17  C   UNL     1      47.792   1.975   5.851  0.00  0.00    +0.000 A 
ATOM     18  N   UNL     1      47.654   1.047   6.822  0.00  0.00    +0.000 NA
ATOM     19  C   UNL     1      46.763   1.323   7.807  0.00  0.00    +0.000 A 
ENDBRANCH  12  14
ENDBRANCH   8  12
ENDBRANCH   7   8
ENDBRANCH   1   7
BRANCH   4  20
ATOM     20  C   UNL     1      47.132   8.640  13.671  0.00  0.00    +0.000 C 
BRANCH  20  21
ATOM     21  N   UNL     1      48.382   9.016  13.053  0.00  0.00    +0.000 N 
ATOM     22  C   UNL     1      48.453   9.921  12.030  0.00  0.00    +0.000 C 
ATOM     23  O   UNL     1      47.449  10.452  11.561  0.00  0.00    +0.000 OA
ATOM     24  H   UNL     1      49.181   8.425  13.270  0.00  0.00    +0.000 HD
BRANCH  22  25
ATOM     25  C   UNL     1      49.798  10.284  11.562  0.00  0.00    +0.000 A 
ATOM     26  C   UNL     1      50.131  11.623  11.418  0.00  0.00    +0.000 A 
ATOM     27  S   UNL     1      51.736  11.880  10.903  0.00  0.00    +0.000 S 
ATOM     28  C   UNL     1      52.031  10.206  10.814  0.00  0.00    +0.000 A 
ATOM     29  N   UNL     1      53.236   9.731  10.398  0.00  0.00    +0.000 NA
ATOM     30  C   UNL     1      53.314   8.442  10.350  0.00  0.00    +0.000 A 
ATOM     31  N   UNL     1      52.299   7.587  10.691  0.00  0.00    +0.000 N 
ATOM     32  C   UNL     1      51.086   8.022  11.167  0.00  0.00    +0.000 A 
ATOM     33  O   UNL     1      50.232   7.228  11.551  0.00  0.00    +0.000 OA
ATOM     34  C   UNL     1      50.930   9.462  11.203  0.00  0.00    +0.000 A 
ATOM     35  H   UNL     1      52.432   6.587  10.655  0.00  0.00    +0.000 HD
ENDBRANCH  22  25
ENDBRANCH  20  21
ENDBRANCH   4  20
TORSDOF 8
ENDMDL
MODEL 9
REMARK VINA RESULT:    -7.398      2.997      9.485
REMARK INTER + INTRA:         -11.514
REMARK INTER:                  -9.992
REMARK INTRA:                  -1.522
REMARK UNBOUND:                -0.873
REMARK  Name = 
REMARK  8 active torsions:
REMARK  status: ('A' for Active; 'I' for Inactive)
REMARK    1  A    between atoms: N_1  and  C_2
REMARK    2  A    between atoms: C_2  and  C_3
REMARK    3  A    between atoms: C_2  and  C_24
REMARK    4  A    between atoms: C_3  and  C_4
REMARK    5  A    between atoms: C_7  and  C_8
REMARK    6  A    between atoms: C_8  and  N_9
REMARK    7  A    between atoms: C_10  and  C_12
REMARK    8  A    between atoms: C_24  and  C_26
REMARK                            x       y       z     vdW  Elec       q    Type
REMARK                         _______ _______ _______ _____ _____    ______ ____
ROOT
ATOM      1  C   UNL     1      48.981   7.902  16.269  0.00  0.00    +0.000 A 
ATOM      2  C   UNL     1      48.268   8.951  15.688  0.00  0.00    +0.000 A 
ATOM      3  C   UNL     1      47.834   8.845  14.369  0.00  0.00    +0.000 A 
ATOM      4  C   UNL     1      48.152   7.699  13.646  0.00  0.00    +0.000 A 
ATOM      5  N   UNL     1      48.827   6.658  14.195  0.00  0.00    +0.000 NA
ATOM      6  C   UNL     1      49.209   6.777  15.485  0.00  0.00    +0.000 A 
ENDROOT
BRANCH   1   7
ATOM      7  C   UNL     1      49.500   7.987  17.679  0.00  0.00    +0.000 C 
BRANCH   7   8
ATOM      8  C   UNL     1      48.460   7.605  18.759  0.00  0.00    +0.000 C 
BRANCH   8   9
ATOM      9  N   UNL     1      48.414   8.559  19.885  0.00  0.00    +0.000 NA
ATOM     10  H   UNL     1      48.642   9.495  19.544  0.00  0.00    +0.000 HD
ATOM     11  H   UNL     1      49.151   8.319  20.553  0.00  0.00    +0.000 HD
ENDBRANCH   8   9
BRANCH   8  12
ATOM     12  C   UNL     1      48.815   6.219  19.319  0.00  0.00    +0.000 C 
ATOM     13  O   UNL     1      49.339   6.070  20.423  0.00  0.00    +0.000 OA
BRANCH  12  14
ATOM     14  C   UNL     1      48.522   5.014  18.506  0.00  0.00    +0.000 A 
ATOM     15  C   UNL     1      49.481   4.056  18.177  0.00  0.00    +0.000 A 
ATOM     16  C   UNL     1      49.113   2.965  17.390  0.00  0.00    +0.000 A 
ATOM     17  C   UNL     1      47.795   2.867  16.969  0.00  0.00    +0.000 A 
ATOM     18  N   UNL     1      46.844   3.775  17.273  0.00  0.00    +0.000 NA
ATOM     19  C   UNL     1      47.232   4.836  18.023  0.00  0.00    +0.000 A 
ENDBRANCH  12  14
ENDBRANCH   8  12
ENDBRANCH   7   8
ENDBRANCH   1   7
BRANCH   4  20
ATOM     20  C   UNL     1      47.741   7.572  12.200  0.00  0.00    +0.000 C 
BRANCH  20  21
ATOM     21  N   UNL     1      46.987   6.367  11.942  0.00  0.00    +0.000 N 
ATOM     22  C   UNL     1      45.623   6.321  12.035  0.00  0.00    +0.000 C 
ATOM     23  O   UNL     1      44.960   7.302  12.366  0.00  0.00    +0.000 OA
ATOM     24  H   UNL     1      47.526   5.507  11.895  0.00  0.00    +0.000 HD
BRANCH  22  25
ATOM     25  C   UNL     1      44.978   5.058  11.651  0.00  0.00    +0.000 A 
ATOM     26  C   UNL     1      44.212   4.372  12.582  0.00  0.00    +0.000 A 
ATOM     27  S   UNL     1      43.503   2.947  11.972  0.00  0.00    +0.000 S 
ATOM     28  C   UNL     1      44.230   3.173  10.450  0.00  0.00    +0.000 A 
ATOM     29  N   UNL     1      44.051   2.270   9.449  0.00  0.00    +0.000 NA
ATOM     30  C   UNL     1      44.682   2.549   8.358  0.00  0.00    +0.000 A 
ATOM     31  N   UNL     1      45.467   3.657   8.174  0.00  0.00    +0.000 N 
ATOM     32  C   UNL     1      45.633   4.622   9.138  0.00  0.00    +0.000 A 
ATOM     33  O   UNL     1      46.267   5.648   8.908  0.00  0.00    +0.000 OA
ATOM     34  C   UNL     1      44.977   4.337  10.399  0.00  0.00    +0.000 A 
ATOM     35  H   UNL     1      45.915   3.832   7.286  0.00  0.00    +0.000 HD
ENDBRANCH  22  25
ENDBRANCH  20  21
ENDBRANCH   4  20
TORSDOF 8
ENDMDL
