MODEL 1
REMARK VINA RESULT:    -8.130      0.000      0.000
REMARK INTER + INTRA:         -12.192
REMARK INTER:                 -11.457
REMARK INTRA:                  -0.735
REMARK UNBOUND:                -0.735
REMARK  Name = 
REMARK  7 active torsions:
REMARK  status: ('A' for Active; 'I' for Inactive)
REMARK    1  A    between atoms: C_2  and  C_3
REMARK    2  A    between atoms: C_2  and  C_19
REMARK    3  A    between atoms: C_3  and  C_4
REMARK    4  A    between atoms: C_4  and  C_5
REMARK    5  A    between atoms: C_8  and  C_9
REMARK    6  A    between atoms: C_9  and  S_10
REMARK    7  A    between atoms: S_10  and  C_11
REMARK                            x       y       z     vdW  Elec       q    Type
REMARK                         _______ _______ _______ _____ _____    ______ ____
ROOT
ATOM      1  C   UNL     1      46.805   4.935  14.703  0.00  0.00    +0.000 C 
ENDROOT
BRANCH   1   2
ATOM      2  C   UNL     1      46.156   4.789  13.350  0.00  0.00    +0.000 A 
ATOM      3  C   UNL     1      46.213   5.825  12.413  0.00  0.00    +0.000 A 
ATOM      4  C   UNL     1      45.667   5.662  11.138  0.00  0.00    +0.000 A 
ATOM      5  C   UNL     1      45.091   4.445  10.749  0.00  0.00    +0.000 A 
ATOM      6  C   UNL     1      45.011   3.417  11.704  0.00  0.00    +0.000 A 
ATOM      7  C   UNL     1      45.540   3.586  12.986  0.00  0.00    +0.000 A 
BRANCH   5   8
ATOM      8  C   UNL     1      44.488   4.224   9.377  0.00  0.00    +0.000 C 
BRANCH   8   9
ATOM      9  S   UNL     1      44.466   2.480   8.838  0.00  0.00    +0.000 S 
BRANCH   9  10
ATOM     10  C   UNL     1      45.860   2.468   7.736  0.00  0.00    +0.000 A 
ATOM     11  C   UNL     1      46.713   1.368   7.704  0.00  0.00    +0.000 A 
ATOM     12  N   UNL     1      47.782   1.282   6.871  0.00  0.00    +0.000 NA
ATOM     13  C   UNL     1      47.964   2.347   6.063  0.00  0.00    +0.000 A 
ATOM     14  C   UNL     1      47.125   3.447   6.090  0.00  0.00    +0.000 A 
ATOM     15  N   UNL     1      46.062   3.533   6.924  0.00  0.00    +0.000 NA
ENDBRANCH   9  10
ENDBRANCH   8   9
ENDBRANCH   5   8
ENDBRANCH   1   2
BRANCH   1  16
ATOM     16  C   UNL     1      47.469   3.654  15.211  0.00  0.00    +0.000 C 
BRANCH  16  18
ATOM     17  O   UNL     1      46.617   3.248  17.417  0.00  0.00    +0.000 OA
ATOM     18  C   UNL     1      47.550   3.661  16.730  0.00  0.00    +0.000 C 
BRANCH  18  19
ATOM     19  C   UNL     1      48.744   4.227  17.368  0.00  0.00    +0.000 A 
ATOM     20  C   UNL     1      48.792   5.495  17.920  0.00  0.00    +0.000 A 
ATOM     21  S   UNL     1      50.263   5.811  18.734  0.00  0.00    +0.000 S 
ATOM     22  C   UNL     1      50.883   4.276  18.337  0.00  0.00    +0.000 A 
ATOM     23  N   UNL     1      52.117   3.881  18.754  0.00  0.00    +0.000 NA
ATOM     24  C   UNL     1      52.442   2.688  18.382  0.00  0.00    +0.000 A 
ATOM     25  N   UNL     1      51.659   1.861  17.619  0.00  0.00    +0.000 N 
ATOM     26  C   UNL     1      50.454   2.258  17.080  0.00  0.00    +0.000 A 
ATOM     27  O   UNL     1      49.901   1.591  16.218  0.00  0.00    +0.000 OA
ATOM     28  C   UNL     1      49.997   3.549  17.564  0.00  0.00    +0.000 A 
ATOM     29  H   UNL     1      52.006   0.971  17.296  0.00  0.00    +0.000 HD
ENDBRANCH  18  19
ENDBRANCH  16  18
ENDBRANCH   1  16
TORSDOF 7
ENDMDL
MODEL 2
REMARK VINA RESULT:    -6.977      1.669      2.295
REMARK INTER + INTRA:         -10.568
REMARK INTER:                  -9.875
REMARK INTRA:                  -0.693
REMARK UNBOUND:                -0.735
REMARK  Name = 
REMARK  7 active torsions:
REMARK  status: ('A' for Active; 'I' for Inactive)
REMARK    1  A    between atoms: C_2  and  C_3
REMARK    2  A    between atoms: C_2  and  C_19
REMARK    3  A    between atoms: C_3  and  C_4
REMARK    4  A    between atoms: C_4  and  C_5
REMARK    5  A    between atoms: C_8  and  C_9
REMARK    6  A    between atoms: C_9  and  S_10
REMARK    7  A    between atoms: S_10  and  C_11
REMARK                            x       y       z     vdW  Elec       q    Type
REMARK                         _______ _______ _______ _____ _____    ______ ____
ROOT
ATOM      1  C   UNL     1      48.201   5.352  15.358  0.00  0.00    +0.000 C 
ENDROOT
BRANCH   1   2
ATOM      2  C   UNL     1      47.362   5.528  14.118  0.00  0.00    +0.000 A 
ATOM      3  C   UNL     1      47.662   6.525  13.186  0.00  0.00    +0.000 A 
ATOM      4  C   UNL     1      46.922   6.643  12.007  0.00  0.00    +0.000 A 
ATOM      5  C   UNL     1      45.893   5.739  11.706  0.00  0.00    +0.000 A 
ATOM      6  C   UNL     1      45.577   4.758  12.660  0.00  0.00    +0.000 A 
ATOM      7  C   UNL     1      46.304   4.651  13.848  0.00  0.00    +0.000 A 
BRANCH   5   8
ATOM      8  C   UNL     1      45.067   5.829  10.440  0.00  0.00    +0.000 C 
BRANCH   8   9
ATOM      9  S   UNL     1      44.102   4.326  10.064  0.00  0.00    +0.000 S 
BRANCH   9  10
ATOM     10  C   UNL     1      45.209   3.509   8.939  0.00  0.00    +0.000 A 
ATOM     11  C   UNL     1      45.387   2.130   9.015  0.00  0.00    +0.000 A 
ATOM     12  N   UNL     1      46.198   1.438   8.174  0.00  0.00    +0.000 NA
ATOM     13  C   UNL     1      46.827   2.186   7.244  0.00  0.00    +0.000 A 
ATOM     14  C   UNL     1      46.661   3.557   7.162  0.00  0.00    +0.000 A 
ATOM     15  N   UNL     1      45.855   4.246   8.004  0.00  0.00    +0.000 NA
ENDBRANCH   9  10
ENDBRANCH   8   9
ENDBRANCH   5   8
ENDBRANCH   1   2
BRANCH   1  16
ATOM     16  C   UNL     1      47.383   5.142  16.633  0.00  0.00    +0.000 C 
BRANCH  16  18
ATOM     17  O   UNL     1      46.570   3.019  17.399  0.00  0.00    +0.000 OA
ATOM     18  C   UNL     1      47.548   3.719  17.145  0.00  0.00    +0.000 C 
BRANCH  18  19
ATOM     19  C   UNL     1      48.904   3.212  17.388  0.00  0.00    +0.000 A 
ATOM     20  C   UNL     1      49.415   2.071  16.796  0.00  0.00    +0.000 A 
ATOM     21  S   UNL     1      51.072   1.826  17.145  0.00  0.00    +0.000 S 
ATOM     22  C   UNL     1      51.135   3.219  18.122  0.00  0.00    +0.000 A 
ATOM     23  N   UNL     1      52.292   3.610  18.723  0.00  0.00    +0.000 NA
ATOM     24  C   UNL     1      52.183   4.690  19.422  0.00  0.00    +0.000 A 
ATOM     25  N   UNL     1      51.025   5.404  19.592  0.00  0.00    +0.000 N 
ATOM     26  C   UNL     1      49.808   4.986  19.097  0.00  0.00    +0.000 A 
ATOM     27  O   UNL     1      48.767   5.511  19.465  0.00  0.00    +0.000 OA
ATOM     28  C   UNL     1      49.903   3.839  18.211  0.00  0.00    +0.000 A 
ATOM     29  H   UNL     1      50.991   6.194  20.217  0.00  0.00    +0.000 HD
ENDBRANCH  18  19
ENDBRANCH  16  18
ENDBRANCH   1  16
TORSDOF 7
ENDMDL
MODEL 3
REMARK VINA RESULT:    -6.972      2.657      3.706
REMARK INTER + INTRA:         -10.561
REMARK INTER:                  -9.315
REMARK INTRA:                  -1.245
REMARK UNBOUND:                -0.735
REMARK  Name = 
REMARK  7 active torsions:
REMARK  status: ('A' for Active; 'I' for Inactive)
REMARK    1  A    between atoms: C_2  and  C_3
REMARK    2  A    between atoms: C_2  and  C_19
REMARK    3  A    between atoms: C_3  and  C_4
REMARK    4  A    between atoms: C_4  and  C_5
REMARK    5  A    between atoms: C_8  and  C_9
REMARK    6  A    between atoms: C_9  and  S_10
REMARK    7  A    between atoms: S_10  and  C_11
REMARK                            x       y       z     vdW  Elec       q    Type
REMARK                         _______ _______ _______ _____ _____    ______ ____
ROOT
ATOM      1  C   UNL     1      49.210   8.683  13.864  0.00  0.00    +0.000 C 
ENDROOT
BRANCH   1   2
ATOM      2  C   UNL     1      48.007   8.117  13.153  0.00  0.00    +0.000 A 
ATOM      3  C   UNL     1      48.148   7.087  12.218  0.00  0.00    +0.000 A 
ATOM      4  C   UNL     1      47.026   6.520  11.609  0.00  0.00    +0.000 A 
ATOM      5  C   UNL     1      45.731   6.935  11.952  0.00  0.00    +0.000 A 
ATOM      6  C   UNL     1      45.598   7.990  12.870  0.00  0.00    +0.000 A 
ATOM      7  C   UNL     1      46.720   8.570  13.466  0.00  0.00    +0.000 A 
BRANCH   5   8
ATOM      8  C   UNL     1      44.487   6.347  11.317  0.00  0.00    +0.000 C 
BRANCH   8   9
ATOM      9  S   UNL     1      44.243   4.569  11.650  0.00  0.00    +0.000 S 
BRANCH   9  10
ATOM     10  C   UNL     1      44.829   3.876  10.123  0.00  0.00    +0.000 A 
ATOM     11  C   UNL     1      45.255   4.713   9.096  0.00  0.00    +0.000 A 
ATOM     12  N   UNL     1      45.736   4.253   7.912  0.00  0.00    +0.000 NA
ATOM     13  C   UNL     1      45.778   2.909   7.797  0.00  0.00    +0.000 A 
ATOM     14  C   UNL     1      45.353   2.067   8.810  0.00  0.00    +0.000 A 
ATOM     15  N   UNL     1      44.870   2.529   9.988  0.00  0.00    +0.000 NA
ENDBRANCH   9  10
ENDBRANCH   8   9
ENDBRANCH   5   8
ENDBRANCH   1   2
BRANCH   1  16
ATOM     16  C   UNL     1      49.943   7.667  14.741  0.00  0.00    +0.000 C 
BRANCH  16  18
ATOM     17  O   UNL     1      48.566   8.462  16.539  0.00  0.00    +0.000 OA
ATOM     18  C   UNL     1      49.272   7.554  16.102  0.00  0.00    +0.000 C 
BRANCH  18  19
ATOM     19  C   UNL     1      49.529   6.360  16.915  0.00  0.00    +0.000 A 
ATOM     20  C   UNL     1      50.560   6.263  17.832  0.00  0.00    +0.000 A 
ATOM     21  S   UNL     1      50.506   4.815  18.744  0.00  0.00    +0.000 S 
ATOM     22  C   UNL     1      49.126   4.271  17.910  0.00  0.00    +0.000 A 
ATOM     23  N   UNL     1      48.535   3.083  18.218  0.00  0.00    +0.000 NA
ATOM     24  C   UNL     1      47.492   2.813  17.507  0.00  0.00    +0.000 A 
ATOM     25  N   UNL     1      46.996   3.607  16.505  0.00  0.00    +0.000 N 
ATOM     26  C   UNL     1      47.624   4.759  16.082  0.00  0.00    +0.000 A 
ATOM     27  O   UNL     1      47.293   5.309  15.041  0.00  0.00    +0.000 OA
ATOM     28  C   UNL     1      48.735   5.161  16.927  0.00  0.00    +0.000 A 
ATOM     29  H   UNL     1      46.225   3.299  15.933  0.00  0.00    +0.000 HD
ENDBRANCH  18  19
ENDBRANCH  16  18
ENDBRANCH   1  16
TORSDOF 7
ENDMDL
MODEL 4
REMARK VINA RESULT:    -6.919      3.252      8.981
REMARK INTER + INTRA:         -10.486
REMARK INTER:                  -9.393
REMARK INTRA:                  -1.092
REMARK UNBOUND:                -0.735
REMARK  Name = 
REMARK  7 active torsions:
REMARK  status: ('A' for Active; 'I' for Inactive)
REMARK    1  A    between atoms: C_2  and  C_3
REMARK    2  A    between atoms: C_2  and  C_19
REMARK    3  A    between atoms: C_3  and  C_4
REMARK    4  A    between atoms: C_4  and  C_5
REMARK    5  A    between atoms: C_8  and  C_9
REMARK    6  A    between atoms: C_9  and  S_10
REMARK    7  A    between atoms: S_10  and  C_11
REMARK                            x       y       z     vdW  Elec       q    Type
REMARK                         _______ _______ _______ _____ _____    ______ ____
ROOT
ATOM      1  C   UNL     1      47.981   8.236  12.276  0.00  0.00    +0.000 C 
ENDROOT
BRANCH   1   2
ATOM      2  C   UNL     1      48.473   8.112  13.696  0.00  0.00    +0.000 A 
ATOM      3  C   UNL     1      47.932   8.906  14.713  0.00  0.00    +0.000 A 
ATOM      4  C   UNL     1      48.344   8.743  16.037  0.00  0.00    +0.000 A 
ATOM      5  C   UNL     1      49.272   7.753  16.389  0.00  0.00    +0.000 A 
ATOM      6  C   UNL     1      49.833   6.978  15.359  0.00  0.00    +0.000 A 
ATOM      7  C   UNL     1      49.436   7.153  14.031  0.00  0.00    +0.000 A 
BRANCH   5   8
ATOM      8  C   UNL     1      49.745   7.540  17.812  0.00  0.00    +0.000 C 
BRANCH   8   9
ATOM      9  S   UNL     1      48.491   6.811  18.920  0.00  0.00    +0.000 S 
BRANCH   9  10
ATOM     10  C   UNL     1      48.329   5.195  18.199  0.00  0.00    +0.000 A 
ATOM     11  C   UNL     1      47.071   4.710  17.853  0.00  0.00    +0.000 A 
ATOM     12  N   UNL     1      46.875   3.495  17.278  0.00  0.00    +0.000 NA
ATOM     13  C   UNL     1      47.999   2.781  17.056  0.00  0.00    +0.000 A 
ATOM     14  C   UNL     1      49.253   3.253  17.400  0.00  0.00    +0.000 A 
ATOM     15  N   UNL     1      49.446   4.462  17.976  0.00  0.00    +0.000 NA
ENDBRANCH   9  10
ENDBRANCH   8   9
ENDBRANCH   5   8
ENDBRANCH   1   2
BRANCH   1  16
ATOM     16  C   UNL     1      47.559   6.906  11.651  0.00  0.00    +0.000 C 
BRANCH  16  18
ATOM     17  O   UNL     1      45.356   7.858  11.665  0.00  0.00    +0.000 OA
ATOM     18  C   UNL     1      46.073   6.918  11.325  0.00  0.00    +0.000 C 
BRANCH  18  19
ATOM     19  C   UNL     1      45.493   5.754  10.646  0.00  0.00    +0.000 A 
ATOM     20  C   UNL     1      45.702   5.461   9.310  0.00  0.00    +0.000 A 
ATOM     21  S   UNL     1      45.033   3.955   8.846  0.00  0.00    +0.000 S 
ATOM     22  C   UNL     1      44.419   3.678  10.409  0.00  0.00    +0.000 A 
ATOM     23  N   UNL     1      43.742   2.536  10.712  0.00  0.00    +0.000 NA
ATOM     24  C   UNL     1      43.348   2.466  11.939  0.00  0.00    +0.000 A 
ATOM     25  N   UNL     1      43.549   3.438  12.887  0.00  0.00    +0.000 N 
ATOM     26  C   UNL     1      44.127   4.656  12.599  0.00  0.00    +0.000 A 
ATOM     27  O   UNL     1      44.075   5.580  13.398  0.00  0.00    +0.000 OA
ATOM     28  C   UNL     1      44.687   4.734  11.261  0.00  0.00    +0.000 A 
ATOM     29  H   UNL     1      43.145   3.356  13.806  0.00  0.00    +0.000 HD
ENDBRANCH  18  19
ENDBRANCH  16  18
ENDBRANCH   1  16
TORSDOF 7
ENDMDL
MODEL 5
REMARK VINA RESULT:    -6.880      2.317      3.030
REMARK INTER + INTRA:         -10.430
REMARK INTER:                  -9.508
REMARK INTRA:                  -0.922
REMARK UNBOUND:                -0.735
REMARK  Name = 
REMARK  7 active torsions:
REMARK  status: ('A' for Active; 'I' for Inactive)
REMARK    1  A    between atoms: C_2  and  C_3
REMARK    2  A    between atoms: C_2  and  C_19
REMARK    3  A    between atoms: C_3  and  C_4
REMARK    4  A    between atoms: C_4  and  C_5
REMARK    5  A    between atoms: C_8  and  C_9
REMARK    6  A    between atoms: C_9  and  S_10
REMARK    7  A    between atoms: S_10  and  C_11
REMARK                            x       y       z     vdW  Elec       q    Type
REMARK                         _______ _______ _______ _____ _____    ______ ____
ROOT
ATOM      1  C   UNL     1      48.505   6.784  13.721  0.00  0.00    +0.000 C 
ENDROOT
BRANCH   1   2
ATOM      2  C   UNL     1      47.381   6.191  12.911  0.00  0.00    +0.000 A 
ATOM      3  C   UNL     1      46.770   4.996  13.301  0.00  0.00    +0.000 A 
ATOM      4  C   UNL     1      45.687   4.483  12.584  0.00  0.00    +0.000 A 
ATOM      5  C   UNL     1      45.155   5.174  11.486  0.00  0.00    +0.000 A 
ATOM      6  C   UNL     1      45.792   6.359  11.081  0.00  0.00    +0.000 A 
ATOM      7  C   UNL     1      46.888   6.863  11.786  0.00  0.00    +0.000 A 
BRANCH   5   8
ATOM      8  C   UNL     1      43.981   4.655  10.681  0.00  0.00    +0.000 C 
BRANCH   8   9
ATOM      9  S   UNL     1      44.008   2.853  10.390  0.00  0.00    +0.000 S 
BRANCH   9  10
ATOM     10  C   UNL     1      45.120   2.770   9.007  0.00  0.00    +0.000 A 
ATOM     11  C   UNL     1      45.311   3.887   8.199  0.00  0.00    +0.000 A 
ATOM     12  N   UNL     1      46.162   3.901   7.141  0.00  0.00    +0.000 NA
ATOM     13  C   UNL     1      46.823   2.745   6.924  0.00  0.00    +0.000 A 
ATOM     14  C   UNL     1      46.637   1.628   7.718  0.00  0.00    +0.000 A 
ATOM     15  N   UNL     1      45.786   1.614   8.771  0.00  0.00    +0.000 NA
ENDBRANCH   9  10
ENDBRANCH   8   9
ENDBRANCH   5   8
ENDBRANCH   1   2
BRANCH   1  16
ATOM     16  C   UNL     1      48.146   8.107  14.399  0.00  0.00    +0.000 C 
BRANCH  16  18
ATOM     17  O   UNL     1      48.173   8.812  16.693  0.00  0.00    +0.000 OA
ATOM     18  C   UNL     1      48.722   8.159  15.807  0.00  0.00    +0.000 C 
BRANCH  18  19
ATOM     19  C   UNL     1      49.983   7.460  16.077  0.00  0.00    +0.000 A 
ATOM     20  C   UNL     1      51.230   7.991  15.801  0.00  0.00    +0.000 A 
ATOM     21  S   UNL     1      52.512   7.014  16.376  0.00  0.00    +0.000 S 
ATOM     22  C   UNL     1      51.431   5.843  16.974  0.00  0.00    +0.000 A 
ATOM     23  N   UNL     1      51.879   4.730  17.619  0.00  0.00    +0.000 NA
ATOM     24  C   UNL     1      50.940   3.942  18.023  0.00  0.00    +0.000 A 
ATOM     25  N   UNL     1      49.598   4.150  17.827  0.00  0.00    +0.000 N 
ATOM     26  C   UNL     1      49.105   5.201  17.083  0.00  0.00    +0.000 A 
ATOM     27  O   UNL     1      47.935   5.225  16.728  0.00  0.00    +0.000 OA
ATOM     28  C   UNL     1      50.116   6.173  16.706  0.00  0.00    +0.000 A 
ATOM     29  H   UNL     1      48.921   3.454  18.097  0.00  0.00    +0.000 HD
ENDBRANCH  18  19
ENDBRANCH  16  18
ENDBRANCH   1  16
TORSDOF 7
ENDMDL
MODEL 6
REMARK VINA RESULT:    -6.828      2.831      3.635
REMARK INTER + INTRA:         -10.357
REMARK INTER:                  -9.465
REMARK INTRA:                  -0.892
REMARK UNBOUND:                -0.735
REMARK  Name = 
REMARK  7 active torsions:
REMARK  status: ('A' for Active; 'I' for Inactive)
REMARK    1  A    between atoms: C_2  and  C_3
REMARK    2  A    between atoms: C_2  and  C_19
REMARK    3  A    between atoms: C_3  and  C_4
REMARK    4  A    between atoms: C_4  and  C_5
REMARK    5  A    between atoms: C_8  and  C_9
REMARK    6  A    between atoms: C_9  and  S_10
REMARK    7  A    between atoms: S_10  and  C_11
REMARK                            x       y       z     vdW  Elec       q    Type
REMARK                         _______ _______ _______ _____ _____    ______ ____
ROOT
ATOM      1  C   UNL     1      47.750   7.893  13.794  0.00  0.00    +0.000 C 
ENDROOT
BRANCH   1   2
ATOM      2  C   UNL     1      46.694   7.144  13.022  0.00  0.00    +0.000 A 
ATOM      3  C   UNL     1      45.662   7.827  12.373  0.00  0.00    +0.000 A 
ATOM      4  C   UNL     1      44.722   7.135  11.604  0.00  0.00    +0.000 A 
ATOM      5  C   UNL     1      44.817   5.748  11.425  0.00  0.00    +0.000 A 
ATOM      6  C   UNL     1      45.839   5.063  12.103  0.00  0.00    +0.000 A 
ATOM      7  C   UNL     1      46.768   5.752  12.887  0.00  0.00    +0.000 A 
BRANCH   5   8
ATOM      8  C   UNL     1      43.822   4.958  10.600  0.00  0.00    +0.000 C 
BRANCH   8   9
ATOM      9  S   UNL     1      44.081   3.152  10.639  0.00  0.00    +0.000 S 
BRANCH   9  10
ATOM     10  C   UNL     1      45.111   2.946   9.205  0.00  0.00    +0.000 A 
ATOM     11  C   UNL     1      45.367   4.031   8.371  0.00  0.00    +0.000 A 
ATOM     12  N   UNL     1      46.162   3.952   7.273  0.00  0.00    +0.000 NA
ATOM     13  C   UNL     1      46.699   2.735   7.043  0.00  0.00    +0.000 A 
ATOM     14  C   UNL     1      46.447   1.650   7.863  0.00  0.00    +0.000 A 
ATOM     15  N   UNL     1      45.651   1.730   8.955  0.00  0.00    +0.000 NA
ENDBRANCH   9  10
ENDBRANCH   8   9
ENDBRANCH   5   8
ENDBRANCH   1   2
BRANCH   1  16
ATOM     16  C   UNL     1      49.078   7.144  13.910  0.00  0.00    +0.000 C 
BRANCH  16  18
ATOM     17  O   UNL     1      51.137   7.883  14.896  0.00  0.00    +0.000 OA
ATOM     18  C   UNL     1      49.924   7.728  15.031  0.00  0.00    +0.000 C 
BRANCH  18  19
ATOM     19  C   UNL     1      49.275   8.052  16.307  0.00  0.00    +0.000 A 
ATOM     20  C   UNL     1      48.981   9.341  16.714  0.00  0.00    +0.000 A 
ATOM     21  S   UNL     1      48.079   9.391  18.167  0.00  0.00    +0.000 S 
ATOM     22  C   UNL     1      48.090   7.694  18.303  0.00  0.00    +0.000 A 
ATOM     23  N   UNL     1      47.462   7.062  19.333  0.00  0.00    +0.000 NA
ATOM     24  C   UNL     1      47.551   5.775  19.294  0.00  0.00    +0.000 A 
ATOM     25  N   UNL     1      48.223   5.061  18.334  0.00  0.00    +0.000 N 
ATOM     26  C   UNL     1      48.966   5.660  17.340  0.00  0.00    +0.000 A 
ATOM     27  O   UNL     1      49.739   5.006  16.654  0.00  0.00    +0.000 OA
ATOM     28  C   UNL     1      48.803   7.102  17.278  0.00  0.00    +0.000 A 
ATOM     29  H   UNL     1      48.321   4.060  18.407  0.00  0.00    +0.000 HD
ENDBRANCH  18  19
ENDBRANCH  16  18
ENDBRANCH   1  16
TORSDOF 7
ENDMDL
MODEL 7
REMARK VINA RESULT:    -6.824      2.876      3.886
REMARK INTER + INTRA:         -10.352
REMARK INTER:                  -9.306
REMARK INTRA:                  -1.047
REMARK UNBOUND:                -0.735
REMARK  Name = 
REMARK  7 active torsions:
REMARK  status: ('A' for Active; 'I' for Inactive)
REMARK    1  A    between atoms: C_2  and  C_3
REMARK    2  A    between atoms: C_2  and  C_19
REMARK    3  A    between atoms: C_3  and  C_4
REMARK    4  A    between atoms: C_4  and  C_5
REMARK    5  A    between atoms: C_8  and  C_9
REMARK    6  A    between atoms: C_9  and  S_10
REMARK    7  A    between atoms: S_10  and  C_11
REMARK                            x       y       z     vdW  Elec       q    Type
REMARK                         _______ _______ _______ _____ _____    ______ ____
ROOT
ATOM      1  C   UNL     1      48.838   7.066  13.914  0.00  0.00    +0.000 C 
ENDROOT
BRANCH   1   2
ATOM      2  C   UNL     1      47.661   6.306  13.357  0.00  0.00    +0.000 A 
ATOM      3  C   UNL     1      47.071   6.685  12.148  0.00  0.00    +0.000 A 
ATOM      4  C   UNL     1      46.023   5.941  11.602  0.00  0.00    +0.000 A 
ATOM      5  C   UNL     1      45.566   4.772  12.227  0.00  0.00    +0.000 A 
ATOM      6  C   UNL     1      46.143   4.412  13.457  0.00  0.00    +0.000 A 
ATOM      7  C   UNL     1      47.179   5.167  14.012  0.00  0.00    +0.000 A 
BRANCH   5   8
ATOM      8  C   UNL     1      44.434   3.933  11.671  0.00  0.00    +0.000 C 
BRANCH   8   9
ATOM      9  S   UNL     1      43.869   4.441  10.011  0.00  0.00    +0.000 S 
BRANCH   9  10
ATOM     10  C   UNL     1      45.006   3.530   8.994  0.00  0.00    +0.000 A 
ATOM     11  C   UNL     1      45.213   2.173   9.225  0.00  0.00    +0.000 A 
ATOM     12  N   UNL     1      46.048   1.410   8.474  0.00  0.00    +0.000 NA
ATOM     13  C   UNL     1      46.671   2.064   7.471  0.00  0.00    +0.000 A 
ATOM     14  C   UNL     1      46.476   3.414   7.236  0.00  0.00    +0.000 A 
ATOM     15  N   UNL     1      45.646   4.173   7.988  0.00  0.00    +0.000 NA
ENDBRANCH   9  10
ENDBRANCH   8   9
ENDBRANCH   5   8
ENDBRANCH   1   2
BRANCH   1  16
ATOM     16  C   UNL     1      48.499   7.922  15.135  0.00  0.00    +0.000 C 
BRANCH  16  18
ATOM     17  O   UNL     1      50.531   8.141  16.391  0.00  0.00    +0.000 OA
ATOM     18  C   UNL     1      49.433   7.597  16.291  0.00  0.00    +0.000 C 
BRANCH  18  19
ATOM     19  C   UNL     1      49.023   6.574  17.259  0.00  0.00    +0.000 A 
ATOM     20  C   UNL     1      49.262   5.221  17.095  0.00  0.00    +0.000 A 
ATOM     21  S   UNL     1      48.816   4.295  18.463  0.00  0.00    +0.000 S 
ATOM     22  C   UNL     1      48.260   5.675  19.291  0.00  0.00    +0.000 A 
ATOM     23  N   UNL     1      47.760   5.589  20.554  0.00  0.00    +0.000 NA
ATOM     24  C   UNL     1      47.390   6.721  21.053  0.00  0.00    +0.000 A 
ATOM     25  N   UNL     1      47.455   7.926  20.401  0.00  0.00    +0.000 N 
ATOM     26  C   UNL     1      47.847   8.046  19.085  0.00  0.00    +0.000 A 
ATOM     27  O   UNL     1      47.667   9.086  18.468  0.00  0.00    +0.000 OA
ATOM     28  C   UNL     1      48.379   6.817  18.522  0.00  0.00    +0.000 A 
ATOM     29  H   UNL     1      47.074   8.761  20.818  0.00  0.00    +0.000 HD
ENDBRANCH  18  19
ENDBRANCH  16  18
ENDBRANCH   1  16
TORSDOF 7
ENDMDL
MODEL 8
REMARK VINA RESULT:    -6.648      3.425     10.101
REMARK INTER + INTRA:         -10.104
REMARK INTER:                  -9.057
REMARK INTRA:                  -1.047
REMARK UNBOUND:                -0.735
REMARK  Name = 
REMARK  7 active torsions:
REMARK  status: ('A' for Active; 'I' for Inactive)
REMARK    1  A    between atoms: C_2  and  C_3
REMARK    2  A    between atoms: C_2  and  C_19
REMARK    3  A    between atoms: C_3  and  C_4
REMARK    4  A    between atoms: C_4  and  C_5
REMARK    5  A    between atoms: C_8  and  C_9
REMARK    6  A    between atoms: C_9  and  S_10
REMARK    7  A    between atoms: S_10  and  C_11
REMARK                            x       y       z     vdW  Elec       q    Type
REMARK                         _______ _______ _______ _____ _____    ______ ____
ROOT
ATOM      1  C   UNL     1      47.148   6.200  12.648  0.00  0.00    +0.000 C 
ENDROOT
BRANCH   1   2
ATOM      2  C   UNL     1      47.505   5.777  14.050  0.00  0.00    +0.000 A 
ATOM      3  C   UNL     1      46.991   4.595  14.593  0.00  0.00    +0.000 A 
ATOM      4  C   UNL     1      47.374   4.172  15.868  0.00  0.00    +0.000 A 
ATOM      5  C   UNL     1      48.316   4.893  16.616  0.00  0.00    +0.000 A 
ATOM      6  C   UNL     1      48.806   6.094  16.077  0.00  0.00    +0.000 A 
ATOM      7  C   UNL     1      48.409   6.528  14.809  0.00  0.00    +0.000 A 
BRANCH   5   8
ATOM      8  C   UNL     1      48.761   4.471  18.001  0.00  0.00    +0.000 C 
BRANCH   8   9
ATOM      9  S   UNL     1      49.951   5.610  18.787  0.00  0.00    +0.000 S 
BRANCH   9  10
ATOM     10  C   UNL     1      48.923   6.323  20.049  0.00  0.00    +0.000 A 
ATOM     11  C   UNL     1      49.072   7.664  20.393  0.00  0.00    +0.000 A 
ATOM     12  N   UNL     1      48.306   8.280  21.330  0.00  0.00    +0.000 NA
ATOM     13  C   UNL     1      47.375   7.496  21.913  0.00  0.00    +0.000 A 
ATOM     14  C   UNL     1      47.222   6.161  21.582  0.00  0.00    +0.000 A 
ATOM     15  N   UNL     1      47.989   5.548  20.649  0.00  0.00    +0.000 NA
ENDBRANCH   9  10
ENDBRANCH   8   9
ENDBRANCH   5   8
ENDBRANCH   1   2
BRANCH   1  16
ATOM     16  C   UNL     1      46.081   7.294  12.586  0.00  0.00    +0.000 C 
BRANCH  16  18
ATOM     17  O   UNL     1      44.268   7.683  11.064  0.00  0.00    +0.000 OA
ATOM     18  C   UNL     1      44.923   6.860  11.701  0.00  0.00    +0.000 C 
BRANCH  18  19
ATOM     19  C   UNL     1      44.559   5.439  11.666  0.00  0.00    +0.000 A 
ATOM     20  C   UNL     1      43.936   4.779  12.711  0.00  0.00    +0.000 A 
ATOM     21  S   UNL     1      43.491   3.175  12.315  0.00  0.00    +0.000 S 
ATOM     22  C   UNL     1      44.152   3.314  10.752  0.00  0.00    +0.000 A 
ATOM     23  N   UNL     1      44.089   2.285   9.863  0.00  0.00    +0.000 NA
ATOM     24  C   UNL     1      44.625   2.545   8.717  0.00  0.00    +0.000 A 
ATOM     25  N   UNL     1      45.233   3.728   8.383  0.00  0.00    +0.000 N 
ATOM     26  C   UNL     1      45.421   4.754   9.285  0.00  0.00    +0.000 A 
ATOM     27  O   UNL     1      46.169   5.686   9.028  0.00  0.00    +0.000 OA
ATOM     28  C   UNL     1      44.736   4.551  10.549  0.00  0.00    +0.000 A 
ATOM     29  H   UNL     1      45.703   3.837   7.498  0.00  0.00    +0.000 HD
ENDBRANCH  18  19
ENDBRANCH  16  18
ENDBRANCH   1  16
TORSDOF 7
ENDMDL
MODEL 9
REMARK VINA RESULT:    -6.597      4.069      8.747
REMARK INTER + INTRA:         -10.032
REMARK INTER:                  -8.599
REMARK INTRA:                  -1.434
REMARK UNBOUND:                -0.735
REMARK  Name = 
REMARK  7 active torsions:
REMARK  status: ('A' for Active; 'I' for Inactive)
REMARK    1  A    between atoms: C_2  and  C_3
REMARK    2  A    between atoms: C_2  and  C_19
REMARK    3  A    between atoms: C_3  and  C_4
REMARK    4  A    between atoms: C_4  and  C_5
REMARK    5  A    between atoms: C_8  and  C_9
REMARK    6  A    between atoms: C_9  and  S_10
REMARK    7  A    between atoms: S_10  and  C_11
REMARK                            x       y       z     vdW  Elec       q    Type
REMARK                         _______ _______ _______ _____ _____    ______ ____
ROOT
ATOM      1  C   UNL     1      48.517   9.264  13.012  0.00  0.00    +0.000 C 
ENDROOT
BRANCH   1   2
ATOM      2  C   UNL     1      48.950   8.644  14.316  0.00  0.00    +0.000 A 
ATOM      3  C   UNL     1      50.008   7.731  14.358  0.00  0.00    +0.000 A 
ATOM      4  C   UNL     1      50.449   7.207  15.575  0.00  0.00    +0.000 A 
ATOM      5  C   UNL     1      49.875   7.616  16.787  0.00  0.00    +0.000 A 
ATOM      6  C   UNL     1      48.793   8.511  16.736  0.00  0.00    +0.000 A 
ATOM      7  C   UNL     1      48.339   9.021  15.517  0.00  0.00    +0.000 A 
BRANCH   5   8
ATOM      8  C   UNL     1      50.322   7.076  18.130  0.00  0.00    +0.000 C 
BRANCH   8   9
ATOM      9  S   UNL     1      48.959   6.490  19.194  0.00  0.00    +0.000 S 
BRANCH   9  10
ATOM     10  C   UNL     1      48.535   4.976  18.365  0.00  0.00    +0.000 A 
ATOM     11  C   UNL     1      47.218   4.736  17.985  0.00  0.00    +0.000 A 
ATOM     12  N   UNL     1      46.827   3.614  17.328  0.00  0.00    +0.000 NA
ATOM     13  C   UNL     1      47.815   2.734  17.062  0.00  0.00    +0.000 A 
ATOM     14  C   UNL     1      49.127   2.961  17.440  0.00  0.00    +0.000 A 
ATOM     15  N   UNL     1      49.514   4.079  18.098  0.00  0.00    +0.000 NA
ENDBRANCH   9  10
ENDBRANCH   8   9
ENDBRANCH   5   8
ENDBRANCH   1   2
BRANCH   1  16
ATOM     16  C   UNL     1      47.785   8.297  12.081  0.00  0.00    +0.000 C 
BRANCH  16  18
ATOM     17  O   UNL     1      45.689   8.510  13.229  0.00  0.00    +0.000 OA
ATOM     18  C   UNL     1      46.534   7.753  12.753  0.00  0.00    +0.000 C 
BRANCH  18  19
ATOM     19  C   UNL     1      46.379   6.300  12.879  0.00  0.00    +0.000 A 
ATOM     20  C   UNL     1      47.299   5.480  13.508  0.00  0.00    +0.000 A 
ATOM     21  S   UNL     1      46.766   3.859  13.641  0.00  0.00    +0.000 S 
ATOM     22  C   UNL     1      45.311   4.208  12.829  0.00  0.00    +0.000 A 
ATOM     23  N   UNL     1      44.368   3.248  12.621  0.00  0.00    +0.000 NA
ATOM     24  C   UNL     1      43.316   3.667  12.003  0.00  0.00    +0.000 A 
ATOM     25  N   UNL     1      43.124   4.950  11.556  0.00  0.00    +0.000 N 
ATOM     26  C   UNL     1      44.095   5.925  11.642  0.00  0.00    +0.000 A 
ATOM     27  O   UNL     1      43.985   6.976  11.027  0.00  0.00    +0.000 OA
ATOM     28  C   UNL     1      45.249   5.530  12.431  0.00  0.00    +0.000 A 
ATOM     29  H   UNL     1      42.313   5.192  11.008  0.00  0.00    +0.000 HD
ENDBRANCH  18  19
ENDBRANCH  16  18
ENDBRANCH   1  16
TORSDOF 7
ENDMDL
