MODEL 1
REMARK VINA RESULT:    -7.564      0.000      0.000
REMARK INTER + INTRA:         -13.271
REMARK INTER:                 -11.985
REMARK INTRA:                  -1.285
REMARK UNBOUND:                -1.285
REMARK  Name = 
REMARK  13 active torsions:
REMARK  status: ('A' for Active; 'I' for Inactive)
REMARK    1  A    between atoms: C_1  and  C_2
REMARK    2  A    between atoms: C_2  and  O_3
REMARK    3  A    between atoms: O_3  and  C_4
REMARK    4  A    between atoms: C_6  and  O_7
REMARK    5  A    between atoms: O_7  and  C_8
REMARK    6  A    between atoms: C_8  and  C_9
REMARK    7  A    between atoms: C_9  and  C_10
REMARK    8  A    between atoms: C_14  and  C_15
REMARK    9  A    between atoms: C_20  and  C_21
REMARK   10  A    between atoms: C_21  and  C_22
REMARK   11  A    between atoms: C_21  and  C_23
REMARK   12  A    between atoms: C_24  and  O_25
REMARK   13  A    between atoms: O_25  and  C_26
REMARK                            x       y       z     vdW  Elec       q    Type
REMARK                         _______ _______ _______ _____ _____    ______ ____
ROOT
ATOM      1  C   UNL     1      46.900   4.609  14.188  0.00  0.00    +0.000 A 
ATOM      2  C   UNL     1      45.655   4.139  13.745  0.00  0.00    +0.000 A 
ATOM      3  C   UNL     1      44.829   4.923  12.945  0.00  0.00    +0.000 A 
ATOM      4  C   UNL     1      45.271   6.161  12.498  0.00  0.00    +0.000 A 
ATOM      5  C   UNL     1      46.499   6.688  12.937  0.00  0.00    +0.000 A 
ATOM      6  C   UNL     1      47.318   5.893  13.783  0.00  0.00    +0.000 A 
ENDROOT
BRANCH   5   7
ATOM      7  C   UNL     1      46.911   8.103  12.528  0.00  0.00    +0.000 C 
ATOM      8  C   UNL     1      48.074   8.089  11.534  0.00  0.00    +0.000 C 
ATOM      9  C   UNL     1      45.748   8.934  11.966  0.00  0.00    +0.000 C 
ENDBRANCH   5   7
BRANCH   1  10
ATOM     10  O   UNL     1      47.707   3.875  15.024  0.00  0.00    +0.000 OA
BRANCH  10  12
ATOM     11  C   UNL     1      48.077   2.681  17.083  0.00  0.00    +0.000 C 
ATOM     12  C   UNL     1      47.359   3.837  16.412  0.00  0.00    +0.000 C 
ENDBRANCH  10  12
ENDBRANCH   1  10
BRANCH   3  13
ATOM     13  O   UNL     1      43.567   4.556  12.560  0.00  0.00    +0.000 OA
BRANCH  13  14
ATOM     14  C   UNL     1      43.395   4.449  11.139  0.00  0.00    +0.000 C 
BRANCH  14  15
ATOM     15  C   UNL     1      43.931   3.098  10.678  0.00  0.00    +0.000 C 
BRANCH  15  16
ATOM     16  C   UNL     1      44.914   3.249   9.543  0.00  0.00    +0.000 A 
ATOM     17  C   UNL     1      45.218   4.516   9.024  0.00  0.00    +0.000 A 
ATOM     18  C   UNL     1      46.102   4.651   7.953  0.00  0.00    +0.000 A 
ATOM     19  C   UNL     1      46.695   3.519   7.394  0.00  0.00    +0.000 A 
ATOM     20  C   UNL     1      46.412   2.250   7.908  0.00  0.00    +0.000 A 
ATOM     21  C   UNL     1      45.503   2.115   8.964  0.00  0.00    +0.000 A 
BRANCH  20  22
ATOM     22  C   UNL     1      47.082   1.070   7.299  0.00  0.00    +0.000 C 
ATOM     23  N   UNL     1      46.644  -0.164   7.692  0.00  0.00    +0.000 N 
ATOM     24  O   UNL     1      48.011   1.190   6.512  0.00  0.00    +0.000 OA
ATOM     25  H   UNL     1      46.077  -0.295   8.517  0.00  0.00    +0.000 HD
ATOM     26  H   UNL     1      47.188  -0.953   7.367  0.00  0.00    +0.000 HD
ENDBRANCH  20  22
ENDBRANCH  15  16
ENDBRANCH  14  15
ENDBRANCH  13  14
ENDBRANCH   3  13
BRANCH   6  27
ATOM     27  O   UNL     1      48.550   6.448  14.069  0.00  0.00    +0.000 OA
BRANCH  27  28
ATOM     28  C   UNL     1      48.768   7.173  15.299  0.00  0.00    +0.000 C 
ATOM     29  C   UNL     1      49.664   8.426  15.283  0.00  0.00    +0.000 C 
ATOM     30  N   UNL     1      50.463   7.888  16.399  0.00  0.00    +0.000 NA
ATOM     31  C   UNL     1      49.863   6.560  16.199  0.00  0.00    +0.000 C 
ATOM     32  H   UNL     1      50.243   8.303  17.304  0.00  0.00    +0.000 HD
ENDBRANCH  27  28
ENDBRANCH   6  27
TORSDOF 10
ENDMDL
MODEL 2
REMARK VINA RESULT:    -6.864      1.321      1.731
REMARK INTER + INTRA:         -12.161
REMARK INTER:                 -10.953
REMARK INTRA:                  -1.208
REMARK UNBOUND:                -1.285
REMARK  Name = 
REMARK  13 active torsions:
REMARK  status: ('A' for Active; 'I' for Inactive)
REMARK    1  A    between atoms: C_1  and  C_2
REMARK    2  A    between atoms: C_2  and  O_3
REMARK    3  A    between atoms: O_3  and  C_4
REMARK    4  A    between atoms: C_6  and  O_7
REMARK    5  A    between atoms: O_7  and  C_8
REMARK    6  A    between atoms: C_8  and  C_9
REMARK    7  A    between atoms: C_9  and  C_10
REMARK    8  A    between atoms: C_14  and  C_15
REMARK    9  A    between atoms: C_20  and  C_21
REMARK   10  A    between atoms: C_21  and  C_22
REMARK   11  A    between atoms: C_21  and  C_23
REMARK   12  A    between atoms: C_24  and  O_25
REMARK   13  A    between atoms: O_25  and  C_26
REMARK                            x       y       z     vdW  Elec       q    Type
REMARK                         _______ _______ _______ _____ _____    ______ ____
ROOT
ATOM      1  C   UNL     1      47.302   5.225  14.033  0.00  0.00    +0.000 A 
ATOM      2  C   UNL     1      46.109   5.131  13.303  0.00  0.00    +0.000 A 
ATOM      3  C   UNL     1      45.712   6.140  12.430  0.00  0.00    +0.000 A 
ATOM      4  C   UNL     1      46.547   7.228  12.206  0.00  0.00    +0.000 A 
ATOM      5  C   UNL     1      47.740   7.382  12.934  0.00  0.00    +0.000 A 
ATOM      6  C   UNL     1      48.117   6.362  13.849  0.00  0.00    +0.000 A 
ENDROOT
BRANCH   5   7
ATOM      7  C   UNL     1      48.583   8.646  12.758  0.00  0.00    +0.000 C 
ATOM      8  C   UNL     1      49.392   8.609  11.460  0.00  0.00    +0.000 C 
ATOM      9  C   UNL     1      47.757   9.939  12.826  0.00  0.00    +0.000 C 
ENDBRANCH   5   7
BRANCH   1  10
ATOM     10  O   UNL     1      47.686   4.268  14.941  0.00  0.00    +0.000 OA
BRANCH  10  12
ATOM     11  C   UNL     1      47.620   3.169  17.083  0.00  0.00    +0.000 C 
ATOM     12  C   UNL     1      47.036   4.269  16.216  0.00  0.00    +0.000 C 
ENDBRANCH  10  12
ENDBRANCH   1  10
BRANCH   3  13
ATOM     13  O   UNL     1      44.516   6.147  11.762  0.00  0.00    +0.000 OA
BRANCH  13  14
ATOM     14  C   UNL     1      44.202   4.908  11.110  0.00  0.00    +0.000 C 
BRANCH  14  15
ATOM     15  C   UNL     1      44.524   5.037   9.625  0.00  0.00    +0.000 C 
BRANCH  15  16
ATOM     16  C   UNL     1      45.022   3.734   9.050  0.00  0.00    +0.000 A 
ATOM     17  C   UNL     1      44.497   2.510   9.494  0.00  0.00    +0.000 A 
ATOM     18  C   UNL     1      44.982   1.304   8.985  0.00  0.00    +0.000 A 
ATOM     19  C   UNL     1      45.991   1.312   8.022  0.00  0.00    +0.000 A 
ATOM     20  C   UNL     1      46.515   2.523   7.560  0.00  0.00    +0.000 A 
ATOM     21  C   UNL     1      46.047   3.730   8.094  0.00  0.00    +0.000 A 
BRANCH  20  22
ATOM     22  C   UNL     1      47.574   2.488   6.518  0.00  0.00    +0.000 C 
ATOM     23  N   UNL     1      47.376   3.259   5.405  0.00  0.00    +0.000 N 
ATOM     24  O   UNL     1      48.562   1.773   6.623  0.00  0.00    +0.000 OA
ATOM     25  H   UNL     1      46.472   3.643   5.172  0.00  0.00    +0.000 HD
ATOM     26  H   UNL     1      48.039   3.132   4.652  0.00  0.00    +0.000 HD
ENDBRANCH  20  22
ENDBRANCH  15  16
ENDBRANCH  14  15
ENDBRANCH  13  14
ENDBRANCH   3  13
BRANCH   6  27
ATOM     27  O   UNL     1      49.354   6.548  14.432  0.00  0.00    +0.000 OA
BRANCH  27  28
ATOM     28  C   UNL     1      49.470   7.095  15.764  0.00  0.00    +0.000 C 
ATOM     29  C   UNL     1      50.634   8.054  16.082  0.00  0.00    +0.000 C 
ATOM     30  N   UNL     1      51.004   7.239  17.253  0.00  0.00    +0.000 NA
ATOM     31  C   UNL     1      50.148   6.143  16.773  0.00  0.00    +0.000 C 
ATOM     32  H   UNL     1      50.701   7.632  18.144  0.00  0.00    +0.000 HD
ENDBRANCH  27  28
ENDBRANCH   6  27
TORSDOF 10
ENDMDL
MODEL 3
REMARK VINA RESULT:    -6.430      3.807      7.473
REMARK INTER + INTRA:         -11.475
REMARK INTER:                 -10.279
REMARK INTRA:                  -1.196
REMARK UNBOUND:                -1.285
REMARK  Name = 
REMARK  13 active torsions:
REMARK  status: ('A' for Active; 'I' for Inactive)
REMARK    1  A    between atoms: C_1  and  C_2
REMARK    2  A    between atoms: C_2  and  O_3
REMARK    3  A    between atoms: O_3  and  C_4
REMARK    4  A    between atoms: C_6  and  O_7
REMARK    5  A    between atoms: O_7  and  C_8
REMARK    6  A    between atoms: C_8  and  C_9
REMARK    7  A    between atoms: C_9  and  C_10
REMARK    8  A    between atoms: C_14  and  C_15
REMARK    9  A    between atoms: C_20  and  C_21
REMARK   10  A    between atoms: C_21  and  C_22
REMARK   11  A    between atoms: C_21  and  C_23
REMARK   12  A    between atoms: C_24  and  O_25
REMARK   13  A    between atoms: O_25  and  C_26
REMARK                            x       y       z     vdW  Elec       q    Type
REMARK                         _______ _______ _______ _____ _____    ______ ____
ROOT
ATOM      1  C   UNL     1      47.347   6.910  13.329  0.00  0.00    +0.000 A 
ATOM      2  C   UNL     1      47.664   5.814  14.143  0.00  0.00    +0.000 A 
ATOM      3  C   UNL     1      46.857   4.680  14.177  0.00  0.00    +0.000 A 
ATOM      4  C   UNL     1      45.761   4.586  13.329  0.00  0.00    +0.000 A 
ATOM      5  C   UNL     1      45.386   5.669  12.514  0.00  0.00    +0.000 A 
ATOM      6  C   UNL     1      46.198   6.835  12.515  0.00  0.00    +0.000 A 
ENDROOT
BRANCH   5   7
ATOM      7  C   UNL     1      44.108   5.587  11.678  0.00  0.00    +0.000 C 
ATOM      8  C   UNL     1      44.309   4.741  10.420  0.00  0.00    +0.000 C 
ATOM      9  C   UNL     1      42.898   5.072  12.471  0.00  0.00    +0.000 C 
ENDBRANCH   5   7
BRANCH   1  10
ATOM     10  O   UNL     1      48.098   8.061  13.321  0.00  0.00    +0.000 OA
BRANCH  10  12
ATOM     11  C   UNL     1      49.688   7.858  11.523  0.00  0.00    +0.000 C 
ATOM     12  C   UNL     1      49.493   7.938  13.025  0.00  0.00    +0.000 C 
ENDBRANCH  10  12
ENDBRANCH   1  10
BRANCH   3  13
ATOM     13  O   UNL     1      47.064   3.620  15.020  0.00  0.00    +0.000 OA
BRANCH  13  14
ATOM     14  C   UNL     1      47.230   3.990  16.396  0.00  0.00    +0.000 C 
BRANCH  14  15
ATOM     15  C   UNL     1      47.909   2.842  17.136  0.00  0.00    +0.000 C 
BRANCH  15  16
ATOM     16  C   UNL     1      49.373   3.119  17.367  0.00  0.00    +0.000 A 
ATOM     17  C   UNL     1      49.841   4.436  17.486  0.00  0.00    +0.000 A 
ATOM     18  C   UNL     1      51.201   4.693  17.668  0.00  0.00    +0.000 A 
ATOM     19  C   UNL     1      52.105   3.633  17.738  0.00  0.00    +0.000 A 
ATOM     20  C   UNL     1      51.653   2.314  17.634  0.00  0.00    +0.000 A 
ATOM     21  C   UNL     1      50.293   2.061  17.423  0.00  0.00    +0.000 A 
BRANCH  20  22
ATOM     22  C   UNL     1      52.646   1.211  17.736  0.00  0.00    +0.000 C 
ATOM     23  N   UNL     1      52.209   0.029  18.267  0.00  0.00    +0.000 N 
ATOM     24  O   UNL     1      53.813   1.360  17.400  0.00  0.00    +0.000 OA
ATOM     25  H   UNL     1      51.345  -0.040  18.786  0.00  0.00    +0.000 HD
ATOM     26  H   UNL     1      52.919  -0.668  18.445  0.00  0.00    +0.000 HD
ENDBRANCH  20  22
ENDBRANCH  15  16
ENDBRANCH  14  15
ENDBRANCH  13  14
ENDBRANCH   3  13
BRANCH   6  27
ATOM     27  O   UNL     1      45.813   7.797  11.603  0.00  0.00    +0.000 OA
BRANCH  27  28
ATOM     28  C   UNL     1      45.108   8.983  12.030  0.00  0.00    +0.000 C 
ATOM     29  C   UNL     1      44.067   9.618  11.088  0.00  0.00    +0.000 C 
ATOM     30  N   UNL     1      44.720  10.932  11.227  0.00  0.00    +0.000 NA
ATOM     31  C   UNL     1      45.903  10.291  11.823  0.00  0.00    +0.000 C 
ATOM     32  H   UNL     1      44.239  11.569  11.861  0.00  0.00    +0.000 HD
ENDBRANCH  27  28
ENDBRANCH   6  27
TORSDOF 10
ENDMDL
MODEL 4
REMARK VINA RESULT:    -6.335      1.329      3.487
REMARK INTER + INTRA:         -11.323
REMARK INTER:                 -10.397
REMARK INTRA:                  -0.926
REMARK UNBOUND:                -1.285
REMARK  Name = 
REMARK  13 active torsions:
REMARK  status: ('A' for Active; 'I' for Inactive)
REMARK    1  A    between atoms: C_1  and  C_2
REMARK    2  A    between atoms: C_2  and  O_3
REMARK    3  A    between atoms: O_3  and  C_4
REMARK    4  A    between atoms: C_6  and  O_7
REMARK    5  A    between atoms: O_7  and  C_8
REMARK    6  A    between atoms: C_8  and  C_9
REMARK    7  A    between atoms: C_9  and  C_10
REMARK    8  A    between atoms: C_14  and  C_15
REMARK    9  A    between atoms: C_20  and  C_21
REMARK   10  A    between atoms: C_21  and  C_22
REMARK   11  A    between atoms: C_21  and  C_23
REMARK   12  A    between atoms: C_24  and  O_25
REMARK   13  A    between atoms: O_25  and  C_26
REMARK                            x       y       z     vdW  Elec       q    Type
REMARK                         _______ _______ _______ _____ _____    ______ ____
ROOT
ATOM      1  C   UNL     1      48.047   6.772  13.450  0.00  0.00    +0.000 A 
ATOM      2  C   UNL     1      46.900   6.373  12.748  0.00  0.00    +0.000 A 
ATOM      3  C   UNL     1      46.126   5.299  13.177  0.00  0.00    +0.000 A 
ATOM      4  C   UNL     1      46.436   4.655  14.368  0.00  0.00    +0.000 A 
ATOM      5  C   UNL     1      47.590   5.000  15.093  0.00  0.00    +0.000 A 
ATOM      6  C   UNL     1      48.393   6.075  14.626  0.00  0.00    +0.000 A 
ENDROOT
BRANCH   5   7
ATOM      7  C   UNL     1      47.976   4.199  16.338  0.00  0.00    +0.000 C 
ATOM      8  C   UNL     1      47.009   4.450  17.495  0.00  0.00    +0.000 C 
ATOM      9  C   UNL     1      48.100   2.691  16.073  0.00  0.00    +0.000 C 
ENDBRANCH   5   7
BRANCH   1  10
ATOM     10  O   UNL     1      48.857   7.793  13.015  0.00  0.00    +0.000 OA
BRANCH  10  12
ATOM     11  C   UNL     1      49.822   9.217  11.329  0.00  0.00    +0.000 C 
ATOM     12  C   UNL     1      48.952   8.005  11.602  0.00  0.00    +0.000 C 
ENDBRANCH  10  12
ENDBRANCH   1  10
BRANCH   3  13
ATOM     13  O   UNL     1      45.052   4.806  12.485  0.00  0.00    +0.000 OA
BRANCH  13  14
ATOM     14  C   UNL     1      45.107   3.392  12.247  0.00  0.00    +0.000 C 
BRANCH  14  15
ATOM     15  C   UNL     1      44.278   3.067  11.009  0.00  0.00    +0.000 C 
BRANCH  15  16
ATOM     16  C   UNL     1      45.081   3.236   9.743  0.00  0.00    +0.000 A 
ATOM     17  C   UNL     1      45.242   4.503   9.163  0.00  0.00    +0.000 A 
ATOM     18  C   UNL     1      45.958   4.653   7.974  0.00  0.00    +0.000 A 
ATOM     19  C   UNL     1      46.524   3.538   7.357  0.00  0.00    +0.000 A 
ATOM     20  C   UNL     1      46.383   2.270   7.930  0.00  0.00    +0.000 A 
ATOM     21  C   UNL     1      45.641   2.118   9.107  0.00  0.00    +0.000 A 
BRANCH  20  22
ATOM     22  C   UNL     1      47.020   1.109   7.253  0.00  0.00    +0.000 C 
ATOM     23  N   UNL     1      46.685  -0.136   7.709  0.00  0.00    +0.000 N 
ATOM     24  O   UNL     1      47.840   1.254   6.357  0.00  0.00    +0.000 OA
ATOM     25  H   UNL     1      46.229  -0.278   8.599  0.00  0.00    +0.000 HD
ATOM     26  H   UNL     1      47.216  -0.908   7.327  0.00  0.00    +0.000 HD
ENDBRANCH  20  22
ENDBRANCH  15  16
ENDBRANCH  14  15
ENDBRANCH  13  14
ENDBRANCH   3  13
BRANCH   6  27
ATOM     27  O   UNL     1      49.439   6.410  15.462  0.00  0.00    +0.000 OA
BRANCH  27  28
ATOM     28  C   UNL     1      49.380   7.598  16.282  0.00  0.00    +0.000 C 
ATOM     29  C   UNL     1      49.168   7.451  17.801  0.00  0.00    +0.000 C 
ATOM     30  N   UNL     1      48.045   8.404  17.752  0.00  0.00    +0.000 NA
ATOM     31  C   UNL     1      47.998   8.286  16.286  0.00  0.00    +0.000 C 
ATOM     32  H   UNL     1      48.281   9.340  18.078  0.00  0.00    +0.000 HD
ENDBRANCH  27  28
ENDBRANCH   6  27
TORSDOF 10
ENDMDL
MODEL 5
REMARK VINA RESULT:    -6.323      3.864      7.415
REMARK INTER + INTRA:         -11.305
REMARK INTER:                 -10.058
REMARK INTRA:                  -1.247
REMARK UNBOUND:                -1.285
REMARK  Name = 
REMARK  13 active torsions:
REMARK  status: ('A' for Active; 'I' for Inactive)
REMARK    1  A    between atoms: C_1  and  C_2
REMARK    2  A    between atoms: C_2  and  O_3
REMARK    3  A    between atoms: O_3  and  C_4
REMARK    4  A    between atoms: C_6  and  O_7
REMARK    5  A    between atoms: O_7  and  C_8
REMARK    6  A    between atoms: C_8  and  C_9
REMARK    7  A    between atoms: C_9  and  C_10
REMARK    8  A    between atoms: C_14  and  C_15
REMARK    9  A    between atoms: C_20  and  C_21
REMARK   10  A    between atoms: C_21  and  C_22
REMARK   11  A    between atoms: C_21  and  C_23
REMARK   12  A    between atoms: C_24  and  O_25
REMARK   13  A    between atoms: O_25  and  C_26
REMARK                            x       y       z     vdW  Elec       q    Type
REMARK                         _______ _______ _______ _____ _____    ______ ____
ROOT
ATOM      1  C   UNL     1      45.668   5.625  12.251  0.00  0.00    +0.000 A 
ATOM      2  C   UNL     1      45.913   4.559  13.128  0.00  0.00    +0.000 A 
ATOM      3  C   UNL     1      46.912   4.632  14.095  0.00  0.00    +0.000 A 
ATOM      4  C   UNL     1      47.629   5.810  14.261  0.00  0.00    +0.000 A 
ATOM      5  C   UNL     1      47.439   6.897  13.389  0.00  0.00    +0.000 A 
ATOM      6  C   UNL     1      46.442   6.797  12.383  0.00  0.00    +0.000 A 
ENDROOT
BRANCH   5   7
ATOM      7  C   UNL     1      48.323   8.139  13.516  0.00  0.00    +0.000 C 
ATOM      8  C   UNL     1      48.690   8.426  14.973  0.00  0.00    +0.000 C 
ATOM      9  C   UNL     1      49.595   8.067  12.658  0.00  0.00    +0.000 C 
ENDBRANCH   5   7
BRANCH   1  10
ATOM     10  O   UNL     1      44.726   5.555  11.253  0.00  0.00    +0.000 OA
BRANCH  10  12
ATOM     11  C   UNL     1      42.429   5.386  11.959  0.00  0.00    +0.000 C 
ATOM     12  C   UNL     1      43.641   4.639  11.433  0.00  0.00    +0.000 C 
ENDBRANCH  10  12
ENDBRANCH   1  10
BRANCH   3  13
ATOM     13  O   UNL     1      47.259   3.591  14.915  0.00  0.00    +0.000 OA
BRANCH  13  14
ATOM     14  C   UNL     1      47.160   3.891  16.315  0.00  0.00    +0.000 C 
BRANCH  14  15
ATOM     15  C   UNL     1      47.874   2.798  17.105  0.00  0.00    +0.000 C 
BRANCH  15  16
ATOM     16  C   UNL     1      49.327   3.134  17.327  0.00  0.00    +0.000 A 
ATOM     17  C   UNL     1      49.747   4.470  17.416  0.00  0.00    +0.000 A 
ATOM     18  C   UNL     1      51.097   4.779  17.589  0.00  0.00    +0.000 A 
ATOM     19  C   UNL     1      52.039   3.755  17.680  0.00  0.00    +0.000 A 
ATOM     20  C   UNL     1      51.635   2.418  17.607  0.00  0.00    +0.000 A 
ATOM     21  C   UNL     1      50.285   2.112  17.405  0.00  0.00    +0.000 A 
BRANCH  20  22
ATOM     22  C   UNL     1      52.668   1.356  17.731  0.00  0.00    +0.000 C 
ATOM     23  N   UNL     1      52.261   0.151  18.237  0.00  0.00    +0.000 N 
ATOM     24  O   UNL     1      53.839   1.554  17.436  0.00  0.00    +0.000 OA
ATOM     25  H   UNL     1      51.384   0.043  18.726  0.00  0.00    +0.000 HD
ATOM     26  H   UNL     1      52.993  -0.519  18.432  0.00  0.00    +0.000 HD
ENDBRANCH  20  22
ENDBRANCH  15  16
ENDBRANCH  14  15
ENDBRANCH  13  14
ENDBRANCH   3  13
BRANCH   6  27
ATOM     27  O   UNL     1      46.254   7.953  11.651  0.00  0.00    +0.000 OA
BRANCH  27  28
ATOM     28  C   UNL     1      45.236   8.908  12.024  0.00  0.00    +0.000 C 
ATOM     29  C   UNL     1      44.103   9.224  11.028  0.00  0.00    +0.000 C 
ATOM     30  N   UNL     1      44.370  10.668  11.160  0.00  0.00    +0.000 NA
ATOM     31  C   UNL     1      45.655  10.380  11.815  0.00  0.00    +0.000 C 
ATOM     32  H   UNL     1      43.707  11.158  11.760  0.00  0.00    +0.000 HD
ENDBRANCH  27  28
ENDBRANCH   6  27
TORSDOF 10
ENDMDL
MODEL 6
REMARK VINA RESULT:    -5.916      2.914      5.046
REMARK INTER + INTRA:         -10.660
REMARK INTER:                  -9.348
REMARK INTRA:                  -1.313
REMARK UNBOUND:                -1.285
REMARK  Name = 
REMARK  13 active torsions:
REMARK  status: ('A' for Active; 'I' for Inactive)
REMARK    1  A    between atoms: C_1  and  C_2
REMARK    2  A    between atoms: C_2  and  O_3
REMARK    3  A    between atoms: O_3  and  C_4
REMARK    4  A    between atoms: C_6  and  O_7
REMARK    5  A    between atoms: O_7  and  C_8
REMARK    6  A    between atoms: C_8  and  C_9
REMARK    7  A    between atoms: C_9  and  C_10
REMARK    8  A    between atoms: C_14  and  C_15
REMARK    9  A    between atoms: C_20  and  C_21
REMARK   10  A    between atoms: C_21  and  C_22
REMARK   11  A    between atoms: C_21  and  C_23
REMARK   12  A    between atoms: C_24  and  O_25
REMARK   13  A    between atoms: O_25  and  C_26
REMARK                            x       y       z     vdW  Elec       q    Type
REMARK                         _______ _______ _______ _____ _____    ______ ____
ROOT
ATOM      1  C   UNL     1      48.789   5.980  16.485  0.00  0.00    +0.000 A 
ATOM      2  C   UNL     1      48.632   6.577  15.226  0.00  0.00    +0.000 A 
ATOM      3  C   UNL     1      48.477   7.954  15.092  0.00  0.00    +0.000 A 
ATOM      4  C   UNL     1      48.563   8.772  16.211  0.00  0.00    +0.000 A 
ATOM      5  C   UNL     1      48.692   8.219  17.498  0.00  0.00    +0.000 A 
ATOM      6  C   UNL     1      48.813   6.809  17.626  0.00  0.00    +0.000 A 
ENDROOT
BRANCH   5   7
ATOM      7  C   UNL     1      48.665   9.131  18.725  0.00  0.00    +0.000 C 
ATOM      8  C   UNL     1      50.041   9.734  19.013  0.00  0.00    +0.000 C 
ATOM      9  C   UNL     1      47.613  10.246  18.628  0.00  0.00    +0.000 C 
ENDBRANCH   5   7
BRANCH   1  10
ATOM     10  O   UNL     1      48.888   4.619  16.646  0.00  0.00    +0.000 OA
BRANCH  10  12
ATOM     11  C   UNL     1      47.553   2.766  17.413  0.00  0.00    +0.000 C 
ATOM     12  C   UNL     1      47.729   3.833  16.349  0.00  0.00    +0.000 C 
ENDBRANCH  10  12
ENDBRANCH   1  10
BRANCH   3  13
ATOM     13  O   UNL     1      48.227   8.582  13.901  0.00  0.00    +0.000 OA
BRANCH  13  14
ATOM     14  C   UNL     1      46.854   8.529  13.487  0.00  0.00    +0.000 C 
BRANCH  14  15
ATOM     15  C   UNL     1      46.792   8.031  12.047  0.00  0.00    +0.000 C 
BRANCH  15  16
ATOM     16  C   UNL     1      46.076   6.707  11.947  0.00  0.00    +0.000 A 
ATOM     17  C   UNL     1      45.657   6.032  13.103  0.00  0.00    +0.000 A 
ATOM     18  C   UNL     1      45.024   4.791  13.011  0.00  0.00    +0.000 A 
ATOM     19  C   UNL     1      44.800   4.217  11.760  0.00  0.00    +0.000 A 
ATOM     20  C   UNL     1      45.200   4.883  10.597  0.00  0.00    +0.000 A 
ATOM     21  C   UNL     1      45.860   6.114  10.694  0.00  0.00    +0.000 A 
BRANCH  20  22
ATOM     22  C   UNL     1      44.922   4.247   9.282  0.00  0.00    +0.000 C 
ATOM     23  N   UNL     1      44.076   3.173   9.278  0.00  0.00    +0.000 N 
ATOM     24  O   UNL     1      45.456   4.635   8.251  0.00  0.00    +0.000 OA
ATOM     25  H   UNL     1      43.835   2.675  10.123  0.00  0.00    +0.000 HD
ATOM     26  H   UNL     1      43.993   2.675   8.401  0.00  0.00    +0.000 HD
ENDBRANCH  20  22
ENDBRANCH  15  16
ENDBRANCH  14  15
ENDBRANCH  13  14
ENDBRANCH   3  13
BRANCH   6  27
ATOM     27  O   UNL     1      49.047   6.372  18.914  0.00  0.00    +0.000 OA
BRANCH  27  28
ATOM     28  C   UNL     1      48.058   5.593  19.622  0.00  0.00    +0.000 C 
ATOM     29  C   UNL     1      47.476   6.140  20.940  0.00  0.00    +0.000 C 
ATOM     30  N   UNL     1      47.793   4.872  21.623  0.00  0.00    +0.000 NA
ATOM     31  C   UNL     1      48.658   4.474  20.502  0.00  0.00    +0.000 C 
ATOM     32  H   UNL     1      46.989   4.260  21.755  0.00  0.00    +0.000 HD
ENDBRANCH  27  28
ENDBRANCH   6  27
TORSDOF 10
ENDMDL
MODEL 7
REMARK VINA RESULT:    -5.907      2.058      3.415
REMARK INTER + INTRA:         -10.646
REMARK INTER:                  -9.497
REMARK INTRA:                  -1.149
REMARK UNBOUND:                -1.285
REMARK  Name = 
REMARK  13 active torsions:
REMARK  status: ('A' for Active; 'I' for Inactive)
REMARK    1  A    between atoms: C_1  and  C_2
REMARK    2  A    between atoms: C_2  and  O_3
REMARK    3  A    between atoms: O_3  and  C_4
REMARK    4  A    between atoms: C_6  and  O_7
REMARK    5  A    between atoms: O_7  and  C_8
REMARK    6  A    between atoms: C_8  and  C_9
REMARK    7  A    between atoms: C_9  and  C_10
REMARK    8  A    between atoms: C_14  and  C_15
REMARK    9  A    between atoms: C_20  and  C_21
REMARK   10  A    between atoms: C_21  and  C_22
REMARK   11  A    between atoms: C_21  and  C_23
REMARK   12  A    between atoms: C_24  and  O_25
REMARK   13  A    between atoms: O_25  and  C_26
REMARK                            x       y       z     vdW  Elec       q    Type
REMARK                         _______ _______ _______ _____ _____    ______ ____
ROOT
ATOM      1  C   UNL     1      47.763   4.632  15.905  0.00  0.00    +0.000 A 
ATOM      2  C   UNL     1      47.100   4.643  14.670  0.00  0.00    +0.000 A 
ATOM      3  C   UNL     1      47.183   5.736  13.813  0.00  0.00    +0.000 A 
ATOM      4  C   UNL     1      48.004   6.808  14.138  0.00  0.00    +0.000 A 
ATOM      5  C   UNL     1      48.668   6.857  15.377  0.00  0.00    +0.000 A 
ATOM      6  C   UNL     1      48.547   5.750  16.259  0.00  0.00    +0.000 A 
ENDROOT
BRANCH   5   7
ATOM      7  C   UNL     1      49.470   8.100  15.763  0.00  0.00    +0.000 C 
ATOM      8  C   UNL     1      50.615   8.362  14.782  0.00  0.00    +0.000 C 
ATOM      9  C   UNL     1      48.604   9.360  15.908  0.00  0.00    +0.000 C 
ENDBRANCH   5   7
BRANCH   1  10
ATOM     10  O   UNL     1      47.651   3.587  16.791  0.00  0.00    +0.000 OA
BRANCH  10  12
ATOM     11  C   UNL     1      49.725   2.445  17.233  0.00  0.00    +0.000 C 
ATOM     12  C   UNL     1      48.394   2.398  16.507  0.00  0.00    +0.000 C 
ENDBRANCH  10  12
ENDBRANCH   1  10
BRANCH   3  13
ATOM     13  O   UNL     1      46.484   5.843  12.640  0.00  0.00    +0.000 OA
BRANCH  13  14
ATOM     14  C   UNL     1      45.521   6.907  12.626  0.00  0.00    +0.000 C 
BRANCH  14  15
ATOM     15  C   UNL     1      44.570   6.696  11.453  0.00  0.00    +0.000 C 
BRANCH  15  16
ATOM     16  C   UNL     1      44.338   5.230  11.183  0.00  0.00    +0.000 A 
ATOM     17  C   UNL     1      43.530   4.465  12.038  0.00  0.00    +0.000 A 
ATOM     18  C   UNL     1      43.343   3.101  11.805  0.00  0.00    +0.000 A 
ATOM     19  C   UNL     1      43.957   2.492  10.711  0.00  0.00    +0.000 A 
ATOM     20  C   UNL     1      44.754   3.244   9.842  0.00  0.00    +0.000 A 
ATOM     21  C   UNL     1      44.963   4.605  10.094  0.00  0.00    +0.000 A 
BRANCH  20  22
ATOM     22  C   UNL     1      45.373   2.561   8.675  0.00  0.00    +0.000 C 
ATOM     23  N   UNL     1      45.550   3.307   7.542  0.00  0.00    +0.000 N 
ATOM     24  O   UNL     1      45.673   1.376   8.704  0.00  0.00    +0.000 OA
ATOM     25  H   UNL     1      45.081   4.191   7.401  0.00  0.00    +0.000 HD
ATOM     26  H   UNL     1      45.855   2.803   6.720  0.00  0.00    +0.000 HD
ENDBRANCH  20  22
ENDBRANCH  15  16
ENDBRANCH  14  15
ENDBRANCH  13  14
ENDBRANCH   3  13
BRANCH   6  27
ATOM     27  O   UNL     1      49.322   5.842  17.397  0.00  0.00    +0.000 OA
BRANCH  27  28
ATOM     28  C   UNL     1      48.732   6.196  18.668  0.00  0.00    +0.000 C 
ATOM     29  C   UNL     1      49.462   7.201  19.580  0.00  0.00    +0.000 C 
ATOM     30  N   UNL     1      49.374   6.261  20.712  0.00  0.00    +0.000 NA
ATOM     31  C   UNL     1      49.009   5.173  19.792  0.00  0.00    +0.000 C 
ATOM     32  H   UNL     1      48.642   6.489  21.384  0.00  0.00    +0.000 HD
ENDBRANCH  27  28
ENDBRANCH   6  27
TORSDOF 10
ENDMDL
MODEL 8
REMARK VINA RESULT:    -5.844      3.052      8.129
REMARK INTER + INTRA:         -10.546
REMARK INTER:                  -8.654
REMARK INTRA:                  -1.892
REMARK UNBOUND:                -1.285
REMARK  Name = 
REMARK  13 active torsions:
REMARK  status: ('A' for Active; 'I' for Inactive)
REMARK    1  A    between atoms: C_1  and  C_2
REMARK    2  A    between atoms: C_2  and  O_3
REMARK    3  A    between atoms: O_3  and  C_4
REMARK    4  A    between atoms: C_6  and  O_7
REMARK    5  A    between atoms: O_7  and  C_8
REMARK    6  A    between atoms: C_8  and  C_9
REMARK    7  A    between atoms: C_9  and  C_10
REMARK    8  A    between atoms: C_14  and  C_15
REMARK    9  A    between atoms: C_20  and  C_21
REMARK   10  A    between atoms: C_21  and  C_22
REMARK   11  A    between atoms: C_21  and  C_23
REMARK   12  A    between atoms: C_24  and  O_25
REMARK   13  A    between atoms: O_25  and  C_26
REMARK                            x       y       z     vdW  Elec       q    Type
REMARK                         _______ _______ _______ _____ _____    ______ ____
ROOT
ATOM      1  C   UNL     1      45.769   7.797  12.204  0.00  0.00    +0.000 A 
ATOM      2  C   UNL     1      47.084   8.279  12.140  0.00  0.00    +0.000 A 
ATOM      3  C   UNL     1      48.139   7.583  12.724  0.00  0.00    +0.000 A 
ATOM      4  C   UNL     1      47.910   6.345  13.310  0.00  0.00    +0.000 A 
ATOM      5  C   UNL     1      46.605   5.832  13.424  0.00  0.00    +0.000 A 
ATOM      6  C   UNL     1      45.532   6.569  12.855  0.00  0.00    +0.000 A 
ENDROOT
BRANCH   5   7
ATOM      7  C   UNL     1      46.363   4.524  14.178  0.00  0.00    +0.000 C 
ATOM      8  C   UNL     1      46.586   3.305  13.282  0.00  0.00    +0.000 C 
ATOM      9  C   UNL     1      47.205   4.398  15.457  0.00  0.00    +0.000 C 
ENDBRANCH   5   7
BRANCH   1  10
ATOM     10  O   UNL     1      44.705   8.494  11.683  0.00  0.00    +0.000 OA
BRANCH  10  12
ATOM     11  C   UNL     1      44.063  10.520  10.549  0.00  0.00    +0.000 C 
ATOM     12  C   UNL     1      44.747   9.922  11.764  0.00  0.00    +0.000 C 
ENDBRANCH  10  12
ENDBRANCH   1  10
BRANCH   3  13
ATOM     13  O   UNL     1      49.426   8.048  12.775  0.00  0.00    +0.000 OA
BRANCH  13  14
ATOM     14  C   UNL     1      49.707   8.868  13.919  0.00  0.00    +0.000 C 
BRANCH  14  15
ATOM     15  C   UNL     1      50.754   8.170  14.781  0.00  0.00    +0.000 C 
BRANCH  15  16
ATOM     16  C   UNL     1      50.123   7.459  15.952  0.00  0.00    +0.000 A 
ATOM     17  C   UNL     1      49.074   8.054  16.670  0.00  0.00    +0.000 A 
ATOM     18  C   UNL     1      48.513   7.408  17.773  0.00  0.00    +0.000 A 
ATOM     19  C   UNL     1      48.992   6.159  18.165  0.00  0.00    +0.000 A 
ATOM     20  C   UNL     1      50.028   5.546  17.453  0.00  0.00    +0.000 A 
ATOM     21  C   UNL     1      50.608   6.209  16.365  0.00  0.00    +0.000 A 
BRANCH  20  22
ATOM     22  C   UNL     1      50.496   4.204  17.890  0.00  0.00    +0.000 C 
ATOM     23  N   UNL     1      50.767   4.044  19.221  0.00  0.00    +0.000 N 
ATOM     24  O   UNL     1      50.672   3.291  17.095  0.00  0.00    +0.000 OA
ATOM     25  H   UNL     1      50.884   4.831  19.844  0.00  0.00    +0.000 HD
ATOM     26  H   UNL     1      51.200   3.169  19.485  0.00  0.00    +0.000 HD
ENDBRANCH  20  22
ENDBRANCH  15  16
ENDBRANCH  14  15
ENDBRANCH  13  14
ENDBRANCH   3  13
BRANCH   6  27
ATOM     27  O   UNL     1      44.308   5.933  12.918  0.00  0.00    +0.000 OA
BRANCH  27  28
ATOM     28  C   UNL     1      43.678   5.418  11.724  0.00  0.00    +0.000 C 
ATOM     29  C   UNL     1      43.195   3.955  11.703  0.00  0.00    +0.000 C 
ATOM     30  N   UNL     1      43.931   3.715  10.449  0.00  0.00    +0.000 NA
ATOM     31  C   UNL     1      44.678   4.968  10.636  0.00  0.00    +0.000 C 
ATOM     32  H   UNL     1      43.342   3.711   9.617  0.00  0.00    +0.000 HD
ENDBRANCH  27  28
ENDBRANCH   6  27
TORSDOF 10
ENDMDL
MODEL 9
REMARK VINA RESULT:    -5.737      2.046      4.291
REMARK INTER + INTRA:         -10.377
REMARK INTER:                  -9.393
REMARK INTRA:                  -0.984
REMARK UNBOUND:                -1.285
REMARK  Name = 
REMARK  13 active torsions:
REMARK  status: ('A' for Active; 'I' for Inactive)
REMARK    1  A    between atoms: C_1  and  C_2
REMARK    2  A    between atoms: C_2  and  O_3
REMARK    3  A    between atoms: O_3  and  C_4
REMARK    4  A    between atoms: C_6  and  O_7
REMARK    5  A    between atoms: O_7  and  C_8
REMARK    6  A    between atoms: C_8  and  C_9
REMARK    7  A    between atoms: C_9  and  C_10
REMARK    8  A    between atoms: C_14  and  C_15
REMARK    9  A    between atoms: C_20  and  C_21
REMARK   10  A    between atoms: C_21  and  C_22
REMARK   11  A    between atoms: C_21  and  C_23
REMARK   12  A    between atoms: C_24  and  O_25
REMARK   13  A    between atoms: O_25  and  C_26
REMARK                            x       y       z     vdW  Elec       q    Type
REMARK                         _______ _______ _______ _____ _____    ______ ____
ROOT
ATOM      1  C   UNL     1      48.545   6.751  15.160  0.00  0.00    +0.000 A 
ATOM      2  C   UNL     1      47.666   6.459  14.108  0.00  0.00    +0.000 A 
ATOM      3  C   UNL     1      47.012   5.232  14.031  0.00  0.00    +0.000 A 
ATOM      4  C   UNL     1      47.160   4.304  15.053  0.00  0.00    +0.000 A 
ATOM      5  C   UNL     1      48.052   4.539  16.115  0.00  0.00    +0.000 A 
ATOM      6  C   UNL     1      48.740   5.781  16.165  0.00  0.00    +0.000 A 
ENDROOT
BRANCH   5   7
ATOM      7  C   UNL     1      48.288   3.454  17.167  0.00  0.00    +0.000 C 
ATOM      8  C   UNL     1      46.971   2.895  17.708  0.00  0.00    +0.000 C 
ATOM      9  C   UNL     1      49.179   2.308  16.665  0.00  0.00    +0.000 C 
ENDBRANCH   5   7
BRANCH   1  10
ATOM     10  O   UNL     1      49.243   7.933  15.228  0.00  0.00    +0.000 OA
BRANCH  10  12
ATOM     11  C   UNL     1      49.142  10.310  14.853  0.00  0.00    +0.000 C 
ATOM     12  C   UNL     1      48.506   9.119  15.543  0.00  0.00    +0.000 C 
ENDBRANCH  10  12
ENDBRANCH   1  10
BRANCH   3  13
ATOM     13  O   UNL     1      46.217   4.855  12.981  0.00  0.00    +0.000 OA
BRANCH  13  14
ATOM     14  C   UNL     1      44.979   5.575  12.896  0.00  0.00    +0.000 C 
BRANCH  14  15
ATOM     15  C   UNL     1      44.711   5.925  11.436  0.00  0.00    +0.000 C 
BRANCH  15  16
ATOM     16  C   UNL     1      44.709   4.696  10.562  0.00  0.00    +0.000 A 
ATOM     17  C   UNL     1      43.999   3.548  10.943  0.00  0.00    +0.000 A 
ATOM     18  C   UNL     1      44.025   2.401  10.149  0.00  0.00    +0.000 A 
ATOM     19  C   UNL     1      44.757   2.393   8.962  0.00  0.00    +0.000 A 
ATOM     20  C   UNL     1      45.460   3.534   8.561  0.00  0.00    +0.000 A 
ATOM     21  C   UNL     1      45.455   4.673   9.374  0.00  0.00    +0.000 A 
BRANCH  20  22
ATOM     22  C   UNL     1      46.210   3.492   7.278  0.00  0.00    +0.000 C 
ATOM     23  N   UNL     1      47.319   4.288   7.181  0.00  0.00    +0.000 N 
ATOM     24  O   UNL     1      45.836   2.812   6.332  0.00  0.00    +0.000 OA
ATOM     25  H   UNL     1      47.497   5.042   7.829  0.00  0.00    +0.000 HD
ATOM     26  H   UNL     1      47.746   4.345   6.266  0.00  0.00    +0.000 HD
ENDBRANCH  20  22
ENDBRANCH  15  16
ENDBRANCH  14  15
ENDBRANCH  13  14
ENDBRANCH   3  13
BRANCH   6  27
ATOM     27  O   UNL     1      49.505   5.963  17.300  0.00  0.00    +0.000 OA
BRANCH  27  28
ATOM     28  C   UNL     1      49.055   6.831  18.364  0.00  0.00    +0.000 C 
ATOM     29  C   UNL     1      50.096   7.455  19.313  0.00  0.00    +0.000 C 
ATOM     30  N   UNL     1      49.345   6.965  20.483  0.00  0.00    +0.000 NA
ATOM     31  C   UNL     1      48.556   6.077  19.616  0.00  0.00    +0.000 C 
ATOM     32  H   UNL     1      48.788   7.682  20.947  0.00  0.00    +0.000 HD
ENDBRANCH  27  28
ENDBRANCH   6  27
TORSDOF 10
ENDMDL
