MODEL 1
REMARK VINA RESULT:    -7.907      0.000      0.000
REMARK INTER + INTRA:         -10.701
REMARK INTER:                  -9.756
REMARK INTRA:                  -0.946
REMARK UNBOUND:                -0.946
REMARK  Name = 
REMARK  5 active torsions:
REMARK  status: ('A' for Active; 'I' for Inactive)
REMARK    1  A    between atoms: C_1  and  C_2
REMARK    2  A    between atoms: C_6  and  O_7
REMARK    3  A    between atoms: O_7  and  C_8
REMARK    4  A    between atoms: C_8  and  C_9
REMARK    5  A    between atoms: C_13  and  C_14
REMARK                            x       y       z     vdW  Elec       q    Type
REMARK                         _______ _______ _______ _____ _____    ______ ____
ROOT
ATOM      1  C   UNL     1      45.257   4.951  12.040  0.00  0.00    +0.000 A 
ATOM      2  C   UNL     1      45.751   3.988  12.931  0.00  0.00    +0.000 A 
ATOM      3  C   UNL     1      46.917   4.208  13.664  0.00  0.00    +0.000 A 
ATOM      4  C   UNL     1      47.633   5.393  13.495  0.00  0.00    +0.000 A 
ATOM      5  C   UNL     1      47.195   6.383  12.602  0.00  0.00    +0.000 A 
ATOM      6  C   UNL     1      45.979   6.155  11.932  0.00  0.00    +0.000 A 
ENDROOT
BRANCH   5   7
ATOM      7  C   UNL     1      48.021   7.568  12.276  0.00  0.00    +0.000 A 
ATOM      8  C   UNL     1      49.384   7.425  11.957  0.00  0.00    +0.000 A 
ATOM      9  C   UNL     1      50.155   8.512  11.537  0.00  0.00    +0.000 A 
ATOM     10  C   UNL     1      49.575   9.770  11.419  0.00  0.00    +0.000 A 
ATOM     11  C   UNL     1      48.232   9.946  11.741  0.00  0.00    +0.000 A 
ATOM     12  C   UNL     1      47.468   8.858  12.174  0.00  0.00    +0.000 A 
ENDBRANCH   5   7
BRANCH   1  13
ATOM     13  C   UNL     1      44.043   4.677  11.169  0.00  0.00    +0.000 C 
ATOM     14  C   UNL     1      42.654   4.890  11.777  0.00  0.00    +0.000 C 
ATOM     15  C   UNL     1      43.168   5.847  10.757  0.00  0.00    +0.000 C 
BRANCH  13  16
ATOM     16  O   UNL     1      44.068   3.478  10.361  0.00  0.00    +0.000 OA
BRANCH  16  22
ATOM     17  C   UNL     1      46.796   0.576   7.601  0.00  0.00    +0.000 C 
ATOM     18  C   UNL     1      46.330   1.949   7.970  0.00  0.00    +0.000 A 
ATOM     19  C   UNL     1      46.753   3.081   7.273  0.00  0.00    +0.000 A 
ATOM     20  C   UNL     1      46.256   4.318   7.651  0.00  0.00    +0.000 A 
ATOM     21  N   UNL     1      45.377   4.507   8.658  0.00  0.00    +0.000 NA
ATOM     22  C   UNL     1      44.988   3.403   9.327  0.00  0.00    +0.000 A 
ATOM     23  C   UNL     1      45.440   2.125   9.031  0.00  0.00    +0.000 A 
ENDBRANCH  16  22
ENDBRANCH  13  16
ENDBRANCH   1  13
TORSDOF 4
ENDMDL
MODEL 2
REMARK VINA RESULT:    -7.426      2.805      6.741
REMARK INTER + INTRA:         -10.109
REMARK INTER:                  -9.155
REMARK INTRA:                  -0.954
REMARK UNBOUND:                -0.946
REMARK  Name = 
REMARK  5 active torsions:
REMARK  status: ('A' for Active; 'I' for Inactive)
REMARK    1  A    between atoms: C_1  and  C_2
REMARK    2  A    between atoms: C_6  and  O_7
REMARK    3  A    between atoms: O_7  and  C_8
REMARK    4  A    between atoms: C_8  and  C_9
REMARK    5  A    between atoms: C_13  and  C_14
REMARK                            x       y       z     vdW  Elec       q    Type
REMARK                         _______ _______ _______ _____ _____    ______ ____
ROOT
ATOM      1  C   UNL     1      45.174   6.232  11.737  0.00  0.00    +0.000 A 
ATOM      2  C   UNL     1      43.810   6.120  12.040  0.00  0.00    +0.000 A 
ATOM      3  C   UNL     1      43.010   5.150  11.438  0.00  0.00    +0.000 A 
ATOM      4  C   UNL     1      43.558   4.285  10.490  0.00  0.00    +0.000 A 
ATOM      5  C   UNL     1      44.913   4.365  10.135  0.00  0.00    +0.000 A 
ATOM      6  C   UNL     1      45.704   5.311  10.813  0.00  0.00    +0.000 A 
ENDROOT
BRANCH   5   7
ATOM      7  C   UNL     1      45.479   3.579   9.014  0.00  0.00    +0.000 A 
ATOM      8  C   UNL     1      46.061   4.227   7.908  0.00  0.00    +0.000 A 
ATOM      9  C   UNL     1      46.702   3.510   6.894  0.00  0.00    +0.000 A 
ATOM     10  C   UNL     1      46.781   2.124   6.968  0.00  0.00    +0.000 A 
ATOM     11  C   UNL     1      46.202   1.454   8.042  0.00  0.00    +0.000 A 
ATOM     12  C   UNL     1      45.550   2.175   9.048  0.00  0.00    +0.000 A 
ENDBRANCH   5   7
BRANCH   1  13
ATOM     13  C   UNL     1      46.027   7.347  12.317  0.00  0.00    +0.000 C 
ATOM     14  C   UNL     1      47.126   6.973  13.316  0.00  0.00    +0.000 C 
ATOM     15  C   UNL     1      47.497   7.407  11.940  0.00  0.00    +0.000 C 
BRANCH  13  16
ATOM     16  O   UNL     1      45.343   8.550  12.738  0.00  0.00    +0.000 OA
BRANCH  16  22
ATOM     17  C   UNL     1      42.916  10.725   9.153  0.00  0.00    +0.000 C 
ATOM     18  C   UNL     1      44.084  10.684  10.087  0.00  0.00    +0.000 A 
ATOM     19  C   UNL     1      45.042  11.698  10.111  0.00  0.00    +0.000 A 
ATOM     20  C   UNL     1      46.081  11.609  11.025  0.00  0.00    +0.000 A 
ATOM     21  N   UNL     1      46.231  10.597  11.906  0.00  0.00    +0.000 NA
ATOM     22  C   UNL     1      45.302   9.621  11.860  0.00  0.00    +0.000 A 
ATOM     23  C   UNL     1      44.234   9.616  10.974  0.00  0.00    +0.000 A 
ENDBRANCH  16  22
ENDBRANCH  13  16
ENDBRANCH   1  13
TORSDOF 4
ENDMDL
MODEL 3
REMARK VINA RESULT:    -7.301      2.360      6.789
REMARK INTER + INTRA:          -9.954
REMARK INTER:                  -9.057
REMARK INTRA:                  -0.897
REMARK UNBOUND:                -0.946
REMARK  Name = 
REMARK  5 active torsions:
REMARK  status: ('A' for Active; 'I' for Inactive)
REMARK    1  A    between atoms: C_1  and  C_2
REMARK    2  A    between atoms: C_6  and  O_7
REMARK    3  A    between atoms: O_7  and  C_8
REMARK    4  A    between atoms: C_8  and  C_9
REMARK    5  A    between atoms: C_13  and  C_14
REMARK                            x       y       z     vdW  Elec       q    Type
REMARK                         _______ _______ _______ _____ _____    ______ ____
ROOT
ATOM      1  C   UNL     1      45.416   6.270  11.744  0.00  0.00    +0.000 A 
ATOM      2  C   UNL     1      44.032   6.403  11.921  0.00  0.00    +0.000 A 
ATOM      3  C   UNL     1      43.130   5.599  11.223  0.00  0.00    +0.000 A 
ATOM      4  C   UNL     1      43.601   4.658  10.306  0.00  0.00    +0.000 A 
ATOM      5  C   UNL     1      44.975   4.496  10.076  0.00  0.00    +0.000 A 
ATOM      6  C   UNL     1      45.855   5.277  10.847  0.00  0.00    +0.000 A 
ENDROOT
BRANCH   5   7
ATOM      7  C   UNL     1      45.494   3.632   8.990  0.00  0.00    +0.000 A 
ATOM      8  C   UNL     1      46.100   4.198   7.853  0.00  0.00    +0.000 A 
ATOM      9  C   UNL     1      46.697   3.404   6.871  0.00  0.00    +0.000 A 
ATOM     10  C   UNL     1      46.706   2.021   7.008  0.00  0.00    +0.000 A 
ATOM     11  C   UNL     1      46.102   1.431   8.114  0.00  0.00    +0.000 A 
ATOM     12  C   UNL     1      45.494   2.229   9.089  0.00  0.00    +0.000 A 
ENDBRANCH   5   7
BRANCH   1  13
ATOM     13  C   UNL     1      46.397   7.207  12.427  0.00  0.00    +0.000 C 
ATOM     14  C   UNL     1      46.554   8.623  11.866  0.00  0.00    +0.000 C 
ATOM     15  C   UNL     1      45.851   8.417  13.164  0.00  0.00    +0.000 C 
BRANCH  13  16
ATOM     16  O   UNL     1      47.683   6.659  12.797  0.00  0.00    +0.000 OA
BRANCH  16  22
ATOM     17  C   UNL     1      49.453   6.924  17.300  0.00  0.00    +0.000 C 
ATOM     18  C   UNL     1      48.682   6.183  16.253  0.00  0.00    +0.000 A 
ATOM     19  C   UNL     1      48.065   4.961  16.521  0.00  0.00    +0.000 A 
ATOM     20  C   UNL     1      47.341   4.346  15.511  0.00  0.00    +0.000 A 
ATOM     21  N   UNL     1      47.187   4.856  14.271  0.00  0.00    +0.000 NA
ATOM     22  C   UNL     1      47.799   6.032  14.027  0.00  0.00    +0.000 A 
ATOM     23  C   UNL     1      48.555   6.716  14.969  0.00  0.00    +0.000 A 
ENDBRANCH  16  22
ENDBRANCH  13  16
ENDBRANCH   1  13
TORSDOF 4
ENDMDL
MODEL 4
REMARK VINA RESULT:    -7.019      1.819      3.791
REMARK INTER + INTRA:          -9.606
REMARK INTER:                  -9.718
REMARK INTRA:                   0.112
REMARK UNBOUND:                -0.946
REMARK  Name = 
REMARK  5 active torsions:
REMARK  status: ('A' for Active; 'I' for Inactive)
REMARK    1  A    between atoms: C_1  and  C_2
REMARK    2  A    between atoms: C_6  and  O_7
REMARK    3  A    between atoms: O_7  and  C_8
REMARK    4  A    between atoms: C_8  and  C_9
REMARK    5  A    between atoms: C_13  and  C_14
REMARK                            x       y       z     vdW  Elec       q    Type
REMARK                         _______ _______ _______ _____ _____    ______ ____
ROOT
ATOM      1  C   UNL     1      45.312   5.438  12.018  0.00  0.00    +0.000 A 
ATOM      2  C   UNL     1      46.028   6.424  11.325  0.00  0.00    +0.000 A 
ATOM      3  C   UNL     1      47.274   6.863  11.771  0.00  0.00    +0.000 A 
ATOM      4  C   UNL     1      47.818   6.340  12.945  0.00  0.00    +0.000 A 
ATOM      5  C   UNL     1      47.136   5.365  13.688  0.00  0.00    +0.000 A 
ATOM      6  C   UNL     1      45.914   4.897  13.170  0.00  0.00    +0.000 A 
ENDROOT
BRANCH   5   7
ATOM      7  C   UNL     1      47.606   4.920  15.019  0.00  0.00    +0.000 A 
ATOM      8  C   UNL     1      48.330   5.794  15.852  0.00  0.00    +0.000 A 
ATOM      9  C   UNL     1      48.685   5.437  17.155  0.00  0.00    +0.000 A 
ATOM     10  C   UNL     1      48.318   4.194  17.659  0.00  0.00    +0.000 A 
ATOM     11  C   UNL     1      47.614   3.302  16.854  0.00  0.00    +0.000 A 
ATOM     12  C   UNL     1      47.272   3.659  15.546  0.00  0.00    +0.000 A 
ENDBRANCH   5   7
BRANCH   1  13
ATOM     13  C   UNL     1      43.913   5.025  11.591  0.00  0.00    +0.000 C 
ATOM     14  C   UNL     1      43.211   3.919  12.384  0.00  0.00    +0.000 C 
ATOM     15  C   UNL     1      42.752   5.330  12.521  0.00  0.00    +0.000 C 
BRANCH  13  16
ATOM     16  O   UNL     1      43.677   4.865  10.173  0.00  0.00    +0.000 OA
BRANCH  16  22
ATOM     17  C   UNL     1      47.002   3.750   6.830  0.00  0.00    +0.000 C 
ATOM     18  C   UNL     1      45.996   3.319   7.851  0.00  0.00    +0.000 A 
ATOM     19  C   UNL     1      45.789   1.973   8.156  0.00  0.00    +0.000 A 
ATOM     20  C   UNL     1      44.863   1.649   9.134  0.00  0.00    +0.000 A 
ATOM     21  N   UNL     1      44.140   2.555   9.824  0.00  0.00    +0.000 NA
ATOM     22  C   UNL     1      44.345   3.850   9.509  0.00  0.00    +0.000 A 
ATOM     23  C   UNL     1      45.240   4.272   8.536  0.00  0.00    +0.000 A 
ENDBRANCH  16  22
ENDBRANCH  13  16
ENDBRANCH   1  13
TORSDOF 4
ENDMDL
MODEL 5
REMARK VINA RESULT:    -6.482      3.140      7.280
REMARK INTER + INTRA:          -8.943
REMARK INTER:                  -8.196
REMARK INTRA:                  -0.747
REMARK UNBOUND:                -0.946
REMARK  Name = 
REMARK  5 active torsions:
REMARK  status: ('A' for Active; 'I' for Inactive)
REMARK    1  A    between atoms: C_1  and  C_2
REMARK    2  A    between atoms: C_6  and  O_7
REMARK    3  A    between atoms: O_7  and  C_8
REMARK    4  A    between atoms: C_8  and  C_9
REMARK    5  A    between atoms: C_13  and  C_14
REMARK                            x       y       z     vdW  Elec       q    Type
REMARK                         _______ _______ _______ _____ _____    ______ ____
ROOT
ATOM      1  C   UNL     1      46.987   7.378  13.008  0.00  0.00    +0.000 A 
ATOM      2  C   UNL     1      46.090   8.455  12.960  0.00  0.00    +0.000 A 
ATOM      3  C   UNL     1      44.923   8.395  12.199  0.00  0.00    +0.000 A 
ATOM      4  C   UNL     1      44.644   7.256  11.442  0.00  0.00    +0.000 A 
ATOM      5  C   UNL     1      45.515   6.157  11.438  0.00  0.00    +0.000 A 
ATOM      6  C   UNL     1      46.648   6.228  12.271  0.00  0.00    +0.000 A 
ENDROOT
BRANCH   5   7
ATOM      7  C   UNL     1      45.333   5.013  10.516  0.00  0.00    +0.000 A 
ATOM      8  C   UNL     1      44.667   3.848  10.943  0.00  0.00    +0.000 A 
ATOM      9  C   UNL     1      44.382   2.803  10.061  0.00  0.00    +0.000 A 
ATOM     10  C   UNL     1      44.754   2.902   8.725  0.00  0.00    +0.000 A 
ATOM     11  C   UNL     1      45.427   4.035   8.276  0.00  0.00    +0.000 A 
ATOM     12  C   UNL     1      45.721   5.073   9.166  0.00  0.00    +0.000 A 
ENDBRANCH   5   7
BRANCH   1  13
ATOM     13  C   UNL     1      48.305   7.476  13.757  0.00  0.00    +0.000 C 
ATOM     14  C   UNL     1      49.391   8.396  13.193  0.00  0.00    +0.000 C 
ATOM     15  C   UNL     1      48.661   8.788  14.431  0.00  0.00    +0.000 C 
BRANCH  13  16
ATOM     16  O   UNL     1      48.883   6.240  14.238  0.00  0.00    +0.000 OA
BRANCH  16  22
ATOM     17  C   UNL     1      48.707   6.606  19.066  0.00  0.00    +0.000 C 
ATOM     18  C   UNL     1      48.314   5.902  17.806  0.00  0.00    +0.000 A 
ATOM     19  C   UNL     1      47.453   4.804  17.815  0.00  0.00    +0.000 A 
ATOM     20  C   UNL     1      47.108   4.220  16.606  0.00  0.00    +0.000 A 
ATOM     21  N   UNL     1      47.550   4.647  15.405  0.00  0.00    +0.000 NA
ATOM     22  C   UNL     1      48.390   5.702  15.416  0.00  0.00    +0.000 A 
ATOM     23  C   UNL     1      48.802   6.344  16.575  0.00  0.00    +0.000 A 
ENDBRANCH  16  22
ENDBRANCH  13  16
ENDBRANCH   1  13
TORSDOF 4
ENDMDL
MODEL 6
REMARK VINA RESULT:    -6.300      3.215      7.507
REMARK INTER + INTRA:          -8.719
REMARK INTER:                  -7.872
REMARK INTRA:                  -0.847
REMARK UNBOUND:                -0.946
REMARK  Name = 
REMARK  5 active torsions:
REMARK  status: ('A' for Active; 'I' for Inactive)
REMARK    1  A    between atoms: C_1  and  C_2
REMARK    2  A    between atoms: C_6  and  O_7
REMARK    3  A    between atoms: O_7  and  C_8
REMARK    4  A    between atoms: C_8  and  C_9
REMARK    5  A    between atoms: C_13  and  C_14
REMARK                            x       y       z     vdW  Elec       q    Type
REMARK                         _______ _______ _______ _____ _____    ______ ____
ROOT
ATOM      1  C   UNL     1      47.449   7.594  12.382  0.00  0.00    +0.000 A 
ATOM      2  C   UNL     1      46.509   8.587  12.690  0.00  0.00    +0.000 A 
ATOM      3  C   UNL     1      45.159   8.431  12.376  0.00  0.00    +0.000 A 
ATOM      4  C   UNL     1      44.726   7.281  11.714  0.00  0.00    +0.000 A 
ATOM      5  C   UNL     1      45.627   6.264  11.365  0.00  0.00    +0.000 A 
ATOM      6  C   UNL     1      46.968   6.426  11.759  0.00  0.00    +0.000 A 
ENDROOT
BRANCH   5   7
ATOM      7  C   UNL     1      45.228   5.118  10.515  0.00  0.00    +0.000 A 
ATOM      8  C   UNL     1      45.590   5.075   9.156  0.00  0.00    +0.000 A 
ATOM      9  C   UNL     1      45.324   3.955   8.363  0.00  0.00    +0.000 A 
ATOM     10  C   UNL     1      44.693   2.847   8.917  0.00  0.00    +0.000 A 
ATOM     11  C   UNL     1      44.311   2.866  10.255  0.00  0.00    +0.000 A 
ATOM     12  C   UNL     1      44.567   3.994  11.042  0.00  0.00    +0.000 A 
ENDBRANCH   5   7
BRANCH   1  13
ATOM     13  C   UNL     1      48.933   7.800  12.634  0.00  0.00    +0.000 C 
ATOM     14  C   UNL     1      49.833   8.116  11.436  0.00  0.00    +0.000 C 
ATOM     15  C   UNL     1      49.518   9.185  12.425  0.00  0.00    +0.000 C 
BRANCH  13  16
ATOM     16  O   UNL     1      49.584   6.871  13.531  0.00  0.00    +0.000 OA
BRANCH  16  22
ATOM     17  C   UNL     1      48.866   9.633  17.447  0.00  0.00    +0.000 C 
ATOM     18  C   UNL     1      48.880   8.284  16.798  0.00  0.00    +0.000 A 
ATOM     19  C   UNL     1      48.504   7.132  17.488  0.00  0.00    +0.000 A 
ATOM     20  C   UNL     1      48.512   5.921  16.815  0.00  0.00    +0.000 A 
ATOM     21  N   UNL     1      48.861   5.777  15.519  0.00  0.00    +0.000 NA
ATOM     22  C   UNL     1      49.233   6.899  14.871  0.00  0.00    +0.000 A 
ATOM     23  C   UNL     1      49.269   8.153  15.464  0.00  0.00    +0.000 A 
ENDBRANCH  16  22
ENDBRANCH  13  16
ENDBRANCH   1  13
TORSDOF 4
ENDMDL
MODEL 7
REMARK VINA RESULT:    -6.008      2.586      7.050
REMARK INTER + INTRA:          -8.359
REMARK INTER:                  -7.709
REMARK INTRA:                  -0.650
REMARK UNBOUND:                -0.946
REMARK  Name = 
REMARK  5 active torsions:
REMARK  status: ('A' for Active; 'I' for Inactive)
REMARK    1  A    between atoms: C_1  and  C_2
REMARK    2  A    between atoms: C_6  and  O_7
REMARK    3  A    between atoms: O_7  and  C_8
REMARK    4  A    between atoms: C_8  and  C_9
REMARK    5  A    between atoms: C_13  and  C_14
REMARK                            x       y       z     vdW  Elec       q    Type
REMARK                         _______ _______ _______ _____ _____    ______ ____
ROOT
ATOM      1  C   UNL     1      46.300   7.175  11.974  0.00  0.00    +0.000 A 
ATOM      2  C   UNL     1      45.023   7.527  12.432  0.00  0.00    +0.000 A 
ATOM      3  C   UNL     1      43.892   6.806  12.052  0.00  0.00    +0.000 A 
ATOM      4  C   UNL     1      44.015   5.727  11.175  0.00  0.00    +0.000 A 
ATOM      5  C   UNL     1      45.266   5.343  10.671  0.00  0.00    +0.000 A 
ATOM      6  C   UNL     1      46.392   6.052  11.130  0.00  0.00    +0.000 A 
ENDROOT
BRANCH   5   7
ATOM      7  C   UNL     1      45.405   4.318   9.611  0.00  0.00    +0.000 A 
ATOM      8  C   UNL     1      45.992   4.644   8.373  0.00  0.00    +0.000 A 
ATOM      9  C   UNL     1      46.237   3.670   7.402  0.00  0.00    +0.000 A 
ATOM     10  C   UNL     1      45.906   2.342   7.650  0.00  0.00    +0.000 A 
ATOM     11  C   UNL     1      45.311   1.992   8.859  0.00  0.00    +0.000 A 
ATOM     12  C   UNL     1      45.056   2.973   9.824  0.00  0.00    +0.000 A 
ENDBRANCH   5   7
BRANCH   1  13
ATOM     13  C   UNL     1      47.522   8.014  12.306  0.00  0.00    +0.000 C 
ATOM     14  C   UNL     1      48.648   7.364  13.116  0.00  0.00    +0.000 C 
ATOM     15  C   UNL     1      48.850   7.648  11.667  0.00  0.00    +0.000 C 
BRANCH  13  16
ATOM     16  O   UNL     1      47.289   9.370  12.754  0.00  0.00    +0.000 OA
BRANCH  16  22
ATOM     17  C   UNL     1      49.492  12.204   9.500  0.00  0.00    +0.000 C 
ATOM     18  C   UNL     1      48.243  11.751  10.188  0.00  0.00    +0.000 A 
ATOM     19  C   UNL     1      46.989  12.254   9.840  0.00  0.00    +0.000 A 
ATOM     20  C   UNL     1      45.872  11.766  10.500  0.00  0.00    +0.000 A 
ATOM     21  N   UNL     1      45.912  10.824  11.465  0.00  0.00    +0.000 NA
ATOM     22  C   UNL     1      47.133  10.358  11.796  0.00  0.00    +0.000 A 
ATOM     23  C   UNL     1      48.310  10.794  11.202  0.00  0.00    +0.000 A 
ENDBRANCH  16  22
ENDBRANCH  13  16
ENDBRANCH   1  13
TORSDOF 4
ENDMDL
MODEL 8
REMARK VINA RESULT:    -5.748      5.020      8.695
REMARK INTER + INTRA:          -8.038
REMARK INTER:                  -7.208
REMARK INTRA:                  -0.830
REMARK UNBOUND:                -0.946
REMARK  Name = 
REMARK  5 active torsions:
REMARK  status: ('A' for Active; 'I' for Inactive)
REMARK    1  A    between atoms: C_1  and  C_2
REMARK    2  A    between atoms: C_6  and  O_7
REMARK    3  A    between atoms: O_7  and  C_8
REMARK    4  A    between atoms: C_8  and  C_9
REMARK    5  A    between atoms: C_13  and  C_14
REMARK                            x       y       z     vdW  Elec       q    Type
REMARK                         _______ _______ _______ _____ _____    ______ ____
ROOT
ATOM      1  C   UNL     1      47.952   5.177  15.863  0.00  0.00    +0.000 A 
ATOM      2  C   UNL     1      48.797   6.260  15.586  0.00  0.00    +0.000 A 
ATOM      3  C   UNL     1      48.699   6.971  14.390  0.00  0.00    +0.000 A 
ATOM      4  C   UNL     1      47.764   6.588  13.427  0.00  0.00    +0.000 A 
ATOM      5  C   UNL     1      46.905   5.500  13.644  0.00  0.00    +0.000 A 
ATOM      6  C   UNL     1      46.988   4.851  14.890  0.00  0.00    +0.000 A 
ENDROOT
BRANCH   5   7
ATOM      7  C   UNL     1      46.027   4.968  12.577  0.00  0.00    +0.000 A 
ATOM      8  C   UNL     1      45.797   5.709  11.402  0.00  0.00    +0.000 A 
ATOM      9  C   UNL     1      45.066   5.181  10.335  0.00  0.00    +0.000 A 
ATOM     10  C   UNL     1      44.551   3.892  10.417  0.00  0.00    +0.000 A 
ATOM     11  C   UNL     1      44.750   3.140  11.571  0.00  0.00    +0.000 A 
ATOM     12  C   UNL     1      45.471   3.678  12.643  0.00  0.00    +0.000 A 
ENDBRANCH   5   7
BRANCH   1  13
ATOM     13  C   UNL     1      48.118   4.341  17.120  0.00  0.00    +0.000 C 
ATOM     14  C   UNL     1      48.324   2.832  16.962  0.00  0.00    +0.000 C 
ATOM     15  C   UNL     1      49.465   3.692  17.386  0.00  0.00    +0.000 C 
BRANCH  13  16
ATOM     16  O   UNL     1      47.225   4.622  18.222  0.00  0.00    +0.000 OA
BRANCH  16  22
ATOM     17  C   UNL     1      47.249   9.256  19.636  0.00  0.00    +0.000 C 
ATOM     18  C   UNL     1      47.636   7.829  19.868  0.00  0.00    +0.000 A 
ATOM     19  C   UNL     1      48.320   7.430  21.017  0.00  0.00    +0.000 A 
ATOM     20  C   UNL     1      48.619   6.087  21.179  0.00  0.00    +0.000 A 
ATOM     21  N   UNL     1      48.287   5.124  20.293  0.00  0.00    +0.000 NA
ATOM     22  C   UNL     1      47.637   5.529  19.184  0.00  0.00    +0.000 A 
ATOM     23  C   UNL     1      47.306   6.852  18.927  0.00  0.00    +0.000 A 
ENDBRANCH  16  22
ENDBRANCH  13  16
ENDBRANCH   1  13
TORSDOF 4
ENDMDL
MODEL 9
REMARK VINA RESULT:    -5.547      4.107      7.884
REMARK INTER + INTRA:          -7.790
REMARK INTER:                  -7.086
REMARK INTRA:                  -0.705
REMARK UNBOUND:                -0.946
REMARK  Name = 
REMARK  5 active torsions:
REMARK  status: ('A' for Active; 'I' for Inactive)
REMARK    1  A    between atoms: C_1  and  C_2
REMARK    2  A    between atoms: C_6  and  O_7
REMARK    3  A    between atoms: O_7  and  C_8
REMARK    4  A    between atoms: C_8  and  C_9
REMARK    5  A    between atoms: C_13  and  C_14
REMARK                            x       y       z     vdW  Elec       q    Type
REMARK                         _______ _______ _______ _____ _____    ______ ____
ROOT
ATOM      1  C   UNL     1      48.772   7.347  14.050  0.00  0.00    +0.000 A 
ATOM      2  C   UNL     1      49.528   7.821  12.970  0.00  0.00    +0.000 A 
ATOM      3  C   UNL     1      49.060   7.729  11.660  0.00  0.00    +0.000 A 
ATOM      4  C   UNL     1      47.827   7.128  11.401  0.00  0.00    +0.000 A 
ATOM      5  C   UNL     1      47.037   6.619  12.443  0.00  0.00    +0.000 A 
ATOM      6  C   UNL     1      47.511   6.792  13.756  0.00  0.00    +0.000 A 
ENDROOT
BRANCH   5   7
ATOM      7  C   UNL     1      45.812   5.828  12.186  0.00  0.00    +0.000 A 
ATOM      8  C   UNL     1      45.434   5.501  10.869  0.00  0.00    +0.000 A 
ATOM      9  C   UNL     1      44.349   4.661  10.607  0.00  0.00    +0.000 A 
ATOM     10  C   UNL     1      43.618   4.122  11.660  0.00  0.00    +0.000 A 
ATOM     11  C   UNL     1      43.959   4.438  12.972  0.00  0.00    +0.000 A 
ATOM     12  C   UNL     1      45.038   5.290  13.229  0.00  0.00    +0.000 A 
ENDBRANCH   5   7
BRANCH   1  13
ATOM     13  C   UNL     1      49.318   7.357  15.468  0.00  0.00    +0.000 C 
ATOM     14  C   UNL     1      49.963   8.646  15.985  0.00  0.00    +0.000 C 
ATOM     15  C   UNL     1      48.630   8.228  16.504  0.00  0.00    +0.000 C 
BRANCH  13  16
ATOM     16  O   UNL     1      50.079   6.201  15.889  0.00  0.00    +0.000 OA
BRANCH  16  22
ATOM     17  C   UNL     1      50.000   4.921  20.562  0.00  0.00    +0.000 C 
ATOM     18  C   UNL     1      49.498   4.747  19.162  0.00  0.00    +0.000 A 
ATOM     19  C   UNL     1      48.488   3.836  18.852  0.00  0.00    +0.000 A 
ATOM     20  C   UNL     1      48.052   3.751  17.539  0.00  0.00    +0.000 A 
ATOM     21  N   UNL     1      48.541   4.498  16.527  0.00  0.00    +0.000 NA
ATOM     22  C   UNL     1      49.524   5.365  16.844  0.00  0.00    +0.000 A 
ATOM     23  C   UNL     1      50.035   5.513  18.126  0.00  0.00    +0.000 A 
ENDBRANCH  16  22
ENDBRANCH  13  16
ENDBRANCH   1  13
TORSDOF 4
ENDMDL
