MODEL 1
REMARK VINA RESULT:    -8.465      0.000      0.000
REMARK INTER + INTRA:         -11.472
REMARK INTER:                 -10.940
REMARK INTRA:                  -0.532
REMARK UNBOUND:                -0.532
REMARK  Name = 
REMARK  5 active torsions:
REMARK  status: ('A' for Active; 'I' for Inactive)
REMARK    1  A    between atoms: C_2  and  C_18
REMARK    2  A    between atoms: N_3  and  C_4
REMARK    3  A    between atoms: C_4  and  C_5
REMARK    4  A    between atoms: C_8  and  C_9
REMARK    5  A    between atoms: C_9  and  C_10
REMARK                            x       y       z     vdW  Elec       q    Type
REMARK                         _______ _______ _______ _____ _____    ______ ____
ROOT
ATOM      1  O   UNL     1      47.139   3.456  14.153  0.00  0.00    +0.000 OA
ATOM      2  C   UNL     1      46.984   4.643  14.427  0.00  0.00    +0.000 C 
ATOM      3  N   UNL     1      45.898   5.405  14.061  0.00  0.00    +0.000 N 
ATOM      4  H   UNL     1      45.776   6.301  14.506  0.00  0.00    +0.000 HD
ENDROOT
BRANCH   2   5
ATOM      5  C   UNL     1      47.860   5.373  15.340  0.00  0.00    +0.000 A 
ATOM      6  C   UNL     1      48.508   6.542  14.980  0.00  0.00    +0.000 A 
ATOM      7  S   UNL     1      49.820   6.891  16.030  0.00  0.00    +0.000 S 
ATOM      8  C   UNL     1      49.451   5.559  17.030  0.00  0.00    +0.000 A 
ATOM      9  N   UNL     1      50.255   5.172  18.059  0.00  0.00    +0.000 NA
ATOM     10  C   UNL     1      49.795   4.175  18.742  0.00  0.00    +0.000 A 
ATOM     11  N   UNL     1      48.582   3.562  18.526  0.00  0.00    +0.000 N 
ATOM     12  C   UNL     1      47.730   3.930  17.510  0.00  0.00    +0.000 A 
ATOM     13  O   UNL     1      46.625   3.425  17.380  0.00  0.00    +0.000 OA
ATOM     14  C   UNL     1      48.274   4.958  16.645  0.00  0.00    +0.000 A 
ATOM     15  H   UNL     1      48.242   2.847  19.150  0.00  0.00    +0.000 HD
ENDBRANCH   2   5
BRANCH   3  16
ATOM     16  C   UNL     1      44.672   4.822  13.564  0.00  0.00    +0.000 C 
BRANCH  16  17
ATOM     17  C   UNL     1      44.738   4.597  12.063  0.00  0.00    +0.000 A 
ATOM     18  N   UNL     1      44.201   3.457  11.572  0.00  0.00    +0.000 NA
ATOM     19  C   UNL     1      44.309   3.268  10.239  0.00  0.00    +0.000 A 
ATOM     20  C   UNL     1      44.945   4.147   9.385  0.00  0.00    +0.000 A 
ATOM     21  C   UNL     1      45.488   5.254  10.001  0.00  0.00    +0.000 A 
ATOM     22  N   UNL     1      45.402   5.501  11.321  0.00  0.00    +0.000 NA
BRANCH  20  23
ATOM     23  C   UNL     1      45.057   3.925   7.908  0.00  0.00    +0.000 C 
BRANCH  23  24
ATOM     24  C   UNL     1      46.387   3.287   7.443  0.00  0.00    +0.000 C 
ATOM     25  C   UNL     1      46.554   3.373   5.916  0.00  0.00    +0.000 C 
ATOM     26  C   UNL     1      47.624   2.430   5.381  0.00  0.00    +0.000 C 
ATOM     27  O   UNL     1      47.394   1.102   5.837  0.00  0.00    +0.000 OA
ATOM     28  C   UNL     1      47.524   1.009   7.251  0.00  0.00    +0.000 C 
ATOM     29  C   UNL     1      46.440   1.829   7.936  0.00  0.00    +0.000 C 
ENDBRANCH  23  24
ENDBRANCH  20  23
ENDBRANCH  16  17
ENDBRANCH   3  16
TORSDOF 5
ENDMDL
MODEL 2
REMARK VINA RESULT:    -7.931      1.554      2.452
REMARK INTER + INTRA:         -10.781
REMARK INTER:                 -10.082
REMARK INTRA:                  -0.699
REMARK UNBOUND:                -0.532
REMARK  Name = 
REMARK  5 active torsions:
REMARK  status: ('A' for Active; 'I' for Inactive)
REMARK    1  A    between atoms: C_2  and  C_18
REMARK    2  A    between atoms: N_3  and  C_4
REMARK    3  A    between atoms: C_4  and  C_5
REMARK    4  A    between atoms: C_8  and  C_9
REMARK    5  A    between atoms: C_9  and  C_10
REMARK                            x       y       z     vdW  Elec       q    Type
REMARK                         _______ _______ _______ _____ _____    ______ ____
ROOT
ATOM      1  O   UNL     1      47.010   3.200  14.270  0.00  0.00    +0.000 OA
ATOM      2  C   UNL     1      46.937   4.395  14.541  0.00  0.00    +0.000 C 
ATOM      3  N   UNL     1      45.915   5.233  14.156  0.00  0.00    +0.000 N 
ATOM      4  H   UNL     1      45.851   6.136  14.598  0.00  0.00    +0.000 HD
ENDROOT
BRANCH   2   5
ATOM      5  C   UNL     1      47.848   5.062  15.467  0.00  0.00    +0.000 A 
ATOM      6  C   UNL     1      47.992   4.669  16.787  0.00  0.00    +0.000 A 
ATOM      7  S   UNL     1      48.715   5.898  17.741  0.00  0.00    +0.000 S 
ATOM      8  C   UNL     1      48.946   6.901  16.381  0.00  0.00    +0.000 A 
ATOM      9  N   UNL     1      49.397   8.182  16.483  0.00  0.00    +0.000 NA
ATOM     10  C   UNL     1      49.561   8.778  15.348  0.00  0.00    +0.000 A 
ATOM     11  N   UNL     1      49.366   8.196  14.116  0.00  0.00    +0.000 N 
ATOM     12  C   UNL     1      48.927   6.901  13.963  0.00  0.00    +0.000 A 
ATOM     13  O   UNL     1      48.831   6.378  12.863  0.00  0.00    +0.000 OA
ATOM     14  C   UNL     1      48.608   6.248  15.217  0.00  0.00    +0.000 A 
ATOM     15  H   UNL     1      49.596   8.687  13.266  0.00  0.00    +0.000 HD
ENDBRANCH   2   5
BRANCH   3  16
ATOM     16  C   UNL     1      44.658   4.740  13.639  0.00  0.00    +0.000 C 
BRANCH  16  17
ATOM     17  C   UNL     1      44.726   4.528  12.136  0.00  0.00    +0.000 A 
ATOM     18  N   UNL     1      44.189   3.392  11.635  0.00  0.00    +0.000 NA
ATOM     19  C   UNL     1      44.298   3.215  10.301  0.00  0.00    +0.000 A 
ATOM     20  C   UNL     1      44.935   4.102   9.455  0.00  0.00    +0.000 A 
ATOM     21  C   UNL     1      45.478   5.202  10.081  0.00  0.00    +0.000 A 
ATOM     22  N   UNL     1      45.391   5.438  11.403  0.00  0.00    +0.000 NA
BRANCH  20  23
ATOM     23  C   UNL     1      45.049   3.893   7.976  0.00  0.00    +0.000 C 
BRANCH  23  24
ATOM     24  C   UNL     1      46.374   3.246   7.508  0.00  0.00    +0.000 C 
ATOM     25  C   UNL     1      46.548   3.350   5.983  0.00  0.00    +0.000 C 
ATOM     26  C   UNL     1      47.609   2.402   5.440  0.00  0.00    +0.000 C 
ATOM     27  O   UNL     1      47.363   1.071   5.878  0.00  0.00    +0.000 OA
ATOM     28  C   UNL     1      47.487   0.958   7.291  0.00  0.00    +0.000 C 
ATOM     29  C   UNL     1      46.409   1.781   7.982  0.00  0.00    +0.000 C 
ENDBRANCH  23  24
ENDBRANCH  20  23
ENDBRANCH  16  17
ENDBRANCH   3  16
TORSDOF 5
ENDMDL
MODEL 3
REMARK VINA RESULT:    -7.281      2.352      3.077
REMARK INTER + INTRA:          -9.942
REMARK INTER:                  -9.756
REMARK INTRA:                  -0.186
REMARK UNBOUND:                -0.532
REMARK  Name = 
REMARK  5 active torsions:
REMARK  status: ('A' for Active; 'I' for Inactive)
REMARK    1  A    between atoms: C_2  and  C_18
REMARK    2  A    between atoms: N_3  and  C_4
REMARK    3  A    between atoms: C_4  and  C_5
REMARK    4  A    between atoms: C_8  and  C_9
REMARK    5  A    between atoms: C_9  and  C_10
REMARK                            x       y       z     vdW  Elec       q    Type
REMARK                         _______ _______ _______ _____ _____    ______ ____
ROOT
ATOM      1  O   UNL     1      49.882   5.328  16.283  0.00  0.00    +0.000 OA
ATOM      2  C   UNL     1      48.827   5.952  16.354  0.00  0.00    +0.000 C 
ATOM      3  N   UNL     1      47.682   5.657  15.650  0.00  0.00    +0.000 N 
ATOM      4  H   UNL     1      46.824   6.103  15.932  0.00  0.00    +0.000 HD
ENDROOT
BRANCH   2   5
ATOM      5  C   UNL     1      48.586   7.003  17.340  0.00  0.00    +0.000 A 
ATOM      6  C   UNL     1      49.083   8.287  17.200  0.00  0.00    +0.000 A 
ATOM      7  S   UNL     1      49.081   9.136  18.692  0.00  0.00    +0.000 S 
ATOM      8  C   UNL     1      48.310   7.843  19.494  0.00  0.00    +0.000 A 
ATOM      9  N   UNL     1      48.116   7.829  20.842  0.00  0.00    +0.000 NA
ATOM     10  C   UNL     1      47.471   6.795  21.273  0.00  0.00    +0.000 A 
ATOM     11  N   UNL     1      46.953   5.800  20.476  0.00  0.00    +0.000 N 
ATOM     12  C   UNL     1      47.109   5.781  19.109  0.00  0.00    +0.000 A 
ATOM     13  O   UNL     1      46.579   4.928  18.411  0.00  0.00    +0.000 OA
ATOM     14  C   UNL     1      47.940   6.856  18.608  0.00  0.00    +0.000 A 
ATOM     15  H   UNL     1      46.382   5.065  20.866  0.00  0.00    +0.000 HD
ENDBRANCH   2   5
BRANCH   3  16
ATOM     16  C   UNL     1      47.494   4.398  14.965  0.00  0.00    +0.000 C 
BRANCH  16  17
ATOM     17  C   UNL     1      46.563   4.552  13.774  0.00  0.00    +0.000 A 
ATOM     18  N   UNL     1      45.890   3.457  13.354  0.00  0.00    +0.000 NA
ATOM     19  C   UNL     1      45.100   3.618  12.270  0.00  0.00    +0.000 A 
ATOM     20  C   UNL     1      44.973   4.806  11.578  0.00  0.00    +0.000 A 
ATOM     21  C   UNL     1      45.736   5.842  12.072  0.00  0.00    +0.000 A 
ATOM     22  N   UNL     1      46.531   5.745  13.153  0.00  0.00    +0.000 NA
BRANCH  20  23
ATOM     23  C   UNL     1      44.092   4.970  10.378  0.00  0.00    +0.000 C 
BRANCH  23  24
ATOM     24  C   UNL     1      44.387   3.994   9.215  0.00  0.00    +0.000 C 
ATOM     25  C   UNL     1      44.480   2.539   9.705  0.00  0.00    +0.000 C 
ATOM     26  C   UNL     1      45.148   1.613   8.697  0.00  0.00    +0.000 C 
ATOM     27  O   UNL     1      46.406   2.140   8.290  0.00  0.00    +0.000 OA
ATOM     28  C   UNL     1      46.251   3.367   7.586  0.00  0.00    +0.000 C 
ATOM     29  C   UNL     1      45.682   4.436   8.508  0.00  0.00    +0.000 C 
ENDBRANCH  23  24
ENDBRANCH  20  23
ENDBRANCH  16  17
ENDBRANCH   3  16
TORSDOF 5
ENDMDL
MODEL 4
REMARK VINA RESULT:    -7.250      3.094      9.693
REMARK INTER + INTRA:          -9.901
REMARK INTER:                  -9.246
REMARK INTRA:                  -0.655
REMARK UNBOUND:                -0.532
REMARK  Name = 
REMARK  5 active torsions:
REMARK  status: ('A' for Active; 'I' for Inactive)
REMARK    1  A    between atoms: C_2  and  C_18
REMARK    2  A    between atoms: N_3  and  C_4
REMARK    3  A    between atoms: C_4  and  C_5
REMARK    4  A    between atoms: C_8  and  C_9
REMARK    5  A    between atoms: C_9  and  C_10
REMARK                            x       y       z     vdW  Elec       q    Type
REMARK                         _______ _______ _______ _____ _____    ______ ____
ROOT
ATOM      1  O   UNL     1      45.465   7.319  11.389  0.00  0.00    +0.000 OA
ATOM      2  C   UNL     1      45.751   6.138  11.568  0.00  0.00    +0.000 C 
ATOM      3  N   UNL     1      46.851   5.686  12.260  0.00  0.00    +0.000 N 
ATOM      4  H   UNL     1      46.881   4.712  12.518  0.00  0.00    +0.000 HD
ENDROOT
BRANCH   2   5
ATOM      5  C   UNL     1      44.859   5.037  11.212  0.00  0.00    +0.000 A 
ATOM      6  C   UNL     1      43.858   4.585  12.054  0.00  0.00    +0.000 A 
ATOM      7  S   UNL     1      43.320   3.015  11.618  0.00  0.00    +0.000 S 
ATOM      8  C   UNL     1      44.329   2.987  10.243  0.00  0.00    +0.000 A 
ATOM      9  N   UNL     1      44.482   1.877   9.469  0.00  0.00    +0.000 NA
ATOM     10  C   UNL     1      45.245   2.051   8.440  0.00  0.00    +0.000 A 
ATOM     11  N   UNL     1      45.827   3.245   8.082  0.00  0.00    +0.000 N 
ATOM     12  C   UNL     1      45.687   4.396   8.823  0.00  0.00    +0.000 A 
ATOM     13  O   UNL     1      46.150   5.464   8.450  0.00  0.00    +0.000 OA
ATOM     14  C   UNL     1      44.947   4.203  10.053  0.00  0.00    +0.000 A 
ATOM     15  H   UNL     1      46.339   3.336   7.218  0.00  0.00    +0.000 HD
ENDBRANCH   2   5
BRANCH   3  16
ATOM     16  C   UNL     1      47.640   6.545  13.114  0.00  0.00    +0.000 C 
BRANCH  16  17
ATOM     17  C   UNL     1      47.831   5.929  14.490  0.00  0.00    +0.000 A 
ATOM     18  N   UNL     1      48.824   6.418  15.267  0.00  0.00    +0.000 NA
ATOM     19  C   UNL     1      48.993   5.826  16.469  0.00  0.00    +0.000 A 
ATOM     20  C   UNL     1      48.237   4.759  16.915  0.00  0.00    +0.000 A 
ATOM     21  C   UNL     1      47.282   4.320  16.024  0.00  0.00    +0.000 A 
ATOM     22  N   UNL     1      47.061   4.878  14.820  0.00  0.00    +0.000 NA
BRANCH  20  23
ATOM     23  C   UNL     1      48.435   4.112  18.251  0.00  0.00    +0.000 C 
BRANCH  23  24
ATOM     24  C   UNL     1      48.568   5.094  19.438  0.00  0.00    +0.000 C 
ATOM     25  C   UNL     1      48.802   4.350  20.765  0.00  0.00    +0.000 C 
ATOM     26  C   UNL     1      48.546   5.222  21.988  0.00  0.00    +0.000 C 
ATOM     27  O   UNL     1      47.259   5.824  21.913  0.00  0.00    +0.000 OA
ATOM     28  C   UNL     1      47.173   6.728  20.817  0.00  0.00    +0.000 C 
ATOM     29  C   UNL     1      47.308   5.976  19.501  0.00  0.00    +0.000 C 
ENDBRANCH  23  24
ENDBRANCH  20  23
ENDBRANCH  16  17
ENDBRANCH   3  16
TORSDOF 5
ENDMDL
MODEL 5
REMARK VINA RESULT:    -7.217      2.621      3.709
REMARK INTER + INTRA:          -9.859
REMARK INTER:                  -9.204
REMARK INTRA:                  -0.655
REMARK UNBOUND:                -0.532
REMARK  Name = 
REMARK  5 active torsions:
REMARK  status: ('A' for Active; 'I' for Inactive)
REMARK    1  A    between atoms: C_2  and  C_18
REMARK    2  A    between atoms: N_3  and  C_4
REMARK    3  A    between atoms: C_4  and  C_5
REMARK    4  A    between atoms: C_8  and  C_9
REMARK    5  A    between atoms: C_9  and  C_10
REMARK                            x       y       z     vdW  Elec       q    Type
REMARK                         _______ _______ _______ _____ _____    ______ ____
ROOT
ATOM      1  O   UNL     1      47.169   5.270  13.867  0.00  0.00    +0.000 OA
ATOM      2  C   UNL     1      47.387   6.472  13.746  0.00  0.00    +0.000 C 
ATOM      3  N   UNL     1      46.537   7.375  13.151  0.00  0.00    +0.000 N 
ATOM      4  H   UNL     1      46.719   8.357  13.284  0.00  0.00    +0.000 HD
ENDROOT
BRANCH   2   5
ATOM      5  C   UNL     1      48.517   7.147  14.381  0.00  0.00    +0.000 A 
ATOM      6  C   UNL     1      48.795   7.029  15.731  0.00  0.00    +0.000 A 
ATOM      7  S   UNL     1      49.829   8.284  16.280  0.00  0.00    +0.000 S 
ATOM      8  C   UNL     1      50.003   8.910  14.702  0.00  0.00    +0.000 A 
ATOM      9  N   UNL     1      50.654  10.079  14.446  0.00  0.00    +0.000 NA
ATOM     10  C   UNL     1      50.734  10.375  13.190  0.00  0.00    +0.000 A 
ATOM     11  N   UNL     1      50.271   9.586  12.162  0.00  0.00    +0.000 N 
ATOM     12  C   UNL     1      49.624   8.390  12.372  0.00  0.00    +0.000 A 
ATOM     13  O   UNL     1      49.287   7.667  11.445  0.00  0.00    +0.000 OA
ATOM     14  C   UNL     1      49.401   8.092  13.772  0.00  0.00    +0.000 A 
ATOM     15  H   UNL     1      50.444   9.831  11.199  0.00  0.00    +0.000 HD
ENDBRANCH   2   5
BRANCH   3  16
ATOM     16  C   UNL     1      45.154   7.067  12.861  0.00  0.00    +0.000 C 
BRANCH  16  17
ATOM     17  C   UNL     1      45.033   6.181  11.633  0.00  0.00    +0.000 A 
ATOM     18  N   UNL     1      44.000   5.309  11.584  0.00  0.00    +0.000 NA
ATOM     19  C   UNL     1      43.941   4.510  10.497  0.00  0.00    +0.000 A 
ATOM     20  C   UNL     1      44.872   4.526   9.477  0.00  0.00    +0.000 A 
ATOM     21  C   UNL     1      45.900   5.426   9.652  0.00  0.00    +0.000 A 
ATOM     22  N   UNL     1      46.006   6.254  10.707  0.00  0.00    +0.000 NA
BRANCH  20  23
ATOM     23  C   UNL     1      44.794   3.634   8.276  0.00  0.00    +0.000 C 
BRANCH  23  24
ATOM     24  C   UNL     1      46.120   2.934   7.895  0.00  0.00    +0.000 C 
ATOM     25  C   UNL     1      46.492   3.188   6.424  0.00  0.00    +0.000 C 
ATOM     26  C   UNL     1      47.546   2.220   5.902  0.00  0.00    +0.000 C 
ATOM     27  O   UNL     1      47.156   0.874   6.149  0.00  0.00    +0.000 OA
ATOM     28  C   UNL     1      47.092   0.600   7.544  0.00  0.00    +0.000 C 
ATOM     29  C   UNL     1      45.995   1.429   8.195  0.00  0.00    +0.000 C 
ENDBRANCH  23  24
ENDBRANCH  20  23
ENDBRANCH  16  17
ENDBRANCH   3  16
TORSDOF 5
ENDMDL
MODEL 6
REMARK VINA RESULT:    -7.144      3.083      8.823
REMARK INTER + INTRA:          -9.764
REMARK INTER:                  -9.280
REMARK INTRA:                  -0.484
REMARK UNBOUND:                -0.532
REMARK  Name = 
REMARK  5 active torsions:
REMARK  status: ('A' for Active; 'I' for Inactive)
REMARK    1  A    between atoms: C_2  and  C_18
REMARK    2  A    between atoms: N_3  and  C_4
REMARK    3  A    between atoms: C_4  and  C_5
REMARK    4  A    between atoms: C_8  and  C_9
REMARK    5  A    between atoms: C_9  and  C_10
REMARK                            x       y       z     vdW  Elec       q    Type
REMARK                         _______ _______ _______ _____ _____    ______ ____
ROOT
ATOM      1  O   UNL     1      45.474   7.381  11.469  0.00  0.00    +0.000 OA
ATOM      2  C   UNL     1      45.780   6.193  11.531  0.00  0.00    +0.000 C 
ATOM      3  N   UNL     1      46.945   5.703  12.075  0.00  0.00    +0.000 N 
ATOM      4  H   UNL     1      47.003   4.713  12.256  0.00  0.00    +0.000 HD
ENDROOT
BRANCH   2   5
ATOM      5  C   UNL     1      44.859   5.113  11.187  0.00  0.00    +0.000 A 
ATOM      6  C   UNL     1      43.833   4.710  12.024  0.00  0.00    +0.000 A 
ATOM      7  S   UNL     1      43.253   3.148  11.615  0.00  0.00    +0.000 S 
ATOM      8  C   UNL     1      44.280   3.058  10.255  0.00  0.00    +0.000 A 
ATOM      9  N   UNL     1      44.409   1.927   9.508  0.00  0.00    +0.000 NA
ATOM     10  C   UNL     1      45.191   2.055   8.487  0.00  0.00    +0.000 A 
ATOM     11  N   UNL     1      45.815   3.222   8.111  0.00  0.00    +0.000 N 
ATOM     12  C   UNL     1      45.701   4.393   8.825  0.00  0.00    +0.000 A 
ATOM     13  O   UNL     1      46.202   5.438   8.435  0.00  0.00    +0.000 OA
ATOM     14  C   UNL     1      44.937   4.251  10.048  0.00  0.00    +0.000 A 
ATOM     15  H   UNL     1      46.342   3.278   7.252  0.00  0.00    +0.000 HD
ENDBRANCH   2   5
BRANCH   3  16
ATOM     16  C   UNL     1      47.813   6.506  12.906  0.00  0.00    +0.000 C 
BRANCH  16  17
ATOM     17  C   UNL     1      47.893   5.950  14.318  0.00  0.00    +0.000 A 
ATOM     18  N   UNL     1      48.757   6.534  15.178  0.00  0.00    +0.000 NA
ATOM     19  C   UNL     1      48.832   5.994  16.413  0.00  0.00    +0.000 A 
ATOM     20  C   UNL     1      48.107   4.891  16.817  0.00  0.00    +0.000 A 
ATOM     21  C   UNL     1      47.289   4.355  15.846  0.00  0.00    +0.000 A 
ATOM     22  N   UNL     1      47.165   4.856  14.604  0.00  0.00    +0.000 NA
BRANCH  20  23
ATOM     23  C   UNL     1      48.199   4.302  18.191  0.00  0.00    +0.000 C 
BRANCH  23  24
ATOM     24  C   UNL     1      49.500   3.515  18.478  0.00  0.00    +0.000 C 
ATOM     25  C   UNL     1      50.688   4.458  18.736  0.00  0.00    +0.000 C 
ATOM     26  C   UNL     1      52.036   3.758  18.628  0.00  0.00    +0.000 C 
ATOM     27  O   UNL     1      52.143   3.064  17.391  0.00  0.00    +0.000 OA
ATOM     28  C   UNL     1      51.194   2.006  17.306  0.00  0.00    +0.000 C 
ATOM     29  C   UNL     1      49.779   2.566  17.298  0.00  0.00    +0.000 C 
ENDBRANCH  23  24
ENDBRANCH  20  23
ENDBRANCH  16  17
ENDBRANCH   3  16
TORSDOF 5
ENDMDL
MODEL 7
REMARK VINA RESULT:    -7.043      4.072     10.161
REMARK INTER + INTRA:          -9.634
REMARK INTER:                  -8.963
REMARK INTRA:                  -0.671
REMARK UNBOUND:                -0.532
REMARK  Name = 
REMARK  5 active torsions:
REMARK  status: ('A' for Active; 'I' for Inactive)
REMARK    1  A    between atoms: C_2  and  C_18
REMARK    2  A    between atoms: N_3  and  C_4
REMARK    3  A    between atoms: C_4  and  C_5
REMARK    4  A    between atoms: C_8  and  C_9
REMARK    5  A    between atoms: C_9  and  C_10
REMARK                            x       y       z     vdW  Elec       q    Type
REMARK                         _______ _______ _______ _____ _____    ______ ____
ROOT
ATOM      1  O   UNL     1      47.547   3.063  13.710  0.00  0.00    +0.000 OA
ATOM      2  C   UNL     1      46.853   4.029  14.014  0.00  0.00    +0.000 C 
ATOM      3  N   UNL     1      46.609   4.456  15.299  0.00  0.00    +0.000 N 
ATOM      4  H   UNL     1      46.200   5.368  15.425  0.00  0.00    +0.000 HD
ENDROOT
BRANCH   2   5
ATOM      5  C   UNL     1      46.327   4.975  13.032  0.00  0.00    +0.000 A 
ATOM      6  C   UNL     1      46.986   6.143  12.692  0.00  0.00    +0.000 A 
ATOM      7  S   UNL     1      45.937   7.266  11.929  0.00  0.00    +0.000 S 
ATOM      8  C   UNL     1      44.642   6.155  11.942  0.00  0.00    +0.000 A 
ATOM      9  N   UNL     1      43.380   6.497  11.562  0.00  0.00    +0.000 NA
ATOM     10  C   UNL     1      42.536   5.518  11.587  0.00  0.00    +0.000 A 
ATOM     11  N   UNL     1      42.848   4.216  11.905  0.00  0.00    +0.000 N 
ATOM     12  C   UNL     1      44.112   3.821  12.278  0.00  0.00    +0.000 A 
ATOM     13  O   UNL     1      44.386   2.648  12.485  0.00  0.00    +0.000 OA
ATOM     14  C   UNL     1      45.051   4.918  12.388  0.00  0.00    +0.000 A 
ATOM     15  H   UNL     1      42.163   3.481  11.820  0.00  0.00    +0.000 HD
ENDBRANCH   2   5
BRANCH   3  16
ATOM     16  C   UNL     1      47.381   3.995  16.431  0.00  0.00    +0.000 C 
BRANCH  16  17
ATOM     17  C   UNL     1      47.632   5.120  17.421  0.00  0.00    +0.000 A 
ATOM     18  N   UNL     1      46.836   5.189  18.512  0.00  0.00    +0.000 NA
ATOM     19  C   UNL     1      47.059   6.221  19.354  0.00  0.00    +0.000 A 
ATOM     20  C   UNL     1      48.017   7.194  19.144  0.00  0.00    +0.000 A 
ATOM     21  C   UNL     1      48.741   7.044  17.981  0.00  0.00    +0.000 A 
ATOM     22  N   UNL     1      48.571   6.032  17.112  0.00  0.00    +0.000 NA
BRANCH  20  23
ATOM     23  C   UNL     1      48.254   8.333  20.086  0.00  0.00    +0.000 C 
BRANCH  23  24
ATOM     24  C   UNL     1      47.017   9.220  20.362  0.00  0.00    +0.000 C 
ATOM     25  C   UNL     1      47.178  10.623  19.752  0.00  0.00    +0.000 C 
ATOM     26  C   UNL     1      46.192  11.635  20.321  0.00  0.00    +0.000 C 
ATOM     27  O   UNL     1      46.248  11.643  21.743  0.00  0.00    +0.000 OA
ATOM     28  C   UNL     1      45.820  10.399  22.285  0.00  0.00    +0.000 C 
ATOM     29  C   UNL     1      46.781   9.289  21.882  0.00  0.00    +0.000 C 
ENDBRANCH  23  24
ENDBRANCH  20  23
ENDBRANCH  16  17
ENDBRANCH   3  16
TORSDOF 5
ENDMDL
MODEL 8
REMARK VINA RESULT:    -6.987      3.297      4.829
REMARK INTER + INTRA:          -9.562
REMARK INTER:                  -8.806
REMARK INTRA:                  -0.755
REMARK UNBOUND:                -0.532
REMARK  Name = 
REMARK  5 active torsions:
REMARK  status: ('A' for Active; 'I' for Inactive)
REMARK    1  A    between atoms: C_2  and  C_18
REMARK    2  A    between atoms: N_3  and  C_4
REMARK    3  A    between atoms: C_4  and  C_5
REMARK    4  A    between atoms: C_8  and  C_9
REMARK    5  A    between atoms: C_9  and  C_10
REMARK                            x       y       z     vdW  Elec       q    Type
REMARK                         _______ _______ _______ _____ _____    ______ ____
ROOT
ATOM      1  O   UNL     1      48.662   6.440  17.767  0.00  0.00    +0.000 OA
ATOM      2  C   UNL     1      49.727   6.079  17.274  0.00  0.00    +0.000 C 
ATOM      3  N   UNL     1      50.248   6.545  16.088  0.00  0.00    +0.000 N 
ATOM      4  H   UNL     1      51.212   6.336  15.880  0.00  0.00    +0.000 HD
ENDROOT
BRANCH   2   5
ATOM      5  C   UNL     1      50.682   5.224  17.973  0.00  0.00    +0.000 A 
ATOM      6  C   UNL     1      51.704   5.729  18.758  0.00  0.00    +0.000 A 
ATOM      7  S   UNL     1      52.933   4.564  19.031  0.00  0.00    +0.000 S 
ATOM      8  C   UNL     1      52.051   3.355  18.211  0.00  0.00    +0.000 A 
ATOM      9  N   UNL     1      52.570   2.125  17.942  0.00  0.00    +0.000 NA
ATOM     10  C   UNL     1      51.745   1.319  17.359  0.00  0.00    +0.000 A 
ATOM     11  N   UNL     1      50.432   1.609  17.066  0.00  0.00    +0.000 N 
ATOM     12  C   UNL     1      49.860   2.831  17.334  0.00  0.00    +0.000 A 
ATOM     13  O   UNL     1      48.673   3.046  17.135  0.00  0.00    +0.000 OA
ATOM     14  C   UNL     1      50.794   3.801  17.868  0.00  0.00    +0.000 A 
ATOM     15  H   UNL     1      49.814   0.905  16.690  0.00  0.00    +0.000 HD
ENDBRANCH   2   5
BRANCH   3  16
ATOM     16  C   UNL     1      49.747   7.731  15.431  0.00  0.00    +0.000 C 
BRANCH  16  17
ATOM     17  C   UNL     1      48.646   7.389  14.442  0.00  0.00    +0.000 A 
ATOM     18  N   UNL     1      47.760   8.360  14.125  0.00  0.00    +0.000 NA
ATOM     19  C   UNL     1      46.770   8.015  13.272  0.00  0.00    +0.000 A 
ATOM     20  C   UNL     1      46.614   6.747  12.746  0.00  0.00    +0.000 A 
ATOM     21  C   UNL     1      47.551   5.831  13.170  0.00  0.00    +0.000 A 
ATOM     22  N   UNL     1      48.564   6.119  14.007  0.00  0.00    +0.000 NA
BRANCH  20  23
ATOM     23  C   UNL     1      45.512   6.379  11.801  0.00  0.00    +0.000 C 
BRANCH  23  24
ATOM     24  C   UNL     1      45.252   4.860  11.663  0.00  0.00    +0.000 C 
ATOM     25  C   UNL     1      44.890   4.476  10.218  0.00  0.00    +0.000 C 
ATOM     26  C   UNL     1      44.250   3.098  10.112  0.00  0.00    +0.000 C 
ATOM     27  O   UNL     1      43.147   2.988  11.004  0.00  0.00    +0.000 OA
ATOM     28  C   UNL     1      43.567   3.073  12.361  0.00  0.00    +0.000 C 
ATOM     29  C   UNL     1      44.142   4.451  12.650  0.00  0.00    +0.000 C 
ENDBRANCH  23  24
ENDBRANCH  20  23
ENDBRANCH  16  17
ENDBRANCH   3  16
TORSDOF 5
ENDMDL
MODEL 9
REMARK VINA RESULT:    -6.842      1.966      2.925
REMARK INTER + INTRA:          -9.374
REMARK INTER:                  -9.039
REMARK INTRA:                  -0.335
REMARK UNBOUND:                -0.532
REMARK  Name = 
REMARK  5 active torsions:
REMARK  status: ('A' for Active; 'I' for Inactive)
REMARK    1  A    between atoms: C_2  and  C_18
REMARK    2  A    between atoms: N_3  and  C_4
REMARK    3  A    between atoms: C_4  and  C_5
REMARK    4  A    between atoms: C_8  and  C_9
REMARK    5  A    between atoms: C_9  and  C_10
REMARK                            x       y       z     vdW  Elec       q    Type
REMARK                         _______ _______ _______ _____ _____    ______ ____
ROOT
ATOM      1  O   UNL     1      48.477   8.220  16.252  0.00  0.00    +0.000 OA
ATOM      2  C   UNL     1      48.648   7.026  16.024  0.00  0.00    +0.000 C 
ATOM      3  N   UNL     1      48.291   6.382  14.861  0.00  0.00    +0.000 N 
ATOM      4  H   UNL     1      48.657   5.457  14.701  0.00  0.00    +0.000 HD
ENDROOT
BRANCH   2   5
ATOM      5  C   UNL     1      49.421   6.149  16.900  0.00  0.00    +0.000 A 
ATOM      6  C   UNL     1      50.531   6.585  17.603  0.00  0.00    +0.000 A 
ATOM      7  S   UNL     1      51.508   5.275  18.127  0.00  0.00    +0.000 S 
ATOM      8  C   UNL     1      50.396   4.129  17.525  0.00  0.00    +0.000 A 
ATOM      9  N   UNL     1      50.659   2.793  17.508  0.00  0.00    +0.000 NA
ATOM     10  C   UNL     1      49.685   2.068  17.064  0.00  0.00    +0.000 A 
ATOM     11  N   UNL     1      48.453   2.548  16.685  0.00  0.00    +0.000 N 
ATOM     12  C   UNL     1      48.137   3.887  16.701  0.00  0.00    +0.000 A 
ATOM     13  O   UNL     1      47.014   4.288  16.431  0.00  0.00    +0.000 OA
ATOM     14  C   UNL     1      49.250   4.739  17.068  0.00  0.00    +0.000 A 
ATOM     15  H   UNL     1      47.705   1.921  16.431  0.00  0.00    +0.000 HD
ENDBRANCH   2   5
BRANCH   3  16
ATOM     16  C   UNL     1      47.942   7.095  13.653  0.00  0.00    +0.000 C 
BRANCH  16  17
ATOM     17  C   UNL     1      46.830   6.387  12.897  0.00  0.00    +0.000 A 
ATOM     18  N   UNL     1      46.689   5.056  13.086  0.00  0.00    +0.000 NA
ATOM     19  C   UNL     1      45.716   4.448  12.372  0.00  0.00    +0.000 A 
ATOM     20  C   UNL     1      44.902   5.102  11.468  0.00  0.00    +0.000 A 
ATOM     21  C   UNL     1      45.163   6.448  11.329  0.00  0.00    +0.000 A 
ATOM     22  N   UNL     1      46.109   7.108  12.020  0.00  0.00    +0.000 NA
BRANCH  20  23
ATOM     23  C   UNL     1      43.827   4.416  10.683  0.00  0.00    +0.000 C 
BRANCH  23  24
ATOM     24  C   UNL     1      44.305   3.732   9.381  0.00  0.00    +0.000 C 
ATOM     25  C   UNL     1      44.713   2.268   9.626  0.00  0.00    +0.000 C 
ATOM     26  C   UNL     1      45.547   1.686   8.493  0.00  0.00    +0.000 C 
ATOM     27  O   UNL     1      46.658   2.526   8.206  0.00  0.00    +0.000 OA
ATOM     28  C   UNL     1      46.236   3.792   7.711  0.00  0.00    +0.000 C 
ATOM     29  C   UNL     1      45.467   4.548   8.784  0.00  0.00    +0.000 C 
ENDBRANCH  23  24
ENDBRANCH  20  23
ENDBRANCH  16  17
ENDBRANCH   3  16
TORSDOF 5
ENDMDL
