MODEL 1
REMARK VINA RESULT:    -7.318      0.000      0.000
REMARK INTER + INTRA:         -10.782
REMARK INTER:                 -10.099
REMARK INTRA:                  -0.683
REMARK UNBOUND:                -0.683
REMARK  Name = 
REMARK  7 active torsions:
REMARK  status: ('A' for Active; 'I' for Inactive)
REMARK    1  A    between atoms: C_2  and  C_3
REMARK    2  A    between atoms: C_8  and  C_9
REMARK    3  A    between atoms: C_9  and  C_10
REMARK    4  A    between atoms: C_10  and  O_11
REMARK    5  A    between atoms: O_11  and  C_12
REMARK    6  A    between atoms: C_16  and  C_17
REMARK    7  A    between atoms: C_17  and  N_18
REMARK                            x       y       z     vdW  Elec       q    Type
REMARK                         _______ _______ _______ _____ _____    ______ ____
ROOT
ATOM      1  C   UNL     1      43.679   4.494  10.301  0.00  0.00    +0.000 C 
ENDROOT
BRANCH   1   2
ATOM      2  C   UNL     1      43.779   5.731  11.197  0.00  0.00    +0.000 C 
BRANCH   2   8
ATOM      3  C   UNL     1      46.814   4.895  13.370  0.00  0.00    +0.000 A 
ATOM      4  C   UNL     1      47.684   5.941  13.047  0.00  0.00    +0.000 A 
ATOM      5  C   UNL     1      47.279   6.914  12.136  0.00  0.00    +0.000 A 
ATOM      6 CL   UNL     1      48.352   8.197  11.728  0.00  0.00    +0.000 Cl
ATOM      7  C   UNL     1      46.016   6.855  11.545  0.00  0.00    +0.000 A 
ATOM      8  C   UNL     1      45.132   5.817  11.865  0.00  0.00    +0.000 A 
ATOM      9  C   UNL     1      45.543   4.833  12.780  0.00  0.00    +0.000 A 
BRANCH   3  11
ATOM     10  N   UNL     1      47.560   3.064  15.051  0.00  0.00    +0.000 NA
ATOM     11  C   UNL     1      47.225   3.885  14.299  0.00  0.00    +0.000 C 
ENDBRANCH   3  11
ENDBRANCH   2   8
ENDBRANCH   1   2
BRANCH   1  12
ATOM     12  O   UNL     1      44.474   4.675   9.125  0.00  0.00    +0.000 OA
BRANCH  12  13
ATOM     13  C   UNL     1      45.135   3.558   8.677  0.00  0.00    +0.000 A 
ATOM     14  C   UNL     1      44.953   2.262   9.167  0.00  0.00    +0.000 A 
ATOM     15  C   UNL     1      45.666   1.195   8.620  0.00  0.00    +0.000 A 
ATOM     16  C   UNL     1      46.556   1.410   7.571  0.00  0.00    +0.000 A 
ATOM     17  C   UNL     1      46.750   2.700   7.056  0.00  0.00    +0.000 A 
ATOM     18  C   UNL     1      46.044   3.771   7.633  0.00  0.00    +0.000 A 
BRANCH  17  19
ATOM     19  C   UNL     1      47.629   2.908   5.849  0.00  0.00    +0.000 C 
BRANCH  19  20
ATOM     20  N   UNL     1      48.540   1.791   5.622  0.00  0.00    +0.000 NA
ATOM     21  H   UNL     1      49.479   2.073   5.898  0.00  0.00    +0.000 HD
ATOM     22  H   UNL     1      48.581   1.597   4.623  0.00  0.00    +0.000 HD
ENDBRANCH  19  20
ENDBRANCH  17  19
ENDBRANCH  12  13
ENDBRANCH   1  12
TORSDOF 7
ENDMDL
MODEL 2
REMARK VINA RESULT:    -6.275      2.574      3.280
REMARK INTER + INTRA:          -9.343
REMARK INTER:                  -8.869
REMARK INTRA:                  -0.474
REMARK UNBOUND:                -0.683
REMARK  Name = 
REMARK  7 active torsions:
REMARK  status: ('A' for Active; 'I' for Inactive)
REMARK    1  A    between atoms: C_2  and  C_3
REMARK    2  A    between atoms: C_8  and  C_9
REMARK    3  A    between atoms: C_9  and  C_10
REMARK    4  A    between atoms: C_10  and  O_11
REMARK    5  A    between atoms: O_11  and  C_12
REMARK    6  A    between atoms: C_16  and  C_17
REMARK    7  A    between atoms: C_17  and  N_18
REMARK                            x       y       z     vdW  Elec       q    Type
REMARK                         _______ _______ _______ _____ _____    ______ ____
ROOT
ATOM      1  C   UNL     1      44.705   5.317  10.587  0.00  0.00    +0.000 C 
ENDROOT
BRANCH   1   2
ATOM      2  C   UNL     1      45.749   5.522  11.686  0.00  0.00    +0.000 C 
BRANCH   2   8
ATOM      3  C   UNL     1      45.537   9.335  11.928  0.00  0.00    +0.000 A 
ATOM      4  C   UNL     1      46.882   9.677  12.097  0.00  0.00    +0.000 A 
ATOM      5  C   UNL     1      47.848   8.674  12.122  0.00  0.00    +0.000 A 
ATOM      6 CL   UNL     1      49.504   9.092  12.341  0.00  0.00    +0.000 Cl
ATOM      7  C   UNL     1      47.488   7.334  11.980  0.00  0.00    +0.000 A 
ATOM      8  C   UNL     1      46.144   6.976  11.802  0.00  0.00    +0.000 A 
ATOM      9  C   UNL     1      45.170   7.988  11.783  0.00  0.00    +0.000 A 
BRANCH   3  11
ATOM     10  N   UNL     1      43.723  11.189  11.891  0.00  0.00    +0.000 NA
ATOM     11  C   UNL     1      44.535  10.358  11.910  0.00  0.00    +0.000 C 
ENDBRANCH   3  11
ENDBRANCH   2   8
ENDBRANCH   1   2
BRANCH   1  12
ATOM     12  O   UNL     1      45.346   5.260   9.308  0.00  0.00    +0.000 OA
BRANCH  12  13
ATOM     13  C   UNL     1      45.587   3.999   8.819  0.00  0.00    +0.000 A 
ATOM     14  C   UNL     1      45.110   2.812   9.382  0.00  0.00    +0.000 A 
ATOM     15  C   UNL     1      45.401   1.584   8.786  0.00  0.00    +0.000 A 
ATOM     16  C   UNL     1      46.157   1.533   7.618  0.00  0.00    +0.000 A 
ATOM     17  C   UNL     1      46.639   2.711   7.030  0.00  0.00    +0.000 A 
ATOM     18  C   UNL     1      46.361   3.940   7.654  0.00  0.00    +0.000 A 
BRANCH  17  19
ATOM     19  C   UNL     1      47.361   2.655   5.707  0.00  0.00    +0.000 C 
BRANCH  19  20
ATOM     20  N   UNL     1      48.579   1.854   5.768  0.00  0.00    +0.000 NA
ATOM     21  H   UNL     1      48.808   1.533   4.829  0.00  0.00    +0.000 HD
ATOM     22  H   UNL     1      48.395   1.018   6.321  0.00  0.00    +0.000 HD
ENDBRANCH  19  20
ENDBRANCH  17  19
ENDBRANCH  12  13
ENDBRANCH   1  12
TORSDOF 7
ENDMDL
MODEL 3
REMARK VINA RESULT:    -6.136      2.082      2.953
REMARK INTER + INTRA:          -9.150
REMARK INTER:                  -8.618
REMARK INTRA:                  -0.533
REMARK UNBOUND:                -0.683
REMARK  Name = 
REMARK  7 active torsions:
REMARK  status: ('A' for Active; 'I' for Inactive)
REMARK    1  A    between atoms: C_2  and  C_3
REMARK    2  A    between atoms: C_8  and  C_9
REMARK    3  A    between atoms: C_9  and  C_10
REMARK    4  A    between atoms: C_10  and  O_11
REMARK    5  A    between atoms: O_11  and  C_12
REMARK    6  A    between atoms: C_16  and  C_17
REMARK    7  A    between atoms: C_17  and  N_18
REMARK                            x       y       z     vdW  Elec       q    Type
REMARK                         _______ _______ _______ _____ _____    ______ ____
ROOT
ATOM      1  C   UNL     1      45.343   5.947  12.477  0.00  0.00    +0.000 C 
ENDROOT
BRANCH   1   2
ATOM      2  C   UNL     1      46.873   5.938  12.468  0.00  0.00    +0.000 C 
BRANCH   2   8
ATOM      3  C   UNL     1      47.569   4.662  16.007  0.00  0.00    +0.000 A 
ATOM      4  C   UNL     1      48.528   5.578  16.449  0.00  0.00    +0.000 A 
ATOM      5  C   UNL     1      48.936   6.607  15.603  0.00  0.00    +0.000 A 
ATOM      6 CL   UNL     1      50.126   7.731  16.140  0.00  0.00    +0.000 Cl
ATOM      7  C   UNL     1      48.397   6.733  14.322  0.00  0.00    +0.000 A 
ATOM      8  C   UNL     1      47.429   5.826  13.869  0.00  0.00    +0.000 A 
ATOM      9  C   UNL     1      47.023   4.786  14.721  0.00  0.00    +0.000 A 
BRANCH   3  11
ATOM     10  N   UNL     1      46.807   2.732  17.564  0.00  0.00    +0.000 NA
ATOM     11  C   UNL     1      47.150   3.596  16.866  0.00  0.00    +0.000 C 
ENDBRANCH   3  11
ENDBRANCH   2   8
ENDBRANCH   1   2
BRANCH   1  12
ATOM     12  O   UNL     1      44.845   5.955  11.136  0.00  0.00    +0.000 OA
BRANCH  12  13
ATOM     13  C   UNL     1      44.771   4.728  10.522  0.00  0.00    +0.000 A 
ATOM     14  C   UNL     1      44.139   3.599  11.050  0.00  0.00    +0.000 A 
ATOM     15  C   UNL     1      44.108   2.406  10.327  0.00  0.00    +0.000 A 
ATOM     16  C   UNL     1      44.695   2.335   9.066  0.00  0.00    +0.000 A 
ATOM     17  C   UNL     1      45.328   3.457   8.511  0.00  0.00    +0.000 A 
ATOM     18  C   UNL     1      45.375   4.645   9.262  0.00  0.00    +0.000 A 
BRANCH  17  19
ATOM     19  C   UNL     1      45.862   3.403   7.102  0.00  0.00    +0.000 C 
BRANCH  19  20
ATOM     20  N   UNL     1      47.045   4.237   6.921  0.00  0.00    +0.000 NA
ATOM     21  H   UNL     1      47.849   3.757   7.321  0.00  0.00    +0.000 HD
ATOM     22  H   UNL     1      46.928   5.095   7.458  0.00  0.00    +0.000 HD
ENDBRANCH  19  20
ENDBRANCH  17  19
ENDBRANCH  12  13
ENDBRANCH   1  12
TORSDOF 7
ENDMDL
MODEL 4
REMARK VINA RESULT:    -6.098      2.238      2.851
REMARK INTER + INTRA:          -9.098
REMARK INTER:                  -8.609
REMARK INTRA:                  -0.489
REMARK UNBOUND:                -0.683
REMARK  Name = 
REMARK  7 active torsions:
REMARK  status: ('A' for Active; 'I' for Inactive)
REMARK    1  A    between atoms: C_2  and  C_3
REMARK    2  A    between atoms: C_8  and  C_9
REMARK    3  A    between atoms: C_9  and  C_10
REMARK    4  A    between atoms: C_10  and  O_11
REMARK    5  A    between atoms: O_11  and  C_12
REMARK    6  A    between atoms: C_16  and  C_17
REMARK    7  A    between atoms: C_17  and  N_18
REMARK                            x       y       z     vdW  Elec       q    Type
REMARK                         _______ _______ _______ _____ _____    ______ ____
ROOT
ATOM      1  C   UNL     1      44.704   5.205  10.634  0.00  0.00    +0.000 C 
ENDROOT
BRANCH   1   2
ATOM      2  C   UNL     1      45.697   5.354  11.787  0.00  0.00    +0.000 C 
BRANCH   2   8
ATOM      3  C   UNL     1      48.038   8.375  11.976  0.00  0.00    +0.000 A 
ATOM      4  C   UNL     1      47.124   9.431  12.029  0.00  0.00    +0.000 A 
ATOM      5  C   UNL     1      45.758   9.159  12.012  0.00  0.00    +0.000 A 
ATOM      6 CL   UNL     1      44.630  10.460  12.066  0.00  0.00    +0.000 Cl
ATOM      7  C   UNL     1      45.294   7.845  11.945  0.00  0.00    +0.000 A 
ATOM      8  C   UNL     1      46.198   6.776  11.899  0.00  0.00    +0.000 A 
ATOM      9  C   UNL     1      47.576   7.052  11.910  0.00  0.00    +0.000 A 
BRANCH   3  11
ATOM     10  N   UNL     1      50.586   8.864  11.993  0.00  0.00    +0.000 NA
ATOM     11  C   UNL     1      49.445   8.645  11.983  0.00  0.00    +0.000 C 
ENDBRANCH   3  11
ENDBRANCH   2   8
ENDBRANCH   1   2
BRANCH   1  12
ATOM     12  O   UNL     1      45.402   5.190   9.384  0.00  0.00    +0.000 OA
BRANCH  12  13
ATOM     13  C   UNL     1      45.630   3.947   8.846  0.00  0.00    +0.000 A 
ATOM     14  C   UNL     1      45.147   2.743   9.364  0.00  0.00    +0.000 A 
ATOM     15  C   UNL     1      45.425   1.536   8.720  0.00  0.00    +0.000 A 
ATOM     16  C   UNL     1      46.175   1.525   7.547  0.00  0.00    +0.000 A 
ATOM     17  C   UNL     1      46.664   2.721   7.003  0.00  0.00    +0.000 A 
ATOM     18  C   UNL     1      46.399   3.927   7.676  0.00  0.00    +0.000 A 
BRANCH  17  19
ATOM     19  C   UNL     1      47.380   2.711   5.675  0.00  0.00    +0.000 C 
BRANCH  19  20
ATOM     20  N   UNL     1      48.565   1.860   5.686  0.00  0.00    +0.000 NA
ATOM     21  H   UNL     1      48.778   1.584   4.729  0.00  0.00    +0.000 HD
ATOM     22  H   UNL     1      48.350   1.003   6.192  0.00  0.00    +0.000 HD
ENDBRANCH  19  20
ENDBRANCH  17  19
ENDBRANCH  12  13
ENDBRANCH   1  12
TORSDOF 7
ENDMDL
MODEL 5
REMARK VINA RESULT:    -6.055      2.087      2.552
REMARK INTER + INTRA:          -9.039
REMARK INTER:                  -8.663
REMARK INTRA:                  -0.376
REMARK UNBOUND:                -0.683
REMARK  Name = 
REMARK  7 active torsions:
REMARK  status: ('A' for Active; 'I' for Inactive)
REMARK    1  A    between atoms: C_2  and  C_3
REMARK    2  A    between atoms: C_8  and  C_9
REMARK    3  A    between atoms: C_9  and  C_10
REMARK    4  A    between atoms: C_10  and  O_11
REMARK    5  A    between atoms: O_11  and  C_12
REMARK    6  A    between atoms: C_16  and  C_17
REMARK    7  A    between atoms: C_17  and  N_18
REMARK                            x       y       z     vdW  Elec       q    Type
REMARK                         _______ _______ _______ _____ _____    ______ ____
ROOT
ATOM      1  C   UNL     1      43.711   4.879   9.768  0.00  0.00    +0.000 C 
ENDROOT
BRANCH   1   2
ATOM      2  C   UNL     1      43.499   4.727  11.276  0.00  0.00    +0.000 C 
BRANCH   2   8
ATOM      3  C   UNL     1      46.228   6.997  12.705  0.00  0.00    +0.000 A 
ATOM      4  C   UNL     1      46.904   6.116  13.555  0.00  0.00    +0.000 A 
ATOM      5  C   UNL     1      46.478   4.794  13.654  0.00  0.00    +0.000 A 
ATOM      6 CL   UNL     1      47.302   3.710  14.709  0.00  0.00    +0.000 Cl
ATOM      7  C   UNL     1      45.387   4.339  12.912  0.00  0.00    +0.000 A 
ATOM      8  C   UNL     1      44.705   5.208  12.050  0.00  0.00    +0.000 A 
ATOM      9  C   UNL     1      45.131   6.543  11.956  0.00  0.00    +0.000 A 
BRANCH   3  11
ATOM     10  N   UNL     1      47.000   9.467  12.520  0.00  0.00    +0.000 NA
ATOM     11  C   UNL     1      46.652   8.361  12.603  0.00  0.00    +0.000 C 
ENDBRANCH   3  11
ENDBRANCH   2   8
ENDBRANCH   1   2
BRANCH   1  12
ATOM     12  O   UNL     1      45.105   4.795   9.458  0.00  0.00    +0.000 OA
BRANCH  12  13
ATOM     13  C   UNL     1      45.507   3.637   8.837  0.00  0.00    +0.000 A 
ATOM     14  C   UNL     1      45.219   2.343   9.280  0.00  0.00    +0.000 A 
ATOM     15  C   UNL     1      45.662   1.235   8.555  0.00  0.00    +0.000 A 
ATOM     16  C   UNL     1      46.382   1.411   7.377  0.00  0.00    +0.000 A 
ATOM     17  C   UNL     1      46.676   2.699   6.908  0.00  0.00    +0.000 A 
ATOM     18  C   UNL     1      46.247   3.806   7.661  0.00  0.00    +0.000 A 
BRANCH  17  19
ATOM     19  C   UNL     1      47.359   2.881   5.575  0.00  0.00    +0.000 C 
BRANCH  19  20
ATOM     20  N   UNL     1      48.453   1.937   5.375  0.00  0.00    +0.000 NA
ATOM     21  H   UNL     1      49.303   2.331   5.775  0.00  0.00    +0.000 HD
ATOM     22  H   UNL     1      48.624   1.839   4.376  0.00  0.00    +0.000 HD
ENDBRANCH  19  20
ENDBRANCH  17  19
ENDBRANCH  12  13
ENDBRANCH   1  12
TORSDOF 7
ENDMDL
MODEL 6
REMARK VINA RESULT:    -6.006      1.446      2.144
REMARK INTER + INTRA:          -8.972
REMARK INTER:                  -8.612
REMARK INTRA:                  -0.359
REMARK UNBOUND:                -0.683
REMARK  Name = 
REMARK  7 active torsions:
REMARK  status: ('A' for Active; 'I' for Inactive)
REMARK    1  A    between atoms: C_2  and  C_3
REMARK    2  A    between atoms: C_8  and  C_9
REMARK    3  A    between atoms: C_9  and  C_10
REMARK    4  A    between atoms: C_10  and  O_11
REMARK    5  A    between atoms: O_11  and  C_12
REMARK    6  A    between atoms: C_16  and  C_17
REMARK    7  A    between atoms: C_17  and  N_18
REMARK                            x       y       z     vdW  Elec       q    Type
REMARK                         _______ _______ _______ _____ _____    ______ ____
ROOT
ATOM      1  C   UNL     1      44.071   4.201   9.098  0.00  0.00    +0.000 C 
ENDROOT
BRANCH   1   2
ATOM      2  C   UNL     1      43.861   3.632  10.502  0.00  0.00    +0.000 C 
BRANCH   2   8
ATOM      3  C   UNL     1      46.269   4.394  13.376  0.00  0.00    +0.000 A 
ATOM      4  C   UNL     1      46.259   5.792  13.383  0.00  0.00    +0.000 A 
ATOM      5  C   UNL     1      45.468   6.478  12.464  0.00  0.00    +0.000 A 
ATOM      6 CL   UNL     1      45.463   8.200  12.463  0.00  0.00    +0.000 Cl
ATOM      7  C   UNL     1      44.684   5.785  11.541  0.00  0.00    +0.000 A 
ATOM      8  C   UNL     1      44.678   4.384  11.527  0.00  0.00    +0.000 A 
ATOM      9  C   UNL     1      45.481   3.693  12.450  0.00  0.00    +0.000 A 
BRANCH   3  11
ATOM     10  N   UNL     1      47.751   3.098  15.066  0.00  0.00    +0.000 NA
ATOM     11  C   UNL     1      47.086   3.680  14.310  0.00  0.00    +0.000 C 
ENDBRANCH   3  11
ENDBRANCH   2   8
ENDBRANCH   1   2
BRANCH   1  12
ATOM     12  O   UNL     1      45.468   4.394   8.851  0.00  0.00    +0.000 OA
BRANCH  12  13
ATOM     13  C   UNL     1      46.031   3.542   7.933  0.00  0.00    +0.000 A 
ATOM     14  C   UNL     1      46.568   3.926   6.701  0.00  0.00    +0.000 A 
ATOM     15  C   UNL     1      47.137   2.974   5.853  0.00  0.00    +0.000 A 
ATOM     16  C   UNL     1      47.187   1.636   6.234  0.00  0.00    +0.000 A 
ATOM     17  C   UNL     1      46.663   1.228   7.469  0.00  0.00    +0.000 A 
ATOM     18  C   UNL     1      46.069   2.192   8.303  0.00  0.00    +0.000 A 
BRANCH  17  19
ATOM     19  C   UNL     1      46.821  -0.202   7.922  0.00  0.00    +0.000 C 
BRANCH  19  20
ATOM     20  N   UNL     1      46.539  -1.159   6.858  0.00  0.00    +0.000 NA
ATOM     21  H   UNL     1      45.554  -1.416   6.900  0.00  0.00    +0.000 HD
ATOM     22  H   UNL     1      47.066  -2.013   7.035  0.00  0.00    +0.000 HD
ENDBRANCH  19  20
ENDBRANCH  17  19
ENDBRANCH  12  13
ENDBRANCH   1  12
TORSDOF 7
ENDMDL
MODEL 7
REMARK VINA RESULT:    -5.936      4.274      6.462
REMARK INTER + INTRA:          -8.874
REMARK INTER:                  -8.497
REMARK INTRA:                  -0.377
REMARK UNBOUND:                -0.683
REMARK  Name = 
REMARK  7 active torsions:
REMARK  status: ('A' for Active; 'I' for Inactive)
REMARK    1  A    between atoms: C_2  and  C_3
REMARK    2  A    between atoms: C_8  and  C_9
REMARK    3  A    between atoms: C_9  and  C_10
REMARK    4  A    between atoms: C_10  and  O_11
REMARK    5  A    between atoms: O_11  and  C_12
REMARK    6  A    between atoms: C_16  and  C_17
REMARK    7  A    between atoms: C_17  and  N_18
REMARK                            x       y       z     vdW  Elec       q    Type
REMARK                         _______ _______ _______ _____ _____    ______ ____
ROOT
ATOM      1  C   UNL     1      47.301   4.136  15.674  0.00  0.00    +0.000 C 
ENDROOT
BRANCH   1   2
ATOM      2  C   UNL     1      47.720   3.171  16.785  0.00  0.00    +0.000 C 
BRANCH   2   8
ATOM      3  C   UNL     1      51.375   2.441  17.647  0.00  0.00    +0.000 A 
ATOM      4  C   UNL     1      51.891   3.733  17.786  0.00  0.00    +0.000 A 
ATOM      5  C   UNL     1      51.051   4.830  17.609  0.00  0.00    +0.000 A 
ATOM      6 CL   UNL     1      51.687   6.423  17.770  0.00  0.00    +0.000 Cl
ATOM      7  C   UNL     1      49.703   4.653  17.297  0.00  0.00    +0.000 A 
ATOM      8  C   UNL     1      49.171   3.364  17.162  0.00  0.00    +0.000 A 
ATOM      9  C   UNL     1      50.020   2.258  17.334  0.00  0.00    +0.000 A 
BRANCH   3  11
ATOM     10  N   UNL     1      52.926   0.384  17.958  0.00  0.00    +0.000 NA
ATOM     11  C   UNL     1      52.233   1.306  17.817  0.00  0.00    +0.000 C 
ENDBRANCH   3  11
ENDBRANCH   2   8
ENDBRANCH   1   2
BRANCH   1  12
ATOM     12  O   UNL     1      47.206   3.437  14.429  0.00  0.00    +0.000 OA
BRANCH  12  13
ATOM     13  C   UNL     1      46.581   4.117  13.412  0.00  0.00    +0.000 A 
ATOM     14  C   UNL     1      46.873   5.426  13.019  0.00  0.00    +0.000 A 
ATOM     15  C   UNL     1      46.186   6.012  11.954  0.00  0.00    +0.000 A 
ATOM     16  C   UNL     1      45.214   5.291  11.266  0.00  0.00    +0.000 A 
ATOM     17  C   UNL     1      44.909   3.973  11.636  0.00  0.00    +0.000 A 
ATOM     18  C   UNL     1      45.590   3.404  12.727  0.00  0.00    +0.000 A 
BRANCH  17  19
ATOM     19  C   UNL     1      43.937   3.164  10.816  0.00  0.00    +0.000 C 
BRANCH  19  20
ATOM     20  N   UNL     1      43.091   2.306  11.639  0.00  0.00    +0.000 NA
ATOM     21  H   UNL     1      42.129   2.634  11.573  0.00  0.00    +0.000 HD
ATOM     22  H   UNL     1      43.364   2.413  12.615  0.00  0.00    +0.000 HD
ENDBRANCH  19  20
ENDBRANCH  17  19
ENDBRANCH  12  13
ENDBRANCH   1  12
TORSDOF 7
ENDMDL
MODEL 8
REMARK VINA RESULT:    -5.859      4.544      6.711
REMARK INTER + INTRA:          -8.769
REMARK INTER:                  -8.391
REMARK INTRA:                  -0.378
REMARK UNBOUND:                -0.683
REMARK  Name = 
REMARK  7 active torsions:
REMARK  status: ('A' for Active; 'I' for Inactive)
REMARK    1  A    between atoms: C_2  and  C_3
REMARK    2  A    between atoms: C_8  and  C_9
REMARK    3  A    between atoms: C_9  and  C_10
REMARK    4  A    between atoms: C_10  and  O_11
REMARK    5  A    between atoms: O_11  and  C_12
REMARK    6  A    between atoms: C_16  and  C_17
REMARK    7  A    between atoms: C_17  and  N_18
REMARK                            x       y       z     vdW  Elec       q    Type
REMARK                         _______ _______ _______ _____ _____    ______ ____
ROOT
ATOM      1  C   UNL     1      47.248   4.193  15.668  0.00  0.00    +0.000 C 
ENDROOT
BRANCH   1   2
ATOM      2  C   UNL     1      47.621   3.241  16.806  0.00  0.00    +0.000 C 
BRANCH   2   8
ATOM      3  C   UNL     1      51.032   4.651  17.815  0.00  0.00    +0.000 A 
ATOM      4  C   UNL     1      51.815   3.493  17.839  0.00  0.00    +0.000 A 
ATOM      5  C   UNL     1      51.237   2.266  17.521  0.00  0.00    +0.000 A 
ATOM      6 CL   UNL     1      52.196   0.837  17.561  0.00  0.00    +0.000 Cl
ATOM      7  C   UNL     1      49.887   2.182  17.177  0.00  0.00    +0.000 A 
ATOM      8  C   UNL     1      49.092   3.336  17.141  0.00  0.00    +0.000 A 
ATOM      9  C   UNL     1      49.674   4.571  17.468  0.00  0.00    +0.000 A 
BRANCH   3  11
ATOM     10  N   UNL     1      52.091   6.941  18.419  0.00  0.00    +0.000 NA
ATOM     11  C   UNL     1      51.614   5.916  18.150  0.00  0.00    +0.000 C 
ENDBRANCH   3  11
ENDBRANCH   2   8
ENDBRANCH   1   2
BRANCH   1  12
ATOM     12  O   UNL     1      47.186   3.476  14.430  0.00  0.00    +0.000 OA
BRANCH  12  13
ATOM     13  C   UNL     1      46.549   4.124  13.400  0.00  0.00    +0.000 A 
ATOM     14  C   UNL     1      46.820   5.428  12.977  0.00  0.00    +0.000 A 
ATOM     15  C   UNL     1      46.122   5.980  11.901  0.00  0.00    +0.000 A 
ATOM     16  C   UNL     1      45.160   5.229  11.232  0.00  0.00    +0.000 A 
ATOM     17  C   UNL     1      44.875   3.915  11.632  0.00  0.00    +0.000 A 
ATOM     18  C   UNL     1      45.567   3.381  12.734  0.00  0.00    +0.000 A 
BRANCH  17  19
ATOM     19  C   UNL     1      43.913   3.073  10.833  0.00  0.00    +0.000 C 
BRANCH  19  20
ATOM     20  N   UNL     1      43.049   2.258  11.680  0.00  0.00    +0.000 NA
ATOM     21  H   UNL     1      43.507   1.365  11.852  0.00  0.00    +0.000 HD
ATOM     22  H   UNL     1      42.193   2.047  11.170  0.00  0.00    +0.000 HD
ENDBRANCH  19  20
ENDBRANCH  17  19
ENDBRANCH  12  13
ENDBRANCH   1  12
TORSDOF 7
ENDMDL
MODEL 9
REMARK VINA RESULT:    -5.602      2.811      7.310
REMARK INTER + INTRA:          -8.414
REMARK INTER:                  -8.044
REMARK INTRA:                  -0.370
REMARK UNBOUND:                -0.683
REMARK  Name = 
REMARK  7 active torsions:
REMARK  status: ('A' for Active; 'I' for Inactive)
REMARK    1  A    between atoms: C_2  and  C_3
REMARK    2  A    between atoms: C_8  and  C_9
REMARK    3  A    between atoms: C_9  and  C_10
REMARK    4  A    between atoms: C_10  and  O_11
REMARK    5  A    between atoms: O_11  and  C_12
REMARK    6  A    between atoms: C_16  and  C_17
REMARK    7  A    between atoms: C_17  and  N_18
REMARK                            x       y       z     vdW  Elec       q    Type
REMARK                         _______ _______ _______ _____ _____    ______ ____
ROOT
ATOM      1  C   UNL     1      46.073   6.845  12.900  0.00  0.00    +0.000 C 
ENDROOT
BRANCH   1   2
ATOM      2  C   UNL     1      45.730   7.047  11.423  0.00  0.00    +0.000 C 
BRANCH   2   8
ATOM      3  C   UNL     1      45.453   4.185   8.899  0.00  0.00    +0.000 A 
ATOM      4  C   UNL     1      44.638   3.283   9.591  0.00  0.00    +0.000 A 
ATOM      5  C   UNL     1      44.177   3.611  10.864  0.00  0.00    +0.000 A 
ATOM      6 CL   UNL     1      43.183   2.497  11.722  0.00  0.00    +0.000 Cl
ATOM      7  C   UNL     1      44.518   4.829  11.454  0.00  0.00    +0.000 A 
ATOM      8  C   UNL     1      45.328   5.745  10.769  0.00  0.00    +0.000 A 
ATOM      9  C   UNL     1      45.797   5.411   9.488  0.00  0.00    +0.000 A 
BRANCH   3  11
ATOM     10  N   UNL     1      46.336   3.587   6.534  0.00  0.00    +0.000 NA
ATOM     11  C   UNL     1      45.940   3.853   7.594  0.00  0.00    +0.000 C 
ENDBRANCH   3  11
ENDBRANCH   2   8
ENDBRANCH   1   2
BRANCH   1  12
ATOM     12  O   UNL     1      47.067   5.825  13.037  0.00  0.00    +0.000 OA
BRANCH  12  13
ATOM     13  C   UNL     1      47.631   5.708  14.284  0.00  0.00    +0.000 A 
ATOM     14  C   UNL     1      48.490   6.642  14.870  0.00  0.00    +0.000 A 
ATOM     15  C   UNL     1      48.989   6.429  16.157  0.00  0.00    +0.000 A 
ATOM     16  C   UNL     1      48.623   5.292  16.872  0.00  0.00    +0.000 A 
ATOM     17  C   UNL     1      47.755   4.346  16.308  0.00  0.00    +0.000 A 
ATOM     18  C   UNL     1      47.281   4.558  15.002  0.00  0.00    +0.000 A 
BRANCH  17  19
ATOM     19  C   UNL     1      47.276   3.175  17.130  0.00  0.00    +0.000 C 
BRANCH  19  20
ATOM     20  N   UNL     1      47.721   3.248  18.517  0.00  0.00    +0.000 NA
ATOM     21  H   UNL     1      47.678   4.217  18.825  0.00  0.00    +0.000 HD
ATOM     22  H   UNL     1      48.701   2.975  18.563  0.00  0.00    +0.000 HD
ENDBRANCH  19  20
ENDBRANCH  17  19
ENDBRANCH  12  13
ENDBRANCH   1  12
TORSDOF 7
ENDMDL
