MODEL 1
REMARK VINA RESULT:    -7.327      0.000      0.000
REMARK INTER + INTRA:          -9.603
REMARK INTER:                  -9.040
REMARK INTRA:                  -0.563
REMARK UNBOUND:                -0.563
REMARK  Name = 
REMARK  5 active torsions:
REMARK  status: ('A' for Active; 'I' for Inactive)
REMARK    1  A    between atoms: C_1  and  O_2
REMARK    2  A    between atoms: O_2  and  C_3
REMARK    3  A    between atoms: C_7  and  C_8
REMARK    4  A    between atoms: C_8  and  N_9
REMARK    5  A    between atoms: C_10  and  C_12
REMARK                            x       y       z     vdW  Elec       q    Type
REMARK                         _______ _______ _______ _____ _____    ______ ____
ROOT
ATOM      1  N   UNL     1      46.955   4.533  15.977  0.00  0.00    +0.000 N 
ATOM      2  C   UNL     1      47.025   4.184  14.654  0.00  0.00    +0.000 C 
ATOM      3  O   UNL     1      47.320   3.049  14.290  0.00  0.00    +0.000 OA
ATOM      4  H   UNL     1      46.913   5.513  16.232  0.00  0.00    +0.000 HD
ENDROOT
BRANCH   2   5
ATOM      5  C   UNL     1      46.658   5.224  13.683  0.00  0.00    +0.000 A 
ATOM      6  C   UNL     1      47.561   6.240  13.393  0.00  0.00    +0.000 A 
ATOM      7  S   UNL     1      47.002   7.337  12.215  0.00  0.00    +0.000 S 
ATOM      8  C   UNL     1      45.513   6.527  12.088  0.00  0.00    +0.000 A 
ATOM      9  N   UNL     1      44.540   6.979  11.249  0.00  0.00    +0.000 NA
ATOM     10  C   UNL     1      43.449   6.290  11.278  0.00  0.00    +0.000 A 
ATOM     11  N   UNL     1      43.244   5.185  12.064  0.00  0.00    +0.000 N 
ATOM     12  C   UNL     1      44.209   4.670  12.898  0.00  0.00    +0.000 A 
ATOM     13  O   UNL     1      44.013   3.648  13.548  0.00  0.00    +0.000 OA
ATOM     14  C   UNL     1      45.448   5.422  12.919  0.00  0.00    +0.000 A 
ATOM     15  H   UNL     1      42.370   4.683  12.030  0.00  0.00    +0.000 HD
ENDBRANCH   2   5
BRANCH   1  16
ATOM     16  C   UNL     1      47.257   3.604  17.040  0.00  0.00    +0.000 C 
BRANCH  16  21
ATOM     17  C   UNL     1      50.832   2.289  17.340  0.00  0.00    +0.000 A 
ATOM     18  C   UNL     1      51.535   3.470  17.580  0.00  0.00    +0.000 A 
ATOM     19  C   UNL     1      50.854   4.685  17.668  0.00  0.00    +0.000 A 
ATOM     20  C   UNL     1      49.467   4.728  17.513  0.00  0.00    +0.000 A 
ATOM     21  C   UNL     1      48.744   3.552  17.279  0.00  0.00    +0.000 A 
ATOM     22  C   UNL     1      49.441   2.336  17.197  0.00  0.00    +0.000 A 
BRANCH  17  24
ATOM     23  C   UNL     1      52.743   0.896  17.587  0.00  0.00    +0.000 C 
ATOM     24  O   UNL     1      51.379   1.041  17.212  0.00  0.00    +0.000 OA
ENDBRANCH  17  24
ENDBRANCH  16  21
ENDBRANCH   1  16
TORSDOF 4
ENDMDL
MODEL 2
REMARK VINA RESULT:    -7.076      4.443      7.616
REMARK INTER + INTRA:          -9.293
REMARK INTER:                  -8.688
REMARK INTRA:                  -0.605
REMARK UNBOUND:                -0.563
REMARK  Name = 
REMARK  5 active torsions:
REMARK  status: ('A' for Active; 'I' for Inactive)
REMARK    1  A    between atoms: C_1  and  O_2
REMARK    2  A    between atoms: O_2  and  C_3
REMARK    3  A    between atoms: C_7  and  C_8
REMARK    4  A    between atoms: C_8  and  N_9
REMARK    5  A    between atoms: C_10  and  C_12
REMARK                            x       y       z     vdW  Elec       q    Type
REMARK                         _______ _______ _______ _____ _____    ______ ____
ROOT
ATOM      1  N   UNL     1      44.586   6.081  10.817  0.00  0.00    +0.000 N 
ATOM      2  C   UNL     1      44.926   6.474  12.084  0.00  0.00    +0.000 C 
ATOM      3  O   UNL     1      44.525   5.885  13.084  0.00  0.00    +0.000 OA
ATOM      4  H   UNL     1      44.762   6.706  10.037  0.00  0.00    +0.000 HD
ENDROOT
BRANCH   2   5
ATOM      5  C   UNL     1      45.859   7.605  12.190  0.00  0.00    +0.000 A 
ATOM      6  C   UNL     1      45.421   8.887  11.882  0.00  0.00    +0.000 A 
ATOM      7  S   UNL     1      46.609  10.088  12.101  0.00  0.00    +0.000 S 
ATOM      8  C   UNL     1      47.769   8.935  12.564  0.00  0.00    +0.000 A 
ATOM      9  N   UNL     1      49.042   9.307  12.870  0.00  0.00    +0.000 NA
ATOM     10  C   UNL     1      49.826   8.326  13.171  0.00  0.00    +0.000 A 
ATOM     11  N   UNL     1      49.451   7.008  13.201  0.00  0.00    +0.000 N 
ATOM     12  C   UNL     1      48.168   6.588  12.937  0.00  0.00    +0.000 A 
ATOM     13  O   UNL     1      47.852   5.406  13.025  0.00  0.00    +0.000 OA
ATOM     14  C   UNL     1      47.252   7.650  12.571  0.00  0.00    +0.000 A 
ATOM     15  H   UNL     1      50.111   6.290  13.458  0.00  0.00    +0.000 HD
ENDBRANCH   2   5
BRANCH   1  16
ATOM     16  C   UNL     1      43.704   4.967  10.562  0.00  0.00    +0.000 C 
BRANCH  16  21
ATOM     17  C   UNL     1      45.844   3.463   7.776  0.00  0.00    +0.000 A 
ATOM     18  C   UNL     1      45.764   2.104   8.078  0.00  0.00    +0.000 A 
ATOM     19  C   UNL     1      45.002   1.671   9.164  0.00  0.00    +0.000 A 
ATOM     20  C   UNL     1      44.319   2.594   9.958  0.00  0.00    +0.000 A 
ATOM     21  C   UNL     1      44.382   3.962   9.665  0.00  0.00    +0.000 A 
ATOM     22  C   UNL     1      45.148   4.383   8.567  0.00  0.00    +0.000 A 
BRANCH  17  24
ATOM     23  C   UNL     1      46.873   3.175   5.652  0.00  0.00    +0.000 C 
ATOM     24  O   UNL     1      46.569   4.018   6.756  0.00  0.00    +0.000 OA
ENDBRANCH  17  24
ENDBRANCH  16  21
ENDBRANCH   1  16
TORSDOF 4
ENDMDL
MODEL 3
REMARK VINA RESULT:    -6.973      2.913      7.148
REMARK INTER + INTRA:          -9.167
REMARK INTER:                  -8.391
REMARK INTRA:                  -0.776
REMARK UNBOUND:                -0.563
REMARK  Name = 
REMARK  5 active torsions:
REMARK  status: ('A' for Active; 'I' for Inactive)
REMARK    1  A    between atoms: C_1  and  O_2
REMARK    2  A    between atoms: O_2  and  C_3
REMARK    3  A    between atoms: C_7  and  C_8
REMARK    4  A    between atoms: C_8  and  N_9
REMARK    5  A    between atoms: C_10  and  C_12
REMARK                            x       y       z     vdW  Elec       q    Type
REMARK                         _______ _______ _______ _____ _____    ______ ____
ROOT
ATOM      1  N   UNL     1      46.714   6.724  13.614  0.00  0.00    +0.000 N 
ATOM      2  C   UNL     1      48.044   6.454  13.794  0.00  0.00    +0.000 C 
ATOM      3  O   UNL     1      48.850   6.481  12.869  0.00  0.00    +0.000 OA
ATOM      4  H   UNL     1      46.054   6.492  14.349  0.00  0.00    +0.000 HD
ENDROOT
BRANCH   2   5
ATOM      5  C   UNL     1      48.478   6.196  15.175  0.00  0.00    +0.000 A 
ATOM      6  C   UNL     1      49.372   7.067  15.786  0.00  0.00    +0.000 A 
ATOM      7  S   UNL     1      49.736   6.653  17.399  0.00  0.00    +0.000 S 
ATOM      8  C   UNL     1      48.755   5.267  17.323  0.00  0.00    +0.000 A 
ATOM      9  N   UNL     1      48.643   4.430  18.391  0.00  0.00    +0.000 NA
ATOM     10  C   UNL     1      47.894   3.399  18.184  0.00  0.00    +0.000 A 
ATOM     11  N   UNL     1      47.241   3.132  17.008  0.00  0.00    +0.000 N 
ATOM     12  C   UNL     1      47.294   3.966  15.917  0.00  0.00    +0.000 A 
ATOM     13  O   UNL     1      46.654   3.726  14.897  0.00  0.00    +0.000 OA
ATOM     14  C   UNL     1      48.141   5.129  16.089  0.00  0.00    +0.000 A 
ATOM     15  H   UNL     1      46.660   2.313  16.916  0.00  0.00    +0.000 HD
ENDBRANCH   2   5
BRANCH   1  16
ATOM     16  C   UNL     1      46.153   7.025  12.319  0.00  0.00    +0.000 C 
BRANCH  16  21
ATOM     17  C   UNL     1      44.110   4.410  10.425  0.00  0.00    +0.000 A 
ATOM     18  C   UNL     1      43.152   4.071  11.381  0.00  0.00    +0.000 A 
ATOM     19  C   UNL     1      43.151   4.703  12.626  0.00  0.00    +0.000 A 
ATOM     20  C   UNL     1      44.109   5.672  12.924  0.00  0.00    +0.000 A 
ATOM     21  C   UNL     1      45.074   6.031  11.974  0.00  0.00    +0.000 A 
ATOM     22  C   UNL     1      45.061   5.391  10.725  0.00  0.00    +0.000 A 
BRANCH  17  24
ATOM     23  C   UNL     1      44.560   2.472   9.123  0.00  0.00    +0.000 C 
ATOM     24  O   UNL     1      44.233   3.855   9.180  0.00  0.00    +0.000 OA
ENDBRANCH  17  24
ENDBRANCH  16  21
ENDBRANCH   1  16
TORSDOF 4
ENDMDL
MODEL 4
REMARK VINA RESULT:    -6.956      1.191      2.044
REMARK INTER + INTRA:          -9.145
REMARK INTER:                  -8.552
REMARK INTRA:                  -0.593
REMARK UNBOUND:                -0.563
REMARK  Name = 
REMARK  5 active torsions:
REMARK  status: ('A' for Active; 'I' for Inactive)
REMARK    1  A    between atoms: C_1  and  O_2
REMARK    2  A    between atoms: O_2  and  C_3
REMARK    3  A    between atoms: C_7  and  C_8
REMARK    4  A    between atoms: C_8  and  N_9
REMARK    5  A    between atoms: C_10  and  C_12
REMARK                            x       y       z     vdW  Elec       q    Type
REMARK                         _______ _______ _______ _____ _____    ______ ____
ROOT
ATOM      1  N   UNL     1      46.917   4.422  15.897  0.00  0.00    +0.000 N 
ATOM      2  C   UNL     1      46.934   4.159  14.553  0.00  0.00    +0.000 C 
ATOM      3  O   UNL     1      47.243   3.060  14.103  0.00  0.00    +0.000 OA
ATOM      4  H   UNL     1      46.860   5.382  16.217  0.00  0.00    +0.000 HD
ENDROOT
BRANCH   2   5
ATOM      5  C   UNL     1      46.492   5.247  13.669  0.00  0.00    +0.000 A 
ATOM      6  C   UNL     1      47.332   6.331  13.444  0.00  0.00    +0.000 A 
ATOM      7  S   UNL     1      46.691   7.480  12.360  0.00  0.00    +0.000 S 
ATOM      8  C   UNL     1      45.247   6.599  12.193  0.00  0.00    +0.000 A 
ATOM      9  N   UNL     1      44.235   7.056  11.405  0.00  0.00    +0.000 NA
ATOM     10  C   UNL     1      43.185   6.306  11.397  0.00  0.00    +0.000 A 
ATOM     11  N   UNL     1      43.056   5.135  12.100  0.00  0.00    +0.000 N 
ATOM     12  C   UNL     1      44.063   4.615  12.878  0.00  0.00    +0.000 A 
ATOM     13  O   UNL     1      43.936   3.538  13.452  0.00  0.00    +0.000 OA
ATOM     14  C   UNL     1      45.259   5.432  12.939  0.00  0.00    +0.000 A 
ATOM     15  H   UNL     1      42.211   4.588  12.040  0.00  0.00    +0.000 HD
ENDBRANCH   2   5
BRANCH   1  16
ATOM     16  C   UNL     1      47.295   3.437  16.883  0.00  0.00    +0.000 C 
BRANCH  16  21
ATOM     17  C   UNL     1      50.808   4.695  17.709  0.00  0.00    +0.000 A 
ATOM     18  C   UNL     1      51.538   3.508  17.660  0.00  0.00    +0.000 A 
ATOM     19  C   UNL     1      50.903   2.307  17.339  0.00  0.00    +0.000 A 
ATOM     20  C   UNL     1      49.534   2.285  17.069  0.00  0.00    +0.000 A 
ATOM     21  C   UNL     1      48.786   3.468  17.105  0.00  0.00    +0.000 A 
ATOM     22  C   UNL     1      49.438   4.670  17.425  0.00  0.00    +0.000 A 
BRANCH  17  24
ATOM     23  C   UNL     1      50.446   7.043  17.802  0.00  0.00    +0.000 C 
ATOM     24  O   UNL     1      51.303   5.930  18.028  0.00  0.00    +0.000 OA
ENDBRANCH  17  24
ENDBRANCH  16  21
ENDBRANCH   1  16
TORSDOF 4
ENDMDL
MODEL 5
REMARK VINA RESULT:    -6.864      2.359      3.141
REMARK INTER + INTRA:          -9.031
REMARK INTER:                  -8.381
REMARK INTRA:                  -0.650
REMARK UNBOUND:                -0.563
REMARK  Name = 
REMARK  5 active torsions:
REMARK  status: ('A' for Active; 'I' for Inactive)
REMARK    1  A    between atoms: C_1  and  O_2
REMARK    2  A    between atoms: O_2  and  C_3
REMARK    3  A    between atoms: C_7  and  C_8
REMARK    4  A    between atoms: C_8  and  N_9
REMARK    5  A    between atoms: C_10  and  C_12
REMARK                            x       y       z     vdW  Elec       q    Type
REMARK                         _______ _______ _______ _____ _____    ______ ____
ROOT
ATOM      1  N   UNL     1      47.658   6.144  14.967  0.00  0.00    +0.000 N 
ATOM      2  C   UNL     1      47.801   6.217  13.606  0.00  0.00    +0.000 C 
ATOM      3  O   UNL     1      48.898   6.326  13.067  0.00  0.00    +0.000 OA
ATOM      4  H   UNL     1      46.739   6.262  15.379  0.00  0.00    +0.000 HD
ENDROOT
BRANCH   2   5
ATOM      5  C   UNL     1      46.571   6.087  12.812  0.00  0.00    +0.000 A 
ATOM      6  C   UNL     1      46.012   7.215  12.225  0.00  0.00    +0.000 A 
ATOM      7  S   UNL     1      44.617   6.886  11.302  0.00  0.00    +0.000 S 
ATOM      8  C   UNL     1      44.679   5.234  11.695  0.00  0.00    +0.000 A 
ATOM      9  N   UNL     1      43.733   4.370  11.236  0.00  0.00    +0.000 NA
ATOM     10  C   UNL     1      43.881   3.153  11.639  0.00  0.00    +0.000 A 
ATOM     11  N   UNL     1      44.894   2.719  12.455  0.00  0.00    +0.000 N 
ATOM     12  C   UNL     1      45.893   3.546  12.913  0.00  0.00    +0.000 A 
ATOM     13  O   UNL     1      46.816   3.116  13.598  0.00  0.00    +0.000 OA
ATOM     14  C   UNL     1      45.760   4.931  12.506  0.00  0.00    +0.000 A 
ATOM     15  H   UNL     1      44.960   1.749  12.724  0.00  0.00    +0.000 HD
ENDBRANCH   2   5
BRANCH   1  16
ATOM     16  C   UNL     1      48.783   6.225  15.869  0.00  0.00    +0.000 C 
BRANCH  16  21
ATOM     17  C   UNL     1      49.057   4.388  19.208  0.00  0.00    +0.000 A 
ATOM     18  C   UNL     1      48.380   3.203  18.922  0.00  0.00    +0.000 A 
ATOM     19  C   UNL     1      47.856   2.986  17.646  0.00  0.00    +0.000 A 
ATOM     20  C   UNL     1      48.002   3.955  16.651  0.00  0.00    +0.000 A 
ATOM     21  C   UNL     1      48.686   5.148  16.919  0.00  0.00    +0.000 A 
ATOM     22  C   UNL     1      49.211   5.350  18.205  0.00  0.00    +0.000 A 
BRANCH  17  24
ATOM     23  C   UNL     1      48.688   5.085  21.451  0.00  0.00    +0.000 C 
ATOM     24  O   UNL     1      49.599   4.732  20.418  0.00  0.00    +0.000 OA
ENDBRANCH  17  24
ENDBRANCH  16  21
ENDBRANCH   1  16
TORSDOF 4
ENDMDL
MODEL 6
REMARK VINA RESULT:    -6.784      4.294      7.470
REMARK INTER + INTRA:          -8.933
REMARK INTER:                  -8.203
REMARK INTRA:                  -0.731
REMARK UNBOUND:                -0.563
REMARK  Name = 
REMARK  5 active torsions:
REMARK  status: ('A' for Active; 'I' for Inactive)
REMARK    1  A    between atoms: C_1  and  O_2
REMARK    2  A    between atoms: O_2  and  C_3
REMARK    3  A    between atoms: C_7  and  C_8
REMARK    4  A    between atoms: C_8  and  N_9
REMARK    5  A    between atoms: C_10  and  C_12
REMARK                            x       y       z     vdW  Elec       q    Type
REMARK                         _______ _______ _______ _____ _____    ______ ____
ROOT
ATOM      1  N   UNL     1      44.940   5.855  11.157  0.00  0.00    +0.000 N 
ATOM      2  C   UNL     1      45.377   5.696  12.445  0.00  0.00    +0.000 C 
ATOM      3  O   UNL     1      44.925   4.832  13.190  0.00  0.00    +0.000 OA
ATOM      4  H   UNL     1      45.184   6.698  10.648  0.00  0.00    +0.000 HD
ENDROOT
BRANCH   2   5
ATOM      5  C   UNL     1      46.475   6.574  12.876  0.00  0.00    +0.000 A 
ATOM      6  C   UNL     1      47.560   6.032  13.555  0.00  0.00    +0.000 A 
ATOM      7  S   UNL     1      48.765   7.173  13.941  0.00  0.00    +0.000 S 
ATOM      8  C   UNL     1      47.860   8.442  13.263  0.00  0.00    +0.000 A 
ATOM      9  N   UNL     1      48.322   9.722  13.286  0.00  0.00    +0.000 NA
ATOM     10  C   UNL     1      47.518  10.589  12.768  0.00  0.00    +0.000 A 
ATOM     11  N   UNL     1      46.296  10.291  12.222  0.00  0.00    +0.000 N 
ATOM     12  C   UNL     1      45.804   9.010  12.142  0.00  0.00    +0.000 A 
ATOM     13  O   UNL     1      44.730   8.770  11.598  0.00  0.00    +0.000 OA
ATOM     14  C   UNL     1      46.660   7.999  12.730  0.00  0.00    +0.000 A 
ATOM     15  H   UNL     1      45.721  11.016  11.821  0.00  0.00    +0.000 HD
ENDBRANCH   2   5
BRANCH   1  16
ATOM     16  C   UNL     1      43.891   5.042  10.589  0.00  0.00    +0.000 C 
BRANCH  16  21
ATOM     17  C   UNL     1      45.835   3.420   7.728  0.00  0.00    +0.000 A 
ATOM     18  C   UNL     1      45.698   2.067   8.040  0.00  0.00    +0.000 A 
ATOM     19  C   UNL     1      44.958   1.678   9.159  0.00  0.00    +0.000 A 
ATOM     20  C   UNL     1      44.357   2.639   9.974  0.00  0.00    +0.000 A 
ATOM     21  C   UNL     1      44.478   4.001   9.672  0.00  0.00    +0.000 A 
ATOM     22  C   UNL     1      45.221   4.378   8.542  0.00  0.00    +0.000 A 
BRANCH  17  24
ATOM     23  C   UNL     1      46.958   3.015   5.672  0.00  0.00    +0.000 C 
ATOM     24  O   UNL     1      46.546   3.933   6.677  0.00  0.00    +0.000 OA
ENDBRANCH  17  24
ENDBRANCH  16  21
ENDBRANCH   1  16
TORSDOF 4
ENDMDL
MODEL 7
REMARK VINA RESULT:    -6.611      1.746      2.487
REMARK INTER + INTRA:          -8.719
REMARK INTER:                  -8.182
REMARK INTRA:                  -0.537
REMARK UNBOUND:                -0.563
REMARK  Name = 
REMARK  5 active torsions:
REMARK  status: ('A' for Active; 'I' for Inactive)
REMARK    1  A    between atoms: C_1  and  O_2
REMARK    2  A    between atoms: O_2  and  C_3
REMARK    3  A    between atoms: C_7  and  C_8
REMARK    4  A    between atoms: C_8  and  N_9
REMARK    5  A    between atoms: C_10  and  C_12
REMARK                            x       y       z     vdW  Elec       q    Type
REMARK                         _______ _______ _______ _____ _____    ______ ____
ROOT
ATOM      1  N   UNL     1      47.992   5.750  16.241  0.00  0.00    +0.000 N 
ATOM      2  C   UNL     1      48.449   6.205  15.033  0.00  0.00    +0.000 C 
ATOM      3  O   UNL     1      49.614   6.552  14.860  0.00  0.00    +0.000 OA
ATOM      4  H   UNL     1      46.993   5.671  16.398  0.00  0.00    +0.000 HD
ENDROOT
BRANCH   2   5
ATOM      5  C   UNL     1      47.487   6.191  13.922  0.00  0.00    +0.000 A 
ATOM      6  C   UNL     1      47.152   7.382  13.290  0.00  0.00    +0.000 A 
ATOM      7  S   UNL     1      46.061   7.187  11.995  0.00  0.00    +0.000 S 
ATOM      8  C   UNL     1      45.955   5.512  12.264  0.00  0.00    +0.000 A 
ATOM      9  N   UNL     1      45.146   4.731  11.497  0.00  0.00    +0.000 NA
ATOM     10  C   UNL     1      45.136   3.484  11.832  0.00  0.00    +0.000 A 
ATOM     11  N   UNL     1      45.865   2.946  12.862  0.00  0.00    +0.000 N 
ATOM     12  C   UNL     1      46.723   3.689  13.639  0.00  0.00    +0.000 A 
ATOM     13  O   UNL     1      47.403   3.167  14.517  0.00  0.00    +0.000 OA
ATOM     14  C   UNL     1      46.756   5.101  13.317  0.00  0.00    +0.000 A 
ATOM     15  H   UNL     1      45.821   1.959  13.064  0.00  0.00    +0.000 HD
ENDBRANCH   2   5
BRANCH   1  16
ATOM     16  C   UNL     1      48.835   5.678  17.411  0.00  0.00    +0.000 C 
BRANCH  16  21
ATOM     17  C   UNL     1      51.741   3.238  17.857  0.00  0.00    +0.000 A 
ATOM     18  C   UNL     1      51.147   2.036  17.473  0.00  0.00    +0.000 A 
ATOM     19  C   UNL     1      49.817   2.017  17.047  0.00  0.00    +0.000 A 
ATOM     20  C   UNL     1      49.073   3.197  17.009  0.00  0.00    +0.000 A 
ATOM     21  C   UNL     1      49.656   4.414  17.384  0.00  0.00    +0.000 A 
ATOM     22  C   UNL     1      50.995   4.420  17.805  0.00  0.00    +0.000 A 
BRANCH  17  24
ATOM     23  C   UNL     1      53.912   4.131  17.483  0.00  0.00    +0.000 C 
ATOM     24  O   UNL     1      53.023   3.391  18.310  0.00  0.00    +0.000 OA
ENDBRANCH  17  24
ENDBRANCH  16  21
ENDBRANCH   1  16
TORSDOF 4
ENDMDL
MODEL 8
REMARK VINA RESULT:    -6.468      2.077      3.373
REMARK INTER + INTRA:          -8.544
REMARK INTER:                  -7.642
REMARK INTRA:                  -0.902
REMARK UNBOUND:                -0.563
REMARK  Name = 
REMARK  5 active torsions:
REMARK  status: ('A' for Active; 'I' for Inactive)
REMARK    1  A    between atoms: C_1  and  O_2
REMARK    2  A    between atoms: O_2  and  C_3
REMARK    3  A    between atoms: C_7  and  C_8
REMARK    4  A    between atoms: C_8  and  N_9
REMARK    5  A    between atoms: C_10  and  C_12
REMARK                            x       y       z     vdW  Elec       q    Type
REMARK                         _______ _______ _______ _____ _____    ______ ____
ROOT
ATOM      1  N   UNL     1      47.071   4.543  15.939  0.00  0.00    +0.000 N 
ATOM      2  C   UNL     1      47.056   4.245  14.603  0.00  0.00    +0.000 C 
ATOM      3  O   UNL     1      47.224   3.104  14.183  0.00  0.00    +0.000 OA
ATOM      4  H   UNL     1      47.136   5.512  16.234  0.00  0.00    +0.000 HD
ENDROOT
BRANCH   2   5
ATOM      5  C   UNL     1      46.757   5.357  13.689  0.00  0.00    +0.000 A 
ATOM      6  C   UNL     1      45.607   5.314  12.911  0.00  0.00    +0.000 A 
ATOM      7  S   UNL     1      45.383   6.698  11.942  0.00  0.00    +0.000 S 
ATOM      8  C   UNL     1      46.841   7.382  12.486  0.00  0.00    +0.000 A 
ATOM      9  N   UNL     1      47.268   8.586  12.014  0.00  0.00    +0.000 NA
ATOM     10  C   UNL     1      48.407   8.969  12.486  0.00  0.00    +0.000 A 
ATOM     11  N   UNL     1      49.155   8.262  13.391  0.00  0.00    +0.000 N 
ATOM     12  C   UNL     1      48.748   7.062  13.923  0.00  0.00    +0.000 A 
ATOM     13  O   UNL     1      49.416   6.479  14.773  0.00  0.00    +0.000 OA
ATOM     14  C   UNL     1      47.483   6.575  13.410  0.00  0.00    +0.000 A 
ATOM     15  H   UNL     1      50.033   8.625  13.729  0.00  0.00    +0.000 HD
ENDBRANCH   2   5
BRANCH   1  16
ATOM     16  C   UNL     1      47.320   3.545  16.953  0.00  0.00    +0.000 C 
BRANCH  16  21
ATOM     17  C   UNL     1      50.936   4.263  17.957  0.00  0.00    +0.000 A 
ATOM     18  C   UNL     1      51.537   3.030  17.704  0.00  0.00    +0.000 A 
ATOM     19  C   UNL     1      50.781   1.976  17.188  0.00  0.00    +0.000 A 
ATOM     20  C   UNL     1      49.421   2.146  16.926  0.00  0.00    +0.000 A 
ATOM     21  C   UNL     1      48.802   3.379  17.167  0.00  0.00    +0.000 A 
ATOM     22  C   UNL     1      49.575   4.433  17.681  0.00  0.00    +0.000 A 
BRANCH  17  24
ATOM     23  C   UNL     1      51.504   6.558  17.702  0.00  0.00    +0.000 C 
ATOM     24  O   UNL     1      51.556   5.367  18.478  0.00  0.00    +0.000 OA
ENDBRANCH  17  24
ENDBRANCH  16  21
ENDBRANCH   1  16
TORSDOF 4
ENDMDL
MODEL 9
REMARK VINA RESULT:    -6.406      2.821      7.591
REMARK INTER + INTRA:          -8.466
REMARK INTER:                  -7.971
REMARK INTRA:                  -0.496
REMARK UNBOUND:                -0.563
REMARK  Name = 
REMARK  5 active torsions:
REMARK  status: ('A' for Active; 'I' for Inactive)
REMARK    1  A    between atoms: C_1  and  O_2
REMARK    2  A    between atoms: O_2  and  C_3
REMARK    3  A    between atoms: C_7  and  C_8
REMARK    4  A    between atoms: C_8  and  N_9
REMARK    5  A    between atoms: C_10  and  C_12
REMARK                            x       y       z     vdW  Elec       q    Type
REMARK                         _______ _______ _______ _____ _____    ______ ____
ROOT
ATOM      1  N   UNL     1      47.159   4.577  15.375  0.00  0.00    +0.000 N 
ATOM      2  C   UNL     1      47.351   4.022  16.612  0.00  0.00    +0.000 C 
ATOM      3  O   UNL     1      46.561   3.219  17.101  0.00  0.00    +0.000 OA
ATOM      4  H   UNL     1      47.714   5.379  15.097  0.00  0.00    +0.000 HD
ENDROOT
BRANCH   2   5
ATOM      5  C   UNL     1      48.597   4.382  17.304  0.00  0.00    +0.000 A 
ATOM      6  C   UNL     1      48.697   5.615  17.936  0.00  0.00    +0.000 A 
ATOM      7  S   UNL     1      50.186   5.858  18.730  0.00  0.00    +0.000 S 
ATOM      8  C   UNL     1      50.771   4.347  18.214  0.00  0.00    +0.000 A 
ATOM      9  N   UNL     1      52.028   3.937  18.536  0.00  0.00    +0.000 NA
ATOM     10  C   UNL     1      52.354   2.786  18.050  0.00  0.00    +0.000 A 
ATOM     11  N   UNL     1      51.534   2.005  17.277  0.00  0.00    +0.000 N 
ATOM     12  C   UNL     1      50.245   2.360  16.957  0.00  0.00    +0.000 A 
ATOM     13  O   UNL     1      49.518   1.614  16.308  0.00  0.00    +0.000 OA
ATOM     14  C   UNL     1      49.836   3.656  17.461  0.00  0.00    +0.000 A 
ATOM     15  H   UNL     1      51.847   1.108  16.938  0.00  0.00    +0.000 HD
ENDBRANCH   2   5
BRANCH   1  16
ATOM     16  C   UNL     1      45.997   4.289  14.568  0.00  0.00    +0.000 C 
BRANCH  16  21
ATOM     17  C   UNL     1      45.369   5.210  10.913  0.00  0.00    +0.000 A 
ATOM     18  C   UNL     1      46.240   6.288  10.753  0.00  0.00    +0.000 A 
ATOM     19  C   UNL     1      47.046   6.701  11.815  0.00  0.00    +0.000 A 
ATOM     20  C   UNL     1      46.983   6.044  13.045  0.00  0.00    +0.000 A 
ATOM     21  C   UNL     1      46.120   4.955  13.222  0.00  0.00    +0.000 A 
ATOM     22  C   UNL     1      45.318   4.547  12.144  0.00  0.00    +0.000 A 
BRANCH  17  24
ATOM     23  C   UNL     1      45.098   4.282   8.742  0.00  0.00    +0.000 C 
ATOM     24  O   UNL     1      44.516   4.719   9.963  0.00  0.00    +0.000 OA
ENDBRANCH  17  24
ENDBRANCH  16  21
ENDBRANCH   1  16
TORSDOF 4
ENDMDL
