MODEL 1
REMARK VINA RESULT:    -8.222      0.000      0.000
REMARK INTER + INTRA:         -13.095
REMARK INTER:                 -12.068
REMARK INTRA:                  -1.027
REMARK UNBOUND:                -1.027
REMARK  Name = 
REMARK  9 active torsions:
REMARK  status: ('A' for Active; 'I' for Inactive)
REMARK    1  A    between atoms: C_1  and  O_2
REMARK    2  A    between atoms: O_2  and  C_3
REMARK    3  A    between atoms: C_8  and  C_9
REMARK    4  A    between atoms: N_11  and  C_12
REMARK    5  A    between atoms: C_12  and  C_13
REMARK    6  A    between atoms: C_16  and  C_17
REMARK    7  A    between atoms: C_17  and  O_18
REMARK    8  A    between atoms: O_18  and  C_19
REMARK    9  A    between atoms: C_19  and  C_20
REMARK                            x       y       z     vdW  Elec       q    Type
REMARK                         _______ _______ _______ _____ _____    ______ ____
ROOT
ATOM      1  C   UNL     1      48.493   6.774  14.403  0.00  0.00    +0.000 C 
ATOM      2  O   UNL     1      49.245   6.604  13.449  0.00  0.00    +0.000 OA
ATOM      3  N   UNL     1      47.211   7.256  14.249  0.00  0.00    +0.000 N 
ATOM      4  H   UNL     1      46.553   7.110  15.002  0.00  0.00    +0.000 HD
ENDROOT
BRANCH   1  10
ATOM      5  C   UNL     1      49.027   4.618  18.902  0.00  0.00    +0.000 A 
ATOM      6  N   UNL     1      48.332   3.474  18.723  0.00  0.00    +0.000 NA
ATOM      7  C   UNL     1      47.759   3.246  17.522  0.00  0.00    +0.000 A 
ATOM      8  C   UNL     1      47.828   4.105  16.429  0.00  0.00    +0.000 A 
ATOM      9  C   UNL     1      48.570   5.287  16.591  0.00  0.00    +0.000 A 
ATOM     10  C   UNL     1      48.880   6.433  15.770  0.00  0.00    +0.000 A 
ATOM     11  C   UNL     1      49.638   7.283  16.560  0.00  0.00    +0.000 A 
ATOM     12  N   UNL     1      49.796   6.720  17.794  0.00  0.00    +0.000 N 
ATOM     13  C   UNL     1      49.151   5.509  17.843  0.00  0.00    +0.000 A 
ATOM     14  H   UNL     1      50.290   7.128  18.576  0.00  0.00    +0.000 HD
BRANCH   5  16
ATOM     15  C   UNL     1      48.701   4.706  21.209  0.00  0.00    +0.000 C 
ATOM     16  O   UNL     1      49.597   4.918  20.123  0.00  0.00    +0.000 OA
ENDBRANCH   5  16
ENDBRANCH   1  10
BRANCH   3  17
ATOM     17  C   UNL     1      46.717   7.543  12.925  0.00  0.00    +0.000 C 
BRANCH  17  18
ATOM     18  C   UNL     1      46.086   6.349  12.277  0.00  0.00    +0.000 A 
ATOM     19  C   UNL     1      45.981   6.242  10.889  0.00  0.00    +0.000 A 
ATOM     20  C   UNL     1      45.318   5.152  10.326  0.00  0.00    +0.000 A 
ATOM     21  C   UNL     1      44.775   4.183  11.166  0.00  0.00    +0.000 A 
ATOM     22  N   UNL     1      44.906   4.244  12.516  0.00  0.00    +0.000 NA
ATOM     23  C   UNL     1      45.560   5.310  13.035  0.00  0.00    +0.000 A 
BRANCH  21  24
ATOM     24  C   UNL     1      43.929   3.065  10.597  0.00  0.00    +0.000 C 
BRANCH  24  25
ATOM     25  O   UNL     1      44.228   2.853   9.217  0.00  0.00    +0.000 OA
BRANCH  25  26
ATOM     26  C   UNL     1      45.096   1.735   9.036  0.00  0.00    +0.000 C 
BRANCH  26  27
ATOM     27  C   UNL     1      46.056   2.012   7.916  0.00  0.00    +0.000 A 
ATOM     28  C   UNL     1      45.965   3.177   7.146  0.00  0.00    +0.000 A 
ATOM     29  C   UNL     1      46.835   3.368   6.075  0.00  0.00    +0.000 A 
ATOM     30  C   UNL     1      47.764   2.380   5.797  0.00  0.00    +0.000 A 
ATOM     31  N   UNL     1      47.881   1.241   6.510  0.00  0.00    +0.000 NA
ATOM     32  C   UNL     1      47.028   1.084   7.548  0.00  0.00    +0.000 A 
ENDBRANCH  26  27
ENDBRANCH  25  26
ENDBRANCH  24  25
ENDBRANCH  21  24
ENDBRANCH  17  18
ENDBRANCH   3  17
TORSDOF 8
ENDMDL
MODEL 2
REMARK VINA RESULT:    -7.726      1.414      1.926
REMARK INTER + INTRA:         -12.366
REMARK INTER:                 -11.374
REMARK INTRA:                  -0.992
REMARK UNBOUND:                -1.027
REMARK  Name = 
REMARK  9 active torsions:
REMARK  status: ('A' for Active; 'I' for Inactive)
REMARK    1  A    between atoms: C_1  and  O_2
REMARK    2  A    between atoms: O_2  and  C_3
REMARK    3  A    between atoms: C_8  and  C_9
REMARK    4  A    between atoms: N_11  and  C_12
REMARK    5  A    between atoms: C_12  and  C_13
REMARK    6  A    between atoms: C_16  and  C_17
REMARK    7  A    between atoms: C_17  and  O_18
REMARK    8  A    between atoms: O_18  and  C_19
REMARK    9  A    between atoms: C_19  and  C_20
REMARK                            x       y       z     vdW  Elec       q    Type
REMARK                         _______ _______ _______ _____ _____    ______ ____
ROOT
ATOM      1  C   UNL     1      48.934   6.386  15.600  0.00  0.00    +0.000 C 
ATOM      2  O   UNL     1      49.939   6.843  15.064  0.00  0.00    +0.000 OA
ATOM      3  N   UNL     1      47.743   6.244  14.922  0.00  0.00    +0.000 N 
ATOM      4  H   UNL     1      47.048   5.617  15.304  0.00  0.00    +0.000 HD
ENDROOT
BRANCH   1  10
ATOM      5  C   UNL     1      48.531   5.957  20.583  0.00  0.00    +0.000 A 
ATOM      6  N   UNL     1      47.954   7.137  20.896  0.00  0.00    +0.000 NA
ATOM      7  C   UNL     1      47.669   8.003  19.900  0.00  0.00    +0.000 A 
ATOM      8  C   UNL     1      47.920   7.778  18.550  0.00  0.00    +0.000 A 
ATOM      9  C   UNL     1      48.496   6.543  18.205  0.00  0.00    +0.000 A 
ATOM     10  C   UNL     1      48.935   5.914  16.982  0.00  0.00    +0.000 A 
ATOM     11  C   UNL     1      49.462   4.684  17.347  0.00  0.00    +0.000 A 
ATOM     12  N   UNL     1      49.367   4.544  18.701  0.00  0.00    +0.000 N 
ATOM     13  C   UNL     1      48.790   5.662  19.250  0.00  0.00    +0.000 A 
ATOM     14  H   UNL     1      49.690   3.752  19.241  0.00  0.00    +0.000 HD
BRANCH   5  16
ATOM     15  C   UNL     1      50.150   5.342  22.143  0.00  0.00    +0.000 C 
ATOM     16  O   UNL     1      48.880   5.055  21.567  0.00  0.00    +0.000 OA
ENDBRANCH   5  16
ENDBRANCH   1  10
BRANCH   3  17
ATOM     17  C   UNL     1      47.673   6.610  13.529  0.00  0.00    +0.000 C 
BRANCH  17  18
ATOM     18  C   UNL     1      46.699   5.768  12.762  0.00  0.00    +0.000 A 
ATOM     19  C   UNL     1      46.225   6.158  11.509  0.00  0.00    +0.000 A 
ATOM     20  C   UNL     1      45.262   5.385  10.861  0.00  0.00    +0.000 A 
ATOM     21  C   UNL     1      44.793   4.229  11.481  0.00  0.00    +0.000 A 
ATOM     22  N   UNL     1      45.275   3.807  12.679  0.00  0.00    +0.000 NA
ATOM     23  C   UNL     1      46.214   4.574  13.281  0.00  0.00    +0.000 A 
BRANCH  21  24
ATOM     24  C   UNL     1      43.649   3.447  10.874  0.00  0.00    +0.000 C 
BRANCH  24  25
ATOM     25  O   UNL     1      43.936   3.093   9.522  0.00  0.00    +0.000 OA
BRANCH  25  26
ATOM     26  C   UNL     1      44.786   1.949   9.450  0.00  0.00    +0.000 C 
BRANCH  26  27
ATOM     27  C   UNL     1      45.765   2.113   8.323  0.00  0.00    +0.000 A 
ATOM     28  C   UNL     1      45.895   3.326   7.637  0.00  0.00    +0.000 A 
ATOM     29  C   UNL     1      46.768   3.420   6.557  0.00  0.00    +0.000 A 
ATOM     30  C   UNL     1      47.479   2.292   6.185  0.00  0.00    +0.000 A 
ATOM     31  N   UNL     1      47.380   1.103   6.814  0.00  0.00    +0.000 NA
ATOM     32  C   UNL     1      46.528   1.042   7.864  0.00  0.00    +0.000 A 
ENDBRANCH  26  27
ENDBRANCH  25  26
ENDBRANCH  24  25
ENDBRANCH  21  24
ENDBRANCH  17  18
ENDBRANCH   3  17
TORSDOF 8
ENDMDL
MODEL 3
REMARK VINA RESULT:    -7.023      1.543      2.165
REMARK INTER + INTRA:         -11.335
REMARK INTER:                 -10.546
REMARK INTRA:                  -0.789
REMARK UNBOUND:                -1.027
REMARK  Name = 
REMARK  9 active torsions:
REMARK  status: ('A' for Active; 'I' for Inactive)
REMARK    1  A    between atoms: C_1  and  O_2
REMARK    2  A    between atoms: O_2  and  C_3
REMARK    3  A    between atoms: C_8  and  C_9
REMARK    4  A    between atoms: N_11  and  C_12
REMARK    5  A    between atoms: C_12  and  C_13
REMARK    6  A    between atoms: C_16  and  C_17
REMARK    7  A    between atoms: C_17  and  O_18
REMARK    8  A    between atoms: O_18  and  C_19
REMARK    9  A    between atoms: C_19  and  C_20
REMARK                            x       y       z     vdW  Elec       q    Type
REMARK                         _______ _______ _______ _____ _____    ______ ____
ROOT
ATOM      1  C   UNL     1      48.991   6.900  14.781  0.00  0.00    +0.000 C 
ATOM      2  O   UNL     1      49.712   6.905  13.789  0.00  0.00    +0.000 OA
ATOM      3  N   UNL     1      47.683   7.332  14.739  0.00  0.00    +0.000 N 
ATOM      4  H   UNL     1      47.062   7.048  15.485  0.00  0.00    +0.000 HD
ENDROOT
BRANCH   1  10
ATOM      5  C   UNL     1      51.710   5.457  18.744  0.00  0.00    +0.000 A 
ATOM      6  N   UNL     1      52.936   5.893  18.386  0.00  0.00    +0.000 NA
ATOM      7  C   UNL     1      53.077   6.530  17.204  0.00  0.00    +0.000 A 
ATOM      8  C   UNL     1      52.045   6.785  16.306  0.00  0.00    +0.000 A 
ATOM      9  C   UNL     1      50.757   6.361  16.677  0.00  0.00    +0.000 A 
ATOM     10  C   UNL     1      49.447   6.390  16.072  0.00  0.00    +0.000 A 
ATOM     11  C   UNL     1      48.595   5.754  16.963  0.00  0.00    +0.000 A 
ATOM     12  N   UNL     1      49.313   5.348  18.050  0.00  0.00    +0.000 N 
ATOM     13  C   UNL     1      50.632   5.698  17.901  0.00  0.00    +0.000 A 
ATOM     14  H   UNL     1      48.950   4.843  18.848  0.00  0.00    +0.000 HD
BRANCH   5  16
ATOM     15  C   UNL     1      52.604   4.924  20.830  0.00  0.00    +0.000 C 
ATOM     16  O   UNL     1      51.519   4.764  19.922  0.00  0.00    +0.000 OA
ENDBRANCH   5  16
ENDBRANCH   1  10
BRANCH   3  17
ATOM     17  C   UNL     1      47.124   7.777  13.486  0.00  0.00    +0.000 C 
BRANCH  17  18
ATOM     18  C   UNL     1      46.486   6.662  12.715  0.00  0.00    +0.000 A 
ATOM     19  C   UNL     1      46.206   6.784  11.353  0.00  0.00    +0.000 A 
ATOM     20  C   UNL     1      45.542   5.754  10.687  0.00  0.00    +0.000 A 
ATOM     21  C   UNL     1      45.172   4.616  11.400  0.00  0.00    +0.000 A 
ATOM     22  N   UNL     1      45.476   4.458  12.714  0.00  0.00    +0.000 NA
ATOM     23  C   UNL     1      46.127   5.471  13.333  0.00  0.00    +0.000 A 
BRANCH  21  24
ATOM     24  C   UNL     1      44.327   3.546  10.745  0.00  0.00    +0.000 C 
BRANCH  24  25
ATOM     25  O   UNL     1      45.141   2.471  10.276  0.00  0.00    +0.000 OA
BRANCH  25  26
ATOM     26  C   UNL     1      44.708   2.007   8.998  0.00  0.00    +0.000 C 
BRANCH  26  27
ATOM     27  C   UNL     1      45.817   2.163   7.997  0.00  0.00    +0.000 A 
ATOM     28  C   UNL     1      45.917   3.299   7.187  0.00  0.00    +0.000 A 
ATOM     29  C   UNL     1      46.922   3.379   6.227  0.00  0.00    +0.000 A 
ATOM     30  C   UNL     1      47.794   2.311   6.097  0.00  0.00    +0.000 A 
ATOM     31  N   UNL     1      47.730   1.196   6.853  0.00  0.00    +0.000 NA
ATOM     32  C   UNL     1      46.747   1.148   7.781  0.00  0.00    +0.000 A 
ENDBRANCH  26  27
ENDBRANCH  25  26
ENDBRANCH  24  25
ENDBRANCH  21  24
ENDBRANCH  17  18
ENDBRANCH   3  17
TORSDOF 8
ENDMDL
MODEL 4
REMARK VINA RESULT:    -6.679      3.983      5.594
REMARK INTER + INTRA:         -10.830
REMARK INTER:                  -9.942
REMARK INTRA:                  -0.889
REMARK UNBOUND:                -1.027
REMARK  Name = 
REMARK  9 active torsions:
REMARK  status: ('A' for Active; 'I' for Inactive)
REMARK    1  A    between atoms: C_1  and  O_2
REMARK    2  A    between atoms: O_2  and  C_3
REMARK    3  A    between atoms: C_8  and  C_9
REMARK    4  A    between atoms: N_11  and  C_12
REMARK    5  A    between atoms: C_12  and  C_13
REMARK    6  A    between atoms: C_16  and  C_17
REMARK    7  A    between atoms: C_17  and  O_18
REMARK    8  A    between atoms: O_18  and  C_19
REMARK    9  A    between atoms: C_19  and  C_20
REMARK                            x       y       z     vdW  Elec       q    Type
REMARK                         _______ _______ _______ _____ _____    ______ ____
ROOT
ATOM      1  C   UNL     1      47.646   9.756  12.215  0.00  0.00    +0.000 C 
ATOM      2  O   UNL     1      46.708  10.429  11.800  0.00  0.00    +0.000 OA
ATOM      3  N   UNL     1      47.455   8.627  12.982  0.00  0.00    +0.000 N 
ATOM      4  H   UNL     1      48.216   7.965  13.055  0.00  0.00    +0.000 HD
ENDROOT
BRANCH   1  10
ATOM      5  C   UNL     1      52.494   9.570  10.935  0.00  0.00    +0.000 A 
ATOM      6  N   UNL     1      52.621   8.270  10.595  0.00  0.00    +0.000 NA
ATOM      7  C   UNL     1      51.535   7.472  10.675  0.00  0.00    +0.000 A 
ATOM      8  C   UNL     1      50.269   7.883  11.082  0.00  0.00    +0.000 A 
ATOM      9  C   UNL     1      50.115   9.241  11.413  0.00  0.00    +0.000 A 
ATOM     10  C   UNL     1      49.035  10.071  11.889  0.00  0.00    +0.000 A 
ATOM     11  C   UNL     1      49.568  11.339  12.061  0.00  0.00    +0.000 A 
ATOM     12  N   UNL     1      50.890  11.315  11.722  0.00  0.00    +0.000 N 
ATOM     13  C   UNL     1      51.252  10.050  11.331  0.00  0.00    +0.000 A 
ATOM     14  H   UNL     1      51.531  12.097  11.768  0.00  0.00    +0.000 HD
BRANCH   5  16
ATOM     15  C   UNL     1      54.598   9.976  10.017  0.00  0.00    +0.000 C 
ATOM     16  O   UNL     1      53.583  10.418  10.911  0.00  0.00    +0.000 OA
ENDBRANCH   5  16
ENDBRANCH   1  10
BRANCH   3  17
ATOM     17  C   UNL     1      46.113   8.195  13.285  0.00  0.00    +0.000 C 
BRANCH  17  18
ATOM     18  C   UNL     1      45.754   6.913  12.599  0.00  0.00    +0.000 A 
ATOM     19  C   UNL     1      45.033   6.902  11.403  0.00  0.00    +0.000 A 
ATOM     20  C   UNL     1      44.652   5.687  10.835  0.00  0.00    +0.000 A 
ATOM     21  C   UNL     1      45.005   4.501  11.475  0.00  0.00    +0.000 A 
ATOM     22  N   UNL     1      45.745   4.489  12.613  0.00  0.00    +0.000 NA
ATOM     23  C   UNL     1      46.107   5.683  13.138  0.00  0.00    +0.000 A 
BRANCH  21  24
ATOM     24  C   UNL     1      44.486   3.175  10.964  0.00  0.00    +0.000 C 
BRANCH  24  25
ATOM     25  O   UNL     1      44.536   3.124   9.538  0.00  0.00    +0.000 OA
BRANCH  25  26
ATOM     26  C   UNL     1      45.058   1.878   9.078  0.00  0.00    +0.000 C 
BRANCH  26  27
ATOM     27  C   UNL     1      46.025   2.117   7.953  0.00  0.00    +0.000 A 
ATOM     28  C   UNL     1      45.969   3.278   7.175  0.00  0.00    +0.000 A 
ATOM     29  C   UNL     1      46.841   3.434   6.100  0.00  0.00    +0.000 A 
ATOM     30  C   UNL     1      47.739   2.415   5.828  0.00  0.00    +0.000 A 
ATOM     31  N   UNL     1      47.821   1.278   6.549  0.00  0.00    +0.000 NA
ATOM     32  C   UNL     1      46.965   1.156   7.590  0.00  0.00    +0.000 A 
ENDBRANCH  26  27
ENDBRANCH  25  26
ENDBRANCH  24  25
ENDBRANCH  21  24
ENDBRANCH  17  18
ENDBRANCH   3  17
TORSDOF 8
ENDMDL
MODEL 5
REMARK VINA RESULT:    -6.651      2.669      8.330
REMARK INTER + INTRA:         -10.789
REMARK INTER:                  -9.095
REMARK INTRA:                  -1.693
REMARK UNBOUND:                -1.027
REMARK  Name = 
REMARK  9 active torsions:
REMARK  status: ('A' for Active; 'I' for Inactive)
REMARK    1  A    between atoms: C_1  and  O_2
REMARK    2  A    between atoms: O_2  and  C_3
REMARK    3  A    between atoms: C_8  and  C_9
REMARK    4  A    between atoms: N_11  and  C_12
REMARK    5  A    between atoms: C_12  and  C_13
REMARK    6  A    between atoms: C_16  and  C_17
REMARK    7  A    between atoms: C_17  and  O_18
REMARK    8  A    between atoms: O_18  and  C_19
REMARK    9  A    between atoms: C_19  and  C_20
REMARK                            x       y       z     vdW  Elec       q    Type
REMARK                         _______ _______ _______ _____ _____    ______ ____
ROOT
ATOM      1  C   UNL     1      47.341   8.315  13.368  0.00  0.00    +0.000 C 
ATOM      2  O   UNL     1      47.920   9.212  12.763  0.00  0.00    +0.000 OA
ATOM      3  N   UNL     1      47.501   8.123  14.723  0.00  0.00    +0.000 N 
ATOM      4  H   UNL     1      46.806   7.576  15.213  0.00  0.00    +0.000 HD
ENDROOT
BRANCH   1  10
ATOM      5  C   UNL     1      44.802   4.316  11.711  0.00  0.00    +0.000 A 
ATOM      6  N   UNL     1      45.373   3.331  12.436  0.00  0.00    +0.000 NA
ATOM      7  C   UNL     1      46.349   3.654  13.312  0.00  0.00    +0.000 A 
ATOM      8  C   UNL     1      46.825   4.942  13.538  0.00  0.00    +0.000 A 
ATOM      9  C   UNL     1      46.221   5.983  12.810  0.00  0.00    +0.000 A 
ATOM     10  C   UNL     1      46.402   7.411  12.708  0.00  0.00    +0.000 A 
ATOM     11  C   UNL     1      45.494   7.849  11.756  0.00  0.00    +0.000 A 
ATOM     12  N   UNL     1      44.791   6.778  11.286  0.00  0.00    +0.000 N 
ATOM     13  C   UNL     1      45.217   5.629  11.904  0.00  0.00    +0.000 A 
ATOM     14  H   UNL     1      44.075   6.802  10.572  0.00  0.00    +0.000 HD
BRANCH   5  16
ATOM     15  C   UNL     1      44.255   3.064   9.823  0.00  0.00    +0.000 C 
ATOM     16  O   UNL     1      43.830   4.034  10.773  0.00  0.00    +0.000 OA
ENDBRANCH   5  16
ENDBRANCH   1  10
BRANCH   3  17
ATOM     17  C   UNL     1      48.348   9.020  15.470  0.00  0.00    +0.000 C 
BRANCH  17  18
ATOM     18  C   UNL     1      49.524   8.323  16.083  0.00  0.00    +0.000 A 
ATOM     19  C   UNL     1      50.466   7.655  15.299  0.00  0.00    +0.000 A 
ATOM     20  C   UNL     1      51.504   6.952  15.911  0.00  0.00    +0.000 A 
ATOM     21  C   UNL     1      51.582   6.936  17.301  0.00  0.00    +0.000 A 
ATOM     22  N   UNL     1      50.703   7.618  18.080  0.00  0.00    +0.000 NA
ATOM     23  C   UNL     1      49.710   8.296  17.459  0.00  0.00    +0.000 A 
BRANCH  21  24
ATOM     24  C   UNL     1      52.607   6.070  17.999  0.00  0.00    +0.000 C 
BRANCH  24  25
ATOM     25  O   UNL     1      52.463   4.702  17.615  0.00  0.00    +0.000 OA
BRANCH  25  26
ATOM     26  C   UNL     1      51.542   4.016  18.462  0.00  0.00    +0.000 C 
BRANCH  26  27
ATOM     27  C   UNL     1      50.389   3.502  17.649  0.00  0.00    +0.000 A 
ATOM     28  C   UNL     1      49.175   4.197  17.581  0.00  0.00    +0.000 A 
ATOM     29  C   UNL     1      48.108   3.656  16.868  0.00  0.00    +0.000 A 
ATOM     30  C   UNL     1      48.282   2.428  16.252  0.00  0.00    +0.000 A 
ATOM     31  N   UNL     1      49.432   1.724  16.298  0.00  0.00    +0.000 NA
ATOM     32  C   UNL     1      50.454   2.275  16.993  0.00  0.00    +0.000 A 
ENDBRANCH  26  27
ENDBRANCH  25  26
ENDBRANCH  24  25
ENDBRANCH  21  24
ENDBRANCH  17  18
ENDBRANCH   3  17
TORSDOF 8
ENDMDL
MODEL 6
REMARK VINA RESULT:    -6.603      4.277      6.708
REMARK INTER + INTRA:         -10.718
REMARK INTER:                 -10.019
REMARK INTRA:                  -0.699
REMARK UNBOUND:                -1.027
REMARK  Name = 
REMARK  9 active torsions:
REMARK  status: ('A' for Active; 'I' for Inactive)
REMARK    1  A    between atoms: C_1  and  O_2
REMARK    2  A    between atoms: O_2  and  C_3
REMARK    3  A    between atoms: C_8  and  C_9
REMARK    4  A    between atoms: N_11  and  C_12
REMARK    5  A    between atoms: C_12  and  C_13
REMARK    6  A    between atoms: C_16  and  C_17
REMARK    7  A    between atoms: C_17  and  O_18
REMARK    8  A    between atoms: O_18  and  C_19
REMARK    9  A    between atoms: C_19  and  C_20
REMARK                            x       y       z     vdW  Elec       q    Type
REMARK                         _______ _______ _______ _____ _____    ______ ____
ROOT
ATOM      1  C   UNL     1      47.301   9.991  12.125  0.00  0.00    +0.000 C 
ATOM      2  O   UNL     1      46.501  10.907  12.288  0.00  0.00    +0.000 OA
ATOM      3  N   UNL     1      46.980   8.680  12.404  0.00  0.00    +0.000 N 
ATOM      4  H   UNL     1      47.550   7.952  11.995  0.00  0.00    +0.000 HD
ENDROOT
BRANCH   1  10
ATOM      5  C   UNL     1      51.257  11.511   9.439  0.00  0.00    +0.000 A 
ATOM      6  N   UNL     1      50.687  12.446   8.650  0.00  0.00    +0.000 NA
ATOM      7  C   UNL     1      49.367  12.693   8.789  0.00  0.00    +0.000 A 
ATOM      8  C   UNL     1      48.527  12.057   9.697  0.00  0.00    +0.000 A 
ATOM      9  C   UNL     1      49.111  11.100  10.545  0.00  0.00    +0.000 A 
ATOM     10  C   UNL     1      48.638  10.212  11.580  0.00  0.00    +0.000 A 
ATOM     11  C   UNL     1      49.741   9.482  11.997  0.00  0.00    +0.000 A 
ATOM     12  N   UNL     1      50.832   9.875  11.278  0.00  0.00    +0.000 N 
ATOM     13  C   UNL     1      50.477  10.853  10.382  0.00  0.00    +0.000 A 
ATOM     14  H   UNL     1      51.767   9.498  11.361  0.00  0.00    +0.000 HD
BRANCH   5  16
ATOM     15  C   UNL     1      53.003  11.106   7.949  0.00  0.00    +0.000 C 
ATOM     16  O   UNL     1      52.594  11.192   9.309  0.00  0.00    +0.000 OA
ENDBRANCH   5  16
ENDBRANCH   1  10
BRANCH   3  17
ATOM     17  C   UNL     1      45.654   8.359  12.870  0.00  0.00    +0.000 C 
BRANCH  17  18
ATOM     18  C   UNL     1      45.213   6.991  12.449  0.00  0.00    +0.000 A 
ATOM     19  C   UNL     1      45.792   5.840  12.985  0.00  0.00    +0.000 A 
ATOM     20  C   UNL     1      45.408   4.586  12.511  0.00  0.00    +0.000 A 
ATOM     21  C   UNL     1      44.443   4.507  11.509  0.00  0.00    +0.000 A 
ATOM     22  N   UNL     1      43.834   5.612  11.008  0.00  0.00    +0.000 NA
ATOM     23  C   UNL     1      44.222   6.816  11.491  0.00  0.00    +0.000 A 
BRANCH  21  24
ATOM     24  C   UNL     1      44.108   3.176  10.874  0.00  0.00    +0.000 C 
BRANCH  24  25
ATOM     25  O   UNL     1      44.471   3.165   9.494  0.00  0.00    +0.000 OA
BRANCH  25  26
ATOM     26  C   UNL     1      45.047   1.916   9.114  0.00  0.00    +0.000 C 
BRANCH  26  27
ATOM     27  C   UNL     1      46.010   2.123   7.981  0.00  0.00    +0.000 A 
ATOM     28  C   UNL     1      45.977   3.281   7.196  0.00  0.00    +0.000 A 
ATOM     29  C   UNL     1      46.844   3.409   6.114  0.00  0.00    +0.000 A 
ATOM     30  C   UNL     1      47.713   2.366   5.840  0.00  0.00    +0.000 A 
ATOM     31  N   UNL     1      47.773   1.232   6.567  0.00  0.00    +0.000 NA
ATOM     32  C   UNL     1      46.923   1.137   7.616  0.00  0.00    +0.000 A 
ENDBRANCH  26  27
ENDBRANCH  25  26
ENDBRANCH  24  25
ENDBRANCH  21  24
ENDBRANCH  17  18
ENDBRANCH   3  17
TORSDOF 8
ENDMDL
MODEL 7
REMARK VINA RESULT:    -6.570      2.199      8.506
REMARK INTER + INTRA:         -10.669
REMARK INTER:                  -9.705
REMARK INTRA:                  -0.965
REMARK UNBOUND:                -1.027
REMARK  Name = 
REMARK  9 active torsions:
REMARK  status: ('A' for Active; 'I' for Inactive)
REMARK    1  A    between atoms: C_1  and  O_2
REMARK    2  A    between atoms: O_2  and  C_3
REMARK    3  A    between atoms: C_8  and  C_9
REMARK    4  A    between atoms: N_11  and  C_12
REMARK    5  A    between atoms: C_12  and  C_13
REMARK    6  A    between atoms: C_16  and  C_17
REMARK    7  A    between atoms: C_17  and  O_18
REMARK    8  A    between atoms: O_18  and  C_19
REMARK    9  A    between atoms: C_19  and  C_20
REMARK                            x       y       z     vdW  Elec       q    Type
REMARK                         _______ _______ _______ _____ _____    ______ ____
ROOT
ATOM      1  C   UNL     1      46.058   7.540  12.223  0.00  0.00    +0.000 C 
ATOM      2  O   UNL     1      45.293   8.196  12.923  0.00  0.00    +0.000 OA
ATOM      3  N   UNL     1      47.410   7.797  12.175  0.00  0.00    +0.000 N 
ATOM      4  H   UNL     1      48.022   7.074  11.822  0.00  0.00    +0.000 HD
ENDROOT
BRANCH   1  10
ATOM      5  C   UNL     1      44.060   3.229  10.608  0.00  0.00    +0.000 A 
ATOM      6  N   UNL     1      43.443   2.797  11.729  0.00  0.00    +0.000 NA
ATOM      7  C   UNL     1      43.515   3.557  12.842  0.00  0.00    +0.000 A 
ATOM      8  C   UNL     1      44.183   4.775  12.936  0.00  0.00    +0.000 A 
ATOM      9  C   UNL     1      44.808   5.251  11.770  0.00  0.00    +0.000 A 
ATOM     10  C   UNL     1      45.601   6.406  11.423  0.00  0.00    +0.000 A 
ATOM     11  C   UNL     1      45.951   6.248  10.090  0.00  0.00    +0.000 A 
ATOM     12  N   UNL     1      45.422   5.079   9.627  0.00  0.00    +0.000 N 
ATOM     13  C   UNL     1      44.727   4.448  10.629  0.00  0.00    +0.000 A 
ATOM     14  H   UNL     1      45.533   4.703   8.694  0.00  0.00    +0.000 HD
BRANCH   5  16
ATOM     15  C   UNL     1      45.350   2.015   9.093  0.00  0.00    +0.000 C 
ATOM     16  O   UNL     1      44.051   2.470   9.456  0.00  0.00    +0.000 OA
ENDBRANCH   5  16
ENDBRANCH   1  10
BRANCH   3  17
ATOM     17  C   UNL     1      47.961   8.848  12.995  0.00  0.00    +0.000 C 
BRANCH  17  18
ATOM     18  C   UNL     1      48.550   8.331  14.271  0.00  0.00    +0.000 A 
ATOM     19  C   UNL     1      48.571   9.105  15.432  0.00  0.00    +0.000 A 
ATOM     20  C   UNL     1      49.197   8.618  16.579  0.00  0.00    +0.000 A 
ATOM     21  C   UNL     1      49.789   7.358  16.543  0.00  0.00    +0.000 A 
ATOM     22  N   UNL     1      49.739   6.570  15.439  0.00  0.00    +0.000 NA
ATOM     23  C   UNL     1      49.119   7.066  14.342  0.00  0.00    +0.000 A 
BRANCH  21  24
ATOM     24  C   UNL     1      50.598   6.860  17.721  0.00  0.00    +0.000 C 
BRANCH  24  25
ATOM     25  O   UNL     1      49.749   6.288  18.716  0.00  0.00    +0.000 OA
BRANCH  25  26
ATOM     26  C   UNL     1      50.149   4.958  19.044  0.00  0.00    +0.000 C 
BRANCH  26  27
ATOM     27  C   UNL     1      49.571   3.993  18.049  0.00  0.00    +0.000 A 
ATOM     28  C   UNL     1      48.204   3.983  17.748  0.00  0.00    +0.000 A 
ATOM     29  C   UNL     1      47.696   3.032  16.868  0.00  0.00    +0.000 A 
ATOM     30  C   UNL     1      48.571   2.107  16.322  0.00  0.00    +0.000 A 
ATOM     31  N   UNL     1      49.892   2.078  16.589  0.00  0.00    +0.000 NA
ATOM     32  C   UNL     1      50.360   3.017  17.443  0.00  0.00    +0.000 A 
ENDBRANCH  26  27
ENDBRANCH  25  26
ENDBRANCH  24  25
ENDBRANCH  21  24
ENDBRANCH  17  18
ENDBRANCH   3  17
TORSDOF 8
ENDMDL
MODEL 8
REMARK VINA RESULT:    -6.443      4.243      6.843
REMARK INTER + INTRA:         -10.483
REMARK INTER:                  -9.763
REMARK INTRA:                  -0.720
REMARK UNBOUND:                -1.027
REMARK  Name = 
REMARK  9 active torsions:
REMARK  status: ('A' for Active; 'I' for Inactive)
REMARK    1  A    between atoms: C_1  and  O_2
REMARK    2  A    between atoms: O_2  and  C_3
REMARK    3  A    between atoms: C_8  and  C_9
REMARK    4  A    between atoms: N_11  and  C_12
REMARK    5  A    between atoms: C_12  and  C_13
REMARK    6  A    between atoms: C_16  and  C_17
REMARK    7  A    between atoms: C_17  and  O_18
REMARK    8  A    between atoms: O_18  and  C_19
REMARK    9  A    between atoms: C_19  and  C_20
REMARK                            x       y       z     vdW  Elec       q    Type
REMARK                         _______ _______ _______ _____ _____    ______ ____
ROOT
ATOM      1  C   UNL     1      47.203   4.071  15.077  0.00  0.00    +0.000 C 
ATOM      2  O   UNL     1      47.404   3.092  14.365  0.00  0.00    +0.000 OA
ATOM      3  N   UNL     1      46.628   5.225  14.592  0.00  0.00    +0.000 N 
ATOM      4  H   UNL     1      46.230   5.875  15.256  0.00  0.00    +0.000 HD
ENDROOT
BRANCH   1  10
ATOM      5  C   UNL     1      48.904   5.146  19.674  0.00  0.00    +0.000 A 
ATOM      6  N   UNL     1      49.458   6.360  19.466  0.00  0.00    +0.000 NA
ATOM      7  C   UNL     1      49.401   6.893  18.227  0.00  0.00    +0.000 A 
ATOM      8  C   UNL     1      48.806   6.288  17.123  0.00  0.00    +0.000 A 
ATOM      9  C   UNL     1      48.201   5.036  17.331  0.00  0.00    +0.000 A 
ATOM     10  C   UNL     1      47.515   4.072  16.505  0.00  0.00    +0.000 A 
ATOM     11  C   UNL     1      47.200   3.006  17.334  0.00  0.00    +0.000 A 
ATOM     12  N   UNL     1      47.656   3.273  18.593  0.00  0.00    +0.000 N 
ATOM     13  C   UNL     1      48.275   4.497  18.619  0.00  0.00    +0.000 A 
ATOM     14  H   UNL     1      47.579   2.661  19.395  0.00  0.00    +0.000 HD
BRANCH   5  16
ATOM     15  C   UNL     1      49.431   5.424  21.928  0.00  0.00    +0.000 C 
ATOM     16  O   UNL     1      48.971   4.539  20.912  0.00  0.00    +0.000 OA
ENDBRANCH   5  16
ENDBRANCH   1  10
BRANCH   3  17
ATOM     17  C   UNL     1      46.215   5.284  13.212  0.00  0.00    +0.000 C 
BRANCH  17  18
ATOM     18  C   UNL     1      45.947   6.684  12.752  0.00  0.00    +0.000 A 
ATOM     19  C   UNL     1      46.647   7.772  13.277  0.00  0.00    +0.000 A 
ATOM     20  C   UNL     1      46.315   9.067  12.880  0.00  0.00    +0.000 A 
ATOM     21  C   UNL     1      45.288   9.249  11.957  0.00  0.00    +0.000 A 
ATOM     22  N   UNL     1      44.626   8.203  11.399  0.00  0.00    +0.000 NA
ATOM     23  C   UNL     1      44.974   6.957  11.799  0.00  0.00    +0.000 A 
BRANCH  21  24
ATOM     24  C   UNL     1      44.809  10.642  11.614  0.00  0.00    +0.000 C 
BRANCH  24  25
ATOM     25  O   UNL     1      43.516  10.887  12.169  0.00  0.00    +0.000 OA
BRANCH  25  26
ATOM     26  C   UNL     1      42.642  11.487  11.214  0.00  0.00    +0.000 C 
BRANCH  26  27
ATOM     27  C   UNL     1      41.214  11.224  11.597  0.00  0.00    +0.000 A 
ATOM     28  C   UNL     1      40.404  10.360  10.850  0.00  0.00    +0.000 A 
ATOM     29  C   UNL     1      39.067  10.191  11.199  0.00  0.00    +0.000 A 
ATOM     30  C   UNL     1      38.574  10.901  12.281  0.00  0.00    +0.000 A 
ATOM     31  N   UNL     1      39.318  11.747  13.023  0.00  0.00    +0.000 NA
ATOM     32  C   UNL     1      40.615  11.888  12.665  0.00  0.00    +0.000 A 
ENDBRANCH  26  27
ENDBRANCH  25  26
ENDBRANCH  24  25
ENDBRANCH  21  24
ENDBRANCH  17  18
ENDBRANCH   3  17
TORSDOF 8
ENDMDL
MODEL 9
REMARK VINA RESULT:    -5.780      3.943      9.267
REMARK INTER + INTRA:          -9.510
REMARK INTER:                  -8.061
REMARK INTRA:                  -1.449
REMARK UNBOUND:                -1.027
REMARK  Name = 
REMARK  9 active torsions:
REMARK  status: ('A' for Active; 'I' for Inactive)
REMARK    1  A    between atoms: C_1  and  O_2
REMARK    2  A    between atoms: O_2  and  C_3
REMARK    3  A    between atoms: C_8  and  C_9
REMARK    4  A    between atoms: N_11  and  C_12
REMARK    5  A    between atoms: C_12  and  C_13
REMARK    6  A    between atoms: C_16  and  C_17
REMARK    7  A    between atoms: C_17  and  O_18
REMARK    8  A    between atoms: O_18  and  C_19
REMARK    9  A    between atoms: C_19  and  C_20
REMARK                            x       y       z     vdW  Elec       q    Type
REMARK                         _______ _______ _______ _____ _____    ______ ____
ROOT
ATOM      1  C   UNL     1      46.791   4.081  14.569  0.00  0.00    +0.000 C 
ATOM      2  O   UNL     1      47.481   3.161  14.143  0.00  0.00    +0.000 OA
ATOM      3  N   UNL     1      46.637   4.319  15.917  0.00  0.00    +0.000 N 
ATOM      4  H   UNL     1      46.306   5.229  16.207  0.00  0.00    +0.000 HD
ENDROOT
BRANCH   1  10
ATOM      5  C   UNL     1      45.451   8.080  11.850  0.00  0.00    +0.000 A 
ATOM      6  N   UNL     1      46.522   8.882  12.029  0.00  0.00    +0.000 NA
ATOM      7  C   UNL     1      47.544   8.438  12.792  0.00  0.00    +0.000 A 
ATOM      8  C   UNL     1      47.590   7.197  13.421  0.00  0.00    +0.000 A 
ATOM      9  C   UNL     1      46.494   6.340  13.222  0.00  0.00    +0.000 A 
ATOM     10  C   UNL     1      46.116   5.024  13.679  0.00  0.00    +0.000 A 
ATOM     11  C   UNL     1      44.865   4.770  13.139  0.00  0.00    +0.000 A 
ATOM     12  N   UNL     1      44.476   5.847  12.396  0.00  0.00    +0.000 N 
ATOM     13  C   UNL     1      45.443   6.819  12.434  0.00  0.00    +0.000 A 
ATOM     14  H   UNL     1      43.598   5.943  11.902  0.00  0.00    +0.000 HD
BRANCH   5  16
ATOM     15  C   UNL     1      44.117   9.898  11.258  0.00  0.00    +0.000 C 
ATOM     16  O   UNL     1      44.363   8.503  11.114  0.00  0.00    +0.000 OA
ENDBRANCH   5  16
ENDBRANCH   1  10
BRANCH   3  17
ATOM     17  C   UNL     1      47.332   3.485  16.867  0.00  0.00    +0.000 C 
BRANCH  17  18
ATOM     18  C   UNL     1      47.899   4.269  18.011  0.00  0.00    +0.000 A 
ATOM     19  C   UNL     1      47.228   5.370  18.545  0.00  0.00    +0.000 A 
ATOM     20  C   UNL     1      47.825   6.120  19.558  0.00  0.00    +0.000 A 
ATOM     21  C   UNL     1      49.085   5.750  20.022  0.00  0.00    +0.000 A 
ATOM     22  N   UNL     1      49.734   4.655  19.548  0.00  0.00    +0.000 NA
ATOM     23  C   UNL     1      49.128   3.942  18.570  0.00  0.00    +0.000 A 
BRANCH  21  24
ATOM     24  C   UNL     1      49.820   6.621  21.016  0.00  0.00    +0.000 C 
BRANCH  24  25
ATOM     25  O   UNL     1      51.055   7.085  20.470  0.00  0.00    +0.000 OA
BRANCH  25  26
ATOM     26  C   UNL     1      50.872   8.269  19.695  0.00  0.00    +0.000 C 
BRANCH  26  27
ATOM     27  C   UNL     1      50.807   7.916  18.236  0.00  0.00    +0.000 A 
ATOM     28  C   UNL     1      51.693   6.995  17.666  0.00  0.00    +0.000 A 
ATOM     29  C   UNL     1      51.643   6.742  16.298  0.00  0.00    +0.000 A 
ATOM     30  C   UNL     1      50.713   7.428  15.535  0.00  0.00    +0.000 A 
ATOM     31  N   UNL     1      49.845   8.327  16.043  0.00  0.00    +0.000 NA
ATOM     32  C   UNL     1      49.912   8.550  17.377  0.00  0.00    +0.000 A 
ENDBRANCH  26  27
ENDBRANCH  25  26
ENDBRANCH  24  25
ENDBRANCH  21  24
ENDBRANCH  17  18
ENDBRANCH   3  17
TORSDOF 8
ENDMDL
