MODEL 1
REMARK VINA RESULT:    -8.219      0.000      0.000
REMARK INTER + INTRA:         -13.364
REMARK INTER:                 -12.062
REMARK INTRA:                  -1.302
REMARK UNBOUND:                -1.302
REMARK  Name = 
REMARK  9 active torsions:
REMARK  status: ('A' for Active; 'I' for Inactive)
REMARK    1  A    between atoms: C_1  and  C_2
REMARK    2  A    between atoms: C_2  and  C_3
REMARK    3  A    between atoms: C_5  and  C_6
REMARK    4  A    between atoms: C_6  and  C_7
REMARK    5  A    between atoms: C_7  and  C_8
REMARK    6  A    between atoms: C_10  and  O_11
REMARK    7  A    between atoms: O_11  and  C_12
REMARK    8  A    between atoms: C_18  and  C_19
REMARK    9  A    between atoms: C_24  and  C_25
REMARK                            x       y       z     vdW  Elec       q    Type
REMARK                         _______ _______ _______ _____ _____    ______ ____
ROOT
ATOM      1  C   UNL     1      45.170   5.260  10.544  0.00  0.00    +0.000 A 
ATOM      2  C   UNL     1      45.847   5.257   9.301  0.00  0.00    +0.000 A 
ATOM      3  C   UNL     1      45.686   4.218   8.387  0.00  0.00    +0.000 A 
ATOM      4  C   UNL     1      44.887   3.132   8.724  0.00  0.00    +0.000 A 
ATOM      5  C   UNL     1      44.178   3.130   9.927  0.00  0.00    +0.000 A 
ATOM      6  C   UNL     1      44.264   4.211  10.825  0.00  0.00    +0.000 A 
ENDROOT
BRANCH   6   7
ATOM      7  C   UNL     1      43.381   4.186  12.038  0.00  0.00    +0.000 C 
ATOM      8  N   UNL     1      43.603   3.184  12.949  0.00  0.00    +0.000 N 
ATOM      9  O   UNL     1      42.472   4.984  12.227  0.00  0.00    +0.000 OA
ATOM     10  H   UNL     1      44.188   2.381  12.763  0.00  0.00    +0.000 HD
ATOM     11  H   UNL     1      42.968   3.129  13.735  0.00  0.00    +0.000 HD
ENDBRANCH   6   7
BRANCH   1  12
ATOM     12  C   UNL     1      45.471   6.423  11.475  0.00  0.00    +0.000 C 
BRANCH  12  13
ATOM     13  C   UNL     1      46.956   6.498  11.840  0.00  0.00    +0.000 C 
BRANCH  13  16
ATOM     14  C   UNL     1      48.323   6.183  15.425  0.00  0.00    +0.000 A 
ATOM     15  C   UNL     1      48.080   6.647  14.109  0.00  0.00    +0.000 A 
ATOM     16  C   UNL     1      47.311   5.912  13.188  0.00  0.00    +0.000 A 
ATOM     17  C   UNL     1      46.826   4.664  13.571  0.00  0.00    +0.000 A 
ATOM     18  C   UNL     1      47.012   4.209  14.878  0.00  0.00    +0.000 A 
ATOM     19  C   UNL     1      47.703   4.986  15.830  0.00  0.00    +0.000 A 
BRANCH  19  20
ATOM     20  C   UNL     1      47.714   4.488  17.245  0.00  0.00    +0.000 C 
ATOM     21  N   UNL     1      46.826   5.083  18.102  0.00  0.00    +0.000 N 
ATOM     22  O   UNL     1      48.475   3.623  17.654  0.00  0.00    +0.000 OA
ATOM     23  H   UNL     1      46.345   5.945  17.877  0.00  0.00    +0.000 HD
ATOM     24  H   UNL     1      46.875   4.814  19.077  0.00  0.00    +0.000 HD
ENDBRANCH  19  20
BRANCH  14  26
ATOM     25  C   UNL     1      50.704   6.504  16.323  0.00  0.00    +0.000 C 
ATOM     26  C   UNL     1      49.268   7.001  16.282  0.00  0.00    +0.000 C 
ENDBRANCH  14  26
ENDBRANCH  13  16
ENDBRANCH  12  13
ENDBRANCH   1  12
BRANCH   3  27
ATOM     27  O   UNL     1      46.299   4.151   7.161  0.00  0.00    +0.000 OA
BRANCH  27  28
ATOM     28  C   UNL     1      46.668   2.853   6.639  0.00  0.00    +0.000 C 
ATOM     29  C   UNL     1      48.104   2.343   6.902  0.00  0.00    +0.000 C 
ATOM     30  N   UNL     1      48.195   1.900   5.494  0.00  0.00    +0.000 NA
ATOM     31  C   UNL     1      47.099   2.834   5.154  0.00  0.00    +0.000 C 
ATOM     32  H   UNL     1      47.951   0.919   5.354  0.00  0.00    +0.000 HD
ENDBRANCH  27  28
ENDBRANCH   3  27
TORSDOF 8
ENDMDL
MODEL 2
REMARK VINA RESULT:    -7.649      2.678      3.235
REMARK INTER + INTRA:         -12.528
REMARK INTER:                 -11.524
REMARK INTRA:                  -1.004
REMARK UNBOUND:                -1.302
REMARK  Name = 
REMARK  9 active torsions:
REMARK  status: ('A' for Active; 'I' for Inactive)
REMARK    1  A    between atoms: C_1  and  C_2
REMARK    2  A    between atoms: C_2  and  C_3
REMARK    3  A    between atoms: C_5  and  C_6
REMARK    4  A    between atoms: C_6  and  C_7
REMARK    5  A    between atoms: C_7  and  C_8
REMARK    6  A    between atoms: C_10  and  O_11
REMARK    7  A    between atoms: O_11  and  C_12
REMARK    8  A    between atoms: C_18  and  C_19
REMARK    9  A    between atoms: C_24  and  C_25
REMARK                            x       y       z     vdW  Elec       q    Type
REMARK                         _______ _______ _______ _____ _____    ______ ____
ROOT
ATOM      1  C   UNL     1      45.144   5.039  10.345  0.00  0.00    +0.000 A 
ATOM      2  C   UNL     1      45.772   5.045   9.076  0.00  0.00    +0.000 A 
ATOM      3  C   UNL     1      45.603   3.995   8.176  0.00  0.00    +0.000 A 
ATOM      4  C   UNL     1      44.849   2.890   8.551  0.00  0.00    +0.000 A 
ATOM      5  C   UNL     1      44.188   2.878   9.781  0.00  0.00    +0.000 A 
ATOM      6  C   UNL     1      44.279   3.968  10.668  0.00  0.00    +0.000 A 
ENDROOT
BRANCH   6   7
ATOM      7  C   UNL     1      43.445   3.928  11.914  0.00  0.00    +0.000 C 
ATOM      8  N   UNL     1      42.355   4.762  11.961  0.00  0.00    +0.000 N 
ATOM      9  O   UNL     1      43.708   3.224  12.881  0.00  0.00    +0.000 OA
ATOM     10  H   UNL     1      42.197   5.508  11.299  0.00  0.00    +0.000 HD
ATOM     11  H   UNL     1      41.829   4.781  12.825  0.00  0.00    +0.000 HD
ENDBRANCH   6   7
BRANCH   1  12
ATOM     12  C   UNL     1      45.449   6.217  11.255  0.00  0.00    +0.000 C 
BRANCH  12  13
ATOM     13  C   UNL     1      46.360   5.822  12.422  0.00  0.00    +0.000 C 
BRANCH  13  16
ATOM     14  C   UNL     1      49.539   7.354  13.957  0.00  0.00    +0.000 A 
ATOM     15  C   UNL     1      48.332   6.630  13.794  0.00  0.00    +0.000 A 
ATOM     16  C   UNL     1      47.567   6.711  12.618  0.00  0.00    +0.000 A 
ATOM     17  C   UNL     1      47.984   7.577  11.609  0.00  0.00    +0.000 A 
ATOM     18  C   UNL     1      49.194   8.262  11.729  0.00  0.00    +0.000 A 
ATOM     19  C   UNL     1      50.010   8.110  12.868  0.00  0.00    +0.000 A 
BRANCH  19  20
ATOM     20  C   UNL     1      51.362   8.760  12.836  0.00  0.00    +0.000 C 
ATOM     21  N   UNL     1      52.424   7.931  12.591  0.00  0.00    +0.000 N 
ATOM     22  O   UNL     1      51.547   9.951  13.039  0.00  0.00    +0.000 OA
ATOM     23  H   UNL     1      52.353   6.923  12.645  0.00  0.00    +0.000 HD
ATOM     24  H   UNL     1      53.350   8.339  12.644  0.00  0.00    +0.000 HD
ENDBRANCH  19  20
BRANCH  14  26
ATOM     25  C   UNL     1      49.405   6.584  16.400  0.00  0.00    +0.000 C 
ATOM     26  C   UNL     1      50.209   7.283  15.316  0.00  0.00    +0.000 C 
ENDBRANCH  14  26
ENDBRANCH  13  16
ENDBRANCH  12  13
ENDBRANCH   1  12
BRANCH   3  27
ATOM     27  O   UNL     1      46.169   3.936   6.927  0.00  0.00    +0.000 OA
BRANCH  27  28
ATOM     28  C   UNL     1      46.640   2.658   6.437  0.00  0.00    +0.000 C 
ATOM     29  C   UNL     1      47.970   2.106   7.000  0.00  0.00    +0.000 C 
ATOM     30  N   UNL     1      48.383   1.732   5.630  0.00  0.00    +0.000 NA
ATOM     31  C   UNL     1      47.405   2.704   5.094  0.00  0.00    +0.000 C 
ATOM     32  H   UNL     1      48.171   0.764   5.385  0.00  0.00    +0.000 HD
ENDBRANCH  27  28
ENDBRANCH   3  27
TORSDOF 8
ENDMDL
MODEL 3
REMARK VINA RESULT:    -7.249      3.512      4.385
REMARK INTER + INTRA:         -11.941
REMARK INTER:                 -10.816
REMARK INTRA:                  -1.125
REMARK UNBOUND:                -1.302
REMARK  Name = 
REMARK  9 active torsions:
REMARK  status: ('A' for Active; 'I' for Inactive)
REMARK    1  A    between atoms: C_1  and  C_2
REMARK    2  A    between atoms: C_2  and  C_3
REMARK    3  A    between atoms: C_5  and  C_6
REMARK    4  A    between atoms: C_6  and  C_7
REMARK    5  A    between atoms: C_7  and  C_8
REMARK    6  A    between atoms: C_10  and  O_11
REMARK    7  A    between atoms: O_11  and  C_12
REMARK    8  A    between atoms: C_18  and  C_19
REMARK    9  A    between atoms: C_24  and  C_25
REMARK                            x       y       z     vdW  Elec       q    Type
REMARK                         _______ _______ _______ _____ _____    ______ ____
ROOT
ATOM      1  C   UNL     1      45.254   5.265  10.528  0.00  0.00    +0.000 A 
ATOM      2  C   UNL     1      45.861   5.254   9.249  0.00  0.00    +0.000 A 
ATOM      3  C   UNL     1      45.703   4.178   8.378  0.00  0.00    +0.000 A 
ATOM      4  C   UNL     1      44.983   3.065   8.794  0.00  0.00    +0.000 A 
ATOM      5  C   UNL     1      44.343   3.068  10.035  0.00  0.00    +0.000 A 
ATOM      6  C   UNL     1      44.422   4.181  10.893  0.00  0.00    +0.000 A 
ENDROOT
BRANCH   6   7
ATOM      7  C   UNL     1      43.610   4.153  12.154  0.00  0.00    +0.000 C 
ATOM      8  N   UNL     1      42.450   4.886  12.164  0.00  0.00    +0.000 N 
ATOM      9  O   UNL     1      43.948   3.543  13.161  0.00  0.00    +0.000 OA
ATOM     10  H   UNL     1      42.215   5.567  11.456  0.00  0.00    +0.000 HD
ATOM     11  H   UNL     1      41.934   4.917  13.034  0.00  0.00    +0.000 HD
ENDBRANCH   6   7
BRANCH   1  12
ATOM     12  C   UNL     1      45.545   6.473  11.404  0.00  0.00    +0.000 C 
BRANCH  12  13
ATOM     13  C   UNL     1      46.877   6.336  12.148  0.00  0.00    +0.000 C 
BRANCH  13  16
ATOM     14  C   UNL     1      48.266   9.921  11.958  0.00  0.00    +0.000 A 
ATOM     15  C   UNL     1      47.378   8.817  12.006  0.00  0.00    +0.000 A 
ATOM     16  C   UNL     1      47.836   7.489  11.956  0.00  0.00    +0.000 A 
ATOM     17  C   UNL     1      49.201   7.259  11.797  0.00  0.00    +0.000 A 
ATOM     18  C   UNL     1      50.097   8.330  11.796  0.00  0.00    +0.000 A 
ATOM     19  C   UNL     1      49.648   9.658  11.939  0.00  0.00    +0.000 A 
BRANCH  19  20
ATOM     20  C   UNL     1      50.694  10.724  12.087  0.00  0.00    +0.000 C 
ATOM     21  N   UNL     1      51.209  11.230  10.923  0.00  0.00    +0.000 N 
ATOM     22  O   UNL     1      51.108  11.122  13.166  0.00  0.00    +0.000 OA
ATOM     23  H   UNL     1      51.073  10.781  10.026  0.00  0.00    +0.000 HD
ATOM     24  H   UNL     1      51.971  11.892  11.006  0.00  0.00    +0.000 HD
ENDBRANCH  19  20
BRANCH  14  26
ATOM     25  C   UNL     1      46.347  11.395  11.108  0.00  0.00    +0.000 C 
ATOM     26  C   UNL     1      47.646  11.303  11.892  0.00  0.00    +0.000 C 
ENDBRANCH  14  26
ENDBRANCH  13  16
ENDBRANCH  12  13
ENDBRANCH   1  12
BRANCH   3  27
ATOM     27  O   UNL     1      46.249   4.101   7.122  0.00  0.00    +0.000 OA
BRANCH  27  28
ATOM     28  C   UNL     1      46.675   2.810   6.627  0.00  0.00    +0.000 C 
ATOM     29  C   UNL     1      48.123   2.356   6.924  0.00  0.00    +0.000 C 
ATOM     30  N   UNL     1      48.256   1.896   5.525  0.00  0.00    +0.000 NA
ATOM     31  C   UNL     1      47.134   2.783   5.150  0.00  0.00    +0.000 C 
ATOM     32  H   UNL     1      48.051   0.904   5.396  0.00  0.00    +0.000 HD
ENDBRANCH  27  28
ENDBRANCH   3  27
TORSDOF 8
ENDMDL
MODEL 4
REMARK VINA RESULT:    -6.971      3.688      4.441
REMARK INTER + INTRA:         -11.533
REMARK INTER:                 -10.475
REMARK INTRA:                  -1.058
REMARK UNBOUND:                -1.302
REMARK  Name = 
REMARK  9 active torsions:
REMARK  status: ('A' for Active; 'I' for Inactive)
REMARK    1  A    between atoms: C_1  and  C_2
REMARK    2  A    between atoms: C_2  and  C_3
REMARK    3  A    between atoms: C_5  and  C_6
REMARK    4  A    between atoms: C_6  and  C_7
REMARK    5  A    between atoms: C_7  and  C_8
REMARK    6  A    between atoms: C_10  and  O_11
REMARK    7  A    between atoms: O_11  and  C_12
REMARK    8  A    between atoms: C_18  and  C_19
REMARK    9  A    between atoms: C_24  and  C_25
REMARK                            x       y       z     vdW  Elec       q    Type
REMARK                         _______ _______ _______ _____ _____    ______ ____
ROOT
ATOM      1  C   UNL     1      44.960   5.089  10.509  0.00  0.00    +0.000 A 
ATOM      2  C   UNL     1      45.584   4.401   9.441  0.00  0.00    +0.000 A 
ATOM      3  C   UNL     1      45.201   3.110   9.084  0.00  0.00    +0.000 A 
ATOM      4  C   UNL     1      44.225   2.459   9.828  0.00  0.00    +0.000 A 
ATOM      5  C   UNL     1      43.567   3.130  10.861  0.00  0.00    +0.000 A 
ATOM      6  C   UNL     1      43.884   4.465  11.181  0.00  0.00    +0.000 A 
ENDROOT
BRANCH   6   7
ATOM      7  C   UNL     1      43.052   5.151  12.223  0.00  0.00    +0.000 C 
ATOM      8  N   UNL     1      42.093   6.027  11.776  0.00  0.00    +0.000 N 
ATOM      9  O   UNL     1      43.209   4.992  13.427  0.00  0.00    +0.000 OA
ATOM     10  H   UNL     1      42.044   6.360  10.824  0.00  0.00    +0.000 HD
ATOM     11  H   UNL     1      41.574   6.537  12.480  0.00  0.00    +0.000 HD
ENDBRANCH   6   7
BRANCH   1  12
ATOM     12  C   UNL     1      45.504   6.471  10.833  0.00  0.00    +0.000 C 
BRANCH  12  13
ATOM     13  C   UNL     1      46.548   6.431  11.953  0.00  0.00    +0.000 C 
BRANCH  13  16
ATOM     14  C   UNL     1      49.765   8.538  11.773  0.00  0.00    +0.000 A 
ATOM     15  C   UNL     1      48.872   7.441  11.865  0.00  0.00    +0.000 A 
ATOM     16  C   UNL     1      47.484   7.618  11.995  0.00  0.00    +0.000 A 
ATOM     17  C   UNL     1      46.983   8.915  12.093  0.00  0.00    +0.000 A 
ATOM     18  C   UNL     1      47.838  10.009  11.956  0.00  0.00    +0.000 A 
ATOM     19  C   UNL     1      49.219   9.833  11.733  0.00  0.00    +0.000 A 
BRANCH  19  20
ATOM     20  C   UNL     1      50.028  11.063  11.439  0.00  0.00    +0.000 C 
ATOM     21  N   UNL     1      50.136  11.413  10.119  0.00  0.00    +0.000 N 
ATOM     22  O   UNL     1      50.597  11.722  12.297  0.00  0.00    +0.000 OA
ATOM     23  H   UNL     1      49.885  10.786   9.366  0.00  0.00    +0.000 HD
ATOM     24  H   UNL     1      50.743  12.193   9.897  0.00  0.00    +0.000 HD
ENDBRANCH  19  20
BRANCH  14  26
ATOM     25  C   UNL     1      51.814   7.806  10.415  0.00  0.00    +0.000 C 
ATOM     26  C   UNL     1      51.248   8.221  11.763  0.00  0.00    +0.000 C 
ENDBRANCH  14  26
ENDBRANCH  13  16
ENDBRANCH  12  13
ENDBRANCH   1  12
BRANCH   3  27
ATOM     27  O   UNL     1      45.750   2.386   8.056  0.00  0.00    +0.000 OA
BRANCH  27  28
ATOM     28  C   UNL     1      46.834   2.970   7.296  0.00  0.00    +0.000 C 
ATOM     29  C   UNL     1      46.658   3.115   5.767  0.00  0.00    +0.000 C 
ATOM     30  N   UNL     1      48.032   2.606   5.569  0.00  0.00    +0.000 NA
ATOM     31  C   UNL     1      47.976   1.999   6.917  0.00  0.00    +0.000 C 
ATOM     32  H   UNL     1      48.735   3.341   5.483  0.00  0.00    +0.000 HD
ENDBRANCH  27  28
ENDBRANCH   3  27
TORSDOF 8
ENDMDL
MODEL 5
REMARK VINA RESULT:    -6.853      2.421      3.071
REMARK INTER + INTRA:         -11.360
REMARK INTER:                 -10.364
REMARK INTRA:                  -0.996
REMARK UNBOUND:                -1.302
REMARK  Name = 
REMARK  9 active torsions:
REMARK  status: ('A' for Active; 'I' for Inactive)
REMARK    1  A    between atoms: C_1  and  C_2
REMARK    2  A    between atoms: C_2  and  C_3
REMARK    3  A    between atoms: C_5  and  C_6
REMARK    4  A    between atoms: C_6  and  C_7
REMARK    5  A    between atoms: C_7  and  C_8
REMARK    6  A    between atoms: C_10  and  O_11
REMARK    7  A    between atoms: O_11  and  C_12
REMARK    8  A    between atoms: C_18  and  C_19
REMARK    9  A    between atoms: C_24  and  C_25
REMARK                            x       y       z     vdW  Elec       q    Type
REMARK                         _______ _______ _______ _____ _____    ______ ____
ROOT
ATOM      1  C   UNL     1      45.294   5.260  10.458  0.00  0.00    +0.000 A 
ATOM      2  C   UNL     1      45.902   5.201   9.181  0.00  0.00    +0.000 A 
ATOM      3  C   UNL     1      45.608   4.179   8.281  0.00  0.00    +0.000 A 
ATOM      4  C   UNL     1      44.742   3.162   8.664  0.00  0.00    +0.000 A 
ATOM      5  C   UNL     1      44.100   3.218   9.903  0.00  0.00    +0.000 A 
ATOM      6  C   UNL     1      44.321   4.288  10.791  0.00  0.00    +0.000 A 
ENDROOT
BRANCH   6   7
ATOM      7  C   UNL     1      43.505   4.336  12.048  0.00  0.00    +0.000 C 
ATOM      8  N   UNL     1      43.886   3.502  13.070  0.00  0.00    +0.000 N 
ATOM      9  O   UNL     1      42.517   5.047  12.186  0.00  0.00    +0.000 OA
ATOM     10  H   UNL     1      44.553   2.752  12.957  0.00  0.00    +0.000 HD
ATOM     11  H   UNL     1      43.300   3.489  13.895  0.00  0.00    +0.000 HD
ENDBRANCH   6   7
BRANCH   1  12
ATOM     12  C   UNL     1      45.738   6.395  11.366  0.00  0.00    +0.000 C 
BRANCH  12  13
ATOM     13  C   UNL     1      47.252   6.618  11.309  0.00  0.00    +0.000 C 
BRANCH  13  16
ATOM     14  C   UNL     1      48.301   9.653  13.431  0.00  0.00    +0.000 A 
ATOM     15  C   UNL     1      47.897   8.842  12.342  0.00  0.00    +0.000 A 
ATOM     16  C   UNL     1      47.818   7.442  12.443  0.00  0.00    +0.000 A 
ATOM     17  C   UNL     1      48.207   6.837  13.637  0.00  0.00    +0.000 A 
ATOM     18  C   UNL     1      48.562   7.619  14.737  0.00  0.00    +0.000 A 
ATOM     19  C   UNL     1      48.552   9.027  14.665  0.00  0.00    +0.000 A 
BRANCH  19  20
ATOM     20  C   UNL     1      48.793   9.780  15.941  0.00  0.00    +0.000 C 
ATOM     21  N   UNL     1      47.696   9.992  16.733  0.00  0.00    +0.000 N 
ATOM     22  O   UNL     1      49.884  10.220  16.273  0.00  0.00    +0.000 OA
ATOM     23  H   UNL     1      46.749   9.855  16.402  0.00  0.00    +0.000 HD
ATOM     24  H   UNL     1      47.826  10.566  17.558  0.00  0.00    +0.000 HD
ENDBRANCH  19  20
BRANCH  14  26
ATOM     25  C   UNL     1      47.508  11.723  12.140  0.00  0.00    +0.000 C 
ATOM     26  C   UNL     1      48.468  11.136  13.162  0.00  0.00    +0.000 C 
ENDBRANCH  14  26
ENDBRANCH  13  16
ENDBRANCH  12  13
ENDBRANCH   1  12
BRANCH   3  27
ATOM     27  O   UNL     1      46.147   4.061   7.025  0.00  0.00    +0.000 OA
BRANCH  27  28
ATOM     28  C   UNL     1      46.613   2.763   6.587  0.00  0.00    +0.000 C 
ATOM     29  C   UNL     1      48.045   2.333   6.977  0.00  0.00    +0.000 C 
ATOM     30  N   UNL     1      48.263   1.841   5.600  0.00  0.00    +0.000 NA
ATOM     31  C   UNL     1      47.156   2.707   5.140  0.00  0.00    +0.000 C 
ATOM     32  H   UNL     1      48.075   0.844   5.483  0.00  0.00    +0.000 HD
ENDBRANCH  27  28
ENDBRANCH   3  27
TORSDOF 8
ENDMDL
MODEL 6
REMARK VINA RESULT:    -6.639      2.278      7.839
REMARK INTER + INTRA:         -11.046
REMARK INTER:                 -10.918
REMARK INTRA:                  -0.128
REMARK UNBOUND:                -1.302
REMARK  Name = 
REMARK  9 active torsions:
REMARK  status: ('A' for Active; 'I' for Inactive)
REMARK    1  A    between atoms: C_1  and  C_2
REMARK    2  A    between atoms: C_2  and  C_3
REMARK    3  A    between atoms: C_5  and  C_6
REMARK    4  A    between atoms: C_6  and  C_7
REMARK    5  A    between atoms: C_7  and  C_8
REMARK    6  A    between atoms: C_10  and  O_11
REMARK    7  A    between atoms: O_11  and  C_12
REMARK    8  A    between atoms: C_18  and  C_19
REMARK    9  A    between atoms: C_24  and  C_25
REMARK                            x       y       z     vdW  Elec       q    Type
REMARK                         _______ _______ _______ _____ _____    ______ ____
ROOT
ATOM      1  C   UNL     1      45.088   5.001  12.459  0.00  0.00    +0.000 A 
ATOM      2  C   UNL     1      45.644   3.959  13.238  0.00  0.00    +0.000 A 
ATOM      3  C   UNL     1      46.881   4.098  13.864  0.00  0.00    +0.000 A 
ATOM      4  C   UNL     1      47.614   5.262  13.673  0.00  0.00    +0.000 A 
ATOM      5  C   UNL     1      47.070   6.320  12.941  0.00  0.00    +0.000 A 
ATOM      6  C   UNL     1      45.785   6.229  12.372  0.00  0.00    +0.000 A 
ENDROOT
BRANCH   6   7
ATOM      7  C   UNL     1      45.227   7.449  11.703  0.00  0.00    +0.000 C 
ATOM      8  N   UNL     1      44.549   8.340  12.499  0.00  0.00    +0.000 N 
ATOM      9  O   UNL     1      45.320   7.663  10.501  0.00  0.00    +0.000 OA
ATOM     10  H   UNL     1      44.258   8.133  13.444  0.00  0.00    +0.000 HD
ATOM     11  H   UNL     1      44.119   9.132  12.038  0.00  0.00    +0.000 HD
ENDBRANCH   6   7
BRANCH   1  12
ATOM     12  C   UNL     1      43.757   4.706  11.786  0.00  0.00    +0.000 C 
BRANCH  12  13
ATOM     13  C   UNL     1      43.799   4.985  10.281  0.00  0.00    +0.000 C 
BRANCH  13  16
ATOM     14  C   UNL     1      46.142   3.330   7.714  0.00  0.00    +0.000 A 
ATOM     15  C   UNL     1      45.376   4.290   8.421  0.00  0.00    +0.000 A 
ATOM     16  C   UNL     1      44.496   3.927   9.456  0.00  0.00    +0.000 A 
ATOM     17  C   UNL     1      44.333   2.575   9.750  0.00  0.00    +0.000 A 
ATOM     18  C   UNL     1      45.112   1.617   9.099  0.00  0.00    +0.000 A 
ATOM     19  C   UNL     1      46.063   1.987   8.126  0.00  0.00    +0.000 A 
BRANCH  19  20
ATOM     20  C   UNL     1      46.962   0.907   7.600  0.00  0.00    +0.000 C 
ATOM     21  N   UNL     1      48.243   1.284   7.291  0.00  0.00    +0.000 N 
ATOM     22  O   UNL     1      46.602  -0.246   7.416  0.00  0.00    +0.000 OA
ATOM     23  H   UNL     1      48.520   2.254   7.207  0.00  0.00    +0.000 HD
ATOM     24  H   UNL     1      48.838   0.586   6.862  0.00  0.00    +0.000 HD
ENDBRANCH  19  20
BRANCH  14  26
ATOM     25  C   UNL     1      46.666   3.152   5.210  0.00  0.00    +0.000 C 
ATOM     26  C   UNL     1      46.959   3.829   6.539  0.00  0.00    +0.000 C 
ENDBRANCH  14  26
ENDBRANCH  13  16
ENDBRANCH  12  13
ENDBRANCH   1  12
BRANCH   3  27
ATOM     27  O   UNL     1      47.477   3.138  14.643  0.00  0.00    +0.000 OA
BRANCH  27  28
ATOM     28  C   UNL     1      48.032   3.527  15.921  0.00  0.00    +0.000 C 
ATOM     29  C   UNL     1      48.639   2.424  16.818  0.00  0.00    +0.000 C 
ATOM     30  N   UNL     1      47.952   3.010  17.989  0.00  0.00    +0.000 NA
ATOM     31  C   UNL     1      47.008   3.681  17.069  0.00  0.00    +0.000 C 
ATOM     32  H   UNL     1      48.530   3.660  18.524  0.00  0.00    +0.000 HD
ENDBRANCH  27  28
ENDBRANCH   3  27
TORSDOF 8
ENDMDL
MODEL 7
REMARK VINA RESULT:    -6.339      2.758      7.927
REMARK INTER + INTRA:         -10.606
REMARK INTER:                  -9.377
REMARK INTRA:                  -1.229
REMARK UNBOUND:                -1.302
REMARK  Name = 
REMARK  9 active torsions:
REMARK  status: ('A' for Active; 'I' for Inactive)
REMARK    1  A    between atoms: C_1  and  C_2
REMARK    2  A    between atoms: C_2  and  C_3
REMARK    3  A    between atoms: C_5  and  C_6
REMARK    4  A    between atoms: C_6  and  C_7
REMARK    5  A    between atoms: C_7  and  C_8
REMARK    6  A    between atoms: C_10  and  O_11
REMARK    7  A    between atoms: O_11  and  C_12
REMARK    8  A    between atoms: C_18  and  C_19
REMARK    9  A    between atoms: C_24  and  C_25
REMARK                            x       y       z     vdW  Elec       q    Type
REMARK                         _______ _______ _______ _____ _____    ______ ____
ROOT
ATOM      1  C   UNL     1      48.901   7.815  13.489  0.00  0.00    +0.000 A 
ATOM      2  C   UNL     1      48.780   6.625  14.245  0.00  0.00    +0.000 A 
ATOM      3  C   UNL     1      49.175   6.567  15.580  0.00  0.00    +0.000 A 
ATOM      4  C   UNL     1      49.753   7.685  16.169  0.00  0.00    +0.000 A 
ATOM      5  C   UNL     1      49.848   8.882  15.456  0.00  0.00    +0.000 A 
ATOM      6  C   UNL     1      49.377   8.981  14.133  0.00  0.00    +0.000 A 
ENDROOT
BRANCH   6   7
ATOM      7  C   UNL     1      49.406  10.331  13.478  0.00  0.00    +0.000 C 
ATOM      8  N   UNL     1      48.340  11.163  13.718  0.00  0.00    +0.000 N 
ATOM      9  O   UNL     1      50.304  10.700  12.732  0.00  0.00    +0.000 OA
ATOM     10  H   UNL     1      47.480  10.854  14.149  0.00  0.00    +0.000 HD
ATOM     11  H   UNL     1      48.330  12.048  13.228  0.00  0.00    +0.000 HD
ENDBRANCH   6   7
BRANCH   1  12
ATOM     12  C   UNL     1      48.485   7.734  12.030  0.00  0.00    +0.000 C 
BRANCH  12  13
ATOM     13  C   UNL     1      47.013   8.108  11.830  0.00  0.00    +0.000 C 
BRANCH  13  16
ATOM     14  C   UNL     1      45.147   5.028  10.471  0.00  0.00    +0.000 A 
ATOM     15  C   UNL     1      45.928   6.207  10.549  0.00  0.00    +0.000 A 
ATOM     16  C   UNL     1      46.064   6.935  11.745  0.00  0.00    +0.000 A 
ATOM     17  C   UNL     1      45.358   6.509  12.868  0.00  0.00    +0.000 A 
ATOM     18  C   UNL     1      44.621   5.324  12.826  0.00  0.00    +0.000 A 
ATOM     19  C   UNL     1      44.559   4.543  11.654  0.00  0.00    +0.000 A 
BRANCH  19  20
ATOM     20  C   UNL     1      43.877   3.210  11.752  0.00  0.00    +0.000 C 
ATOM     21  N   UNL     1      44.360   2.354  12.706  0.00  0.00    +0.000 N 
ATOM     22  O   UNL     1      42.961   2.862  11.022  0.00  0.00    +0.000 OA
ATOM     23  H   UNL     1      45.247   2.499  13.171  0.00  0.00    +0.000 HD
ATOM     24  H   UNL     1      43.963   1.422  12.733  0.00  0.00    +0.000 HD
ENDBRANCH  19  20
BRANCH  14  26
ATOM     25  C   UNL     1      46.192   4.487   8.192  0.00  0.00    +0.000 C 
ATOM     26  C   UNL     1      44.976   4.404   9.100  0.00  0.00    +0.000 C 
ENDBRANCH  14  26
ENDBRANCH  13  16
ENDBRANCH  12  13
ENDBRANCH   1  12
BRANCH   3  27
ATOM     27  O   UNL     1      49.077   5.455  16.379  0.00  0.00    +0.000 OA
BRANCH  27  28
ATOM     28  C   UNL     1      47.763   4.944  16.701  0.00  0.00    +0.000 C 
ATOM     29  C   UNL     1      47.535   4.356  18.113  0.00  0.00    +0.000 C 
ATOM     30  N   UNL     1      46.809   3.217  17.511  0.00  0.00    +0.000 NA
ATOM     31  C   UNL     1      47.478   3.501  16.223  0.00  0.00    +0.000 C 
ATOM     32  H   UNL     1      45.796   3.342  17.481  0.00  0.00    +0.000 HD
ENDBRANCH  27  28
ENDBRANCH   3  27
TORSDOF 8
ENDMDL
MODEL 8
REMARK VINA RESULT:    -6.289      3.298      5.918
REMARK INTER + INTRA:         -10.532
REMARK INTER:                  -9.116
REMARK INTRA:                  -1.416
REMARK UNBOUND:                -1.302
REMARK  Name = 
REMARK  9 active torsions:
REMARK  status: ('A' for Active; 'I' for Inactive)
REMARK    1  A    between atoms: C_1  and  C_2
REMARK    2  A    between atoms: C_2  and  C_3
REMARK    3  A    between atoms: C_5  and  C_6
REMARK    4  A    between atoms: C_6  and  C_7
REMARK    5  A    between atoms: C_7  and  C_8
REMARK    6  A    between atoms: C_10  and  O_11
REMARK    7  A    between atoms: O_11  and  C_12
REMARK    8  A    between atoms: C_18  and  C_19
REMARK    9  A    between atoms: C_24  and  C_25
REMARK                            x       y       z     vdW  Elec       q    Type
REMARK                         _______ _______ _______ _____ _____    ______ ____
ROOT
ATOM      1  C   UNL     1      47.339   4.864  15.343  0.00  0.00    +0.000 A 
ATOM      2  C   UNL     1      46.493   4.173  14.443  0.00  0.00    +0.000 A 
ATOM      3  C   UNL     1      46.250   4.652  13.158  0.00  0.00    +0.000 A 
ATOM      4  C   UNL     1      46.804   5.865  12.767  0.00  0.00    +0.000 A 
ATOM      5  C   UNL     1      47.673   6.546  13.622  0.00  0.00    +0.000 A 
ATOM      6  C   UNL     1      47.996   6.033  14.893  0.00  0.00    +0.000 A 
ENDROOT
BRANCH   6   7
ATOM      7  C   UNL     1      49.027   6.763  15.702  0.00  0.00    +0.000 C 
ATOM      8  N   UNL     1      48.567   7.662  16.632  0.00  0.00    +0.000 N 
ATOM      9  O   UNL     1      50.233   6.618  15.548  0.00  0.00    +0.000 OA
ATOM     10  H   UNL     1      47.609   7.981  16.672  0.00  0.00    +0.000 HD
ATOM     11  H   UNL     1      49.262   8.199  17.134  0.00  0.00    +0.000 HD
ENDBRANCH   6   7
BRANCH   1  12
ATOM     12  C   UNL     1      47.480   4.266  16.733  0.00  0.00    +0.000 C 
BRANCH  12  13
ATOM     13  C   UNL     1      48.124   2.877  16.698  0.00  0.00    +0.000 C 
BRANCH  13  16
ATOM     14  C   UNL     1      51.549   3.927  18.107  0.00  0.00    +0.000 A 
ATOM     15  C   UNL     1      50.211   3.964  17.642  0.00  0.00    +0.000 A 
ATOM     16  C   UNL     1      49.592   2.845  17.057  0.00  0.00    +0.000 A 
ATOM     17  C   UNL     1      50.343   1.685  16.880  0.00  0.00    +0.000 A 
ATOM     18  C   UNL     1      51.647   1.611  17.374  0.00  0.00    +0.000 A 
ATOM     19  C   UNL     1      52.237   2.701  18.044  0.00  0.00    +0.000 A 
BRANCH  19  20
ATOM     20  C   UNL     1      53.578   2.473  18.677  0.00  0.00    +0.000 C 
ATOM     21  N   UNL     1      54.629   2.287  17.818  0.00  0.00    +0.000 N 
ATOM     22  O   UNL     1      53.758   2.420  19.885  0.00  0.00    +0.000 OA
ATOM     23  H   UNL     1      54.500   2.094  16.833  0.00  0.00    +0.000 HD
ATOM     24  H   UNL     1      55.525   2.054  18.228  0.00  0.00    +0.000 HD
ENDBRANCH  19  20
BRANCH  14  26
ATOM     25  C   UNL     1      51.136   6.309  18.965  0.00  0.00    +0.000 C 
ATOM     26  C   UNL     1      52.144   5.230  18.602  0.00  0.00    +0.000 C 
ENDBRANCH  14  26
ENDBRANCH  13  16
ENDBRANCH  12  13
ENDBRANCH   1  12
BRANCH   3  27
ATOM     27  O   UNL     1      45.453   4.033  12.228  0.00  0.00    +0.000 OA
BRANCH  27  28
ATOM     28  C   UNL     1      44.944   4.811  11.120  0.00  0.00    +0.000 C 
ATOM     29  C   UNL     1      43.418   4.815  10.871  0.00  0.00    +0.000 C 
ATOM     30  N   UNL     1      43.663   4.640   9.424  0.00  0.00    +0.000 NA
ATOM     31  C   UNL     1      45.012   4.121   9.738  0.00  0.00    +0.000 C 
ATOM     32  H   UNL     1      43.675   5.515   8.899  0.00  0.00    +0.000 HD
ENDBRANCH  27  28
ENDBRANCH   3  27
TORSDOF 8
ENDMDL
MODEL 9
REMARK VINA RESULT:    -6.208      4.096      7.150
REMARK INTER + INTRA:         -10.413
REMARK INTER:                  -9.259
REMARK INTRA:                  -1.154
REMARK UNBOUND:                -1.302
REMARK  Name = 
REMARK  9 active torsions:
REMARK  status: ('A' for Active; 'I' for Inactive)
REMARK    1  A    between atoms: C_1  and  C_2
REMARK    2  A    between atoms: C_2  and  C_3
REMARK    3  A    between atoms: C_5  and  C_6
REMARK    4  A    between atoms: C_6  and  C_7
REMARK    5  A    between atoms: C_7  and  C_8
REMARK    6  A    between atoms: C_10  and  O_11
REMARK    7  A    between atoms: O_11  and  C_12
REMARK    8  A    between atoms: C_18  and  C_19
REMARK    9  A    between atoms: C_24  and  C_25
REMARK                            x       y       z     vdW  Elec       q    Type
REMARK                         _______ _______ _______ _____ _____    ______ ____
ROOT
ATOM      1  C   UNL     1      45.597   6.061  12.292  0.00  0.00    +0.000 A 
ATOM      2  C   UNL     1      46.459   5.972  13.411  0.00  0.00    +0.000 A 
ATOM      3  C   UNL     1      46.866   4.741  13.920  0.00  0.00    +0.000 A 
ATOM      4  C   UNL     1      46.370   3.572  13.356  0.00  0.00    +0.000 A 
ATOM      5  C   UNL     1      45.549   3.633  12.227  0.00  0.00    +0.000 A 
ATOM      6  C   UNL     1      45.196   4.867  11.648  0.00  0.00    +0.000 A 
ENDROOT
BRANCH   6   7
ATOM      7  C   UNL     1      44.410   4.842  10.371  0.00  0.00    +0.000 C 
ATOM      8  N   UNL     1      45.127   4.836   9.199  0.00  0.00    +0.000 N 
ATOM      9  O   UNL     1      43.187   4.859  10.330  0.00  0.00    +0.000 OA
ATOM     10  H   UNL     1      46.118   5.027   9.152  0.00  0.00    +0.000 HD
ATOM     11  H   UNL     1      44.598   4.882   8.338  0.00  0.00    +0.000 HD
ENDBRANCH   6   7
BRANCH   1  12
ATOM     12  C   UNL     1      45.185   7.461  11.866  0.00  0.00    +0.000 C 
BRANCH  12  13
ATOM     13  C   UNL     1      45.691   8.530  12.838  0.00  0.00    +0.000 C 
BRANCH  13  16
ATOM     14  C   UNL     1      48.939   9.986  11.372  0.00  0.00    +0.000 A 
ATOM     15  C   UNL     1      48.019   9.140  12.039  0.00  0.00    +0.000 A 
ATOM     16  C   UNL     1      46.679   9.511  12.248  0.00  0.00    +0.000 A 
ATOM     17  C   UNL     1      46.266  10.776  11.835  0.00  0.00    +0.000 A 
ATOM     18  C   UNL     1      47.142  11.607  11.134  0.00  0.00    +0.000 A 
ATOM     19  C   UNL     1      48.459  11.198  10.842  0.00  0.00    +0.000 A 
BRANCH  19  20
ATOM     20  C   UNL     1      49.272  12.089   9.949  0.00  0.00    +0.000 C 
ATOM     21  N   UNL     1      48.840  12.201   8.654  0.00  0.00    +0.000 N 
ATOM     22  O   UNL     1      50.282  12.674  10.312  0.00  0.00    +0.000 OA
ATOM     23  H   UNL     1      48.160  11.571   8.249  0.00  0.00    +0.000 HD
ATOM     24  H   UNL     1      49.421  12.735   8.019  0.00  0.00    +0.000 HD
ENDBRANCH  19  20
BRANCH  14  26
ATOM     25  C   UNL     1      50.607   8.048  11.573  0.00  0.00    +0.000 C 
ATOM     26  C   UNL     1      50.384   9.530  11.319  0.00  0.00    +0.000 C 
ENDBRANCH  14  26
ENDBRANCH  13  16
ENDBRANCH  12  13
ENDBRANCH   1  12
BRANCH   3  27
ATOM     27  O   UNL     1      47.707   4.576  14.992  0.00  0.00    +0.000 OA
BRANCH  27  28
ATOM     28  C   UNL     1      47.205   3.909  16.174  0.00  0.00    +0.000 C 
ATOM     29  C   UNL     1      47.335   4.636  17.532  0.00  0.00    +0.000 C 
ATOM     30  N   UNL     1      47.794   3.376  18.153  0.00  0.00    +0.000 NA
ATOM     31  C   UNL     1      48.163   2.876  16.811  0.00  0.00    +0.000 C 
ATOM     32  H   UNL     1      47.048   2.838  18.596  0.00  0.00    +0.000 HD
ENDBRANCH  27  28
ENDBRANCH   3  27
TORSDOF 8
ENDMDL
