MODEL 1
REMARK VINA RESULT:    -8.837      0.000      0.000
REMARK INTER + INTRA:         -15.112
REMARK INTER:                 -13.745
REMARK INTRA:                  -1.368
REMARK UNBOUND:                -1.368
REMARK  Name = 
REMARK  10 active torsions:
REMARK  status: ('A' for Active; 'I' for Inactive)
REMARK    1  A    between atoms: C_2  and  C_23
REMARK    2  A    between atoms: N_3  and  C_4
REMARK    3  A    between atoms: C_4  and  C_5
REMARK    4  A    between atoms: C_9  and  C_10
REMARK    5  A    between atoms: C_10  and  N_11
REMARK    6  A    between atoms: N_11  and  C_12
REMARK    7  A    between atoms: N_11  and  C_15
REMARK    8  A    between atoms: C_12  and  C_13
REMARK    9  A    between atoms: C_13  and  O_14
REMARK   10  A    between atoms: C_15  and  C_16
REMARK                            x       y       z     vdW  Elec       q    Type
REMARK                         _______ _______ _______ _____ _____    ______ ____
ROOT
ATOM      1  C   UNL     1      47.004   5.382  13.984  0.00  0.00    +0.000 A 
ATOM      2  C   UNL     1      48.147   6.137  13.695  0.00  0.00    +0.000 A 
ATOM      3  C   UNL     1      48.208   6.913  12.537  0.00  0.00    +0.000 A 
ATOM      4  C   UNL     1      47.153   6.894  11.628  0.00  0.00    +0.000 A 
ATOM      5  C   UNL     1      46.048   6.060  11.844  0.00  0.00    +0.000 A 
ATOM      6  C   UNL     1      45.966   5.334  13.042  0.00  0.00    +0.000 A 
ENDROOT
BRANCH   1   7
ATOM      7  C   UNL     1      46.902   4.596  15.264  0.00  0.00    +0.000 C 
BRANCH   7  10
ATOM      8  O   UNL     1      47.445   4.814  18.017  0.00  0.00    +0.000 OA
ATOM      9  C   UNL     1      48.359   4.530  17.250  0.00  0.00    +0.000 C 
ATOM     10  N   UNL     1      48.187   4.451  15.894  0.00  0.00    +0.000 N 
ATOM     11  H   UNL     1      48.921   4.052  15.319  0.00  0.00    +0.000 HD
BRANCH   9  12
ATOM     12  C   UNL     1      49.723   4.293  17.746  0.00  0.00    +0.000 A 
ATOM     13  C   UNL     1      50.347   5.264  18.520  0.00  0.00    +0.000 A 
ATOM     14  S   UNL     1      51.919   4.833  19.019  0.00  0.00    +0.000 S 
ATOM     15  C   UNL     1      51.806   3.318  18.252  0.00  0.00    +0.000 A 
ATOM     16  N   UNL     1      52.825   2.419  18.330  0.00  0.00    +0.000 NA
ATOM     17  C   UNL     1      52.592   1.295  17.739  0.00  0.00    +0.000 A 
ATOM     18  N   UNL     1      51.440   0.994  17.063  0.00  0.00    +0.000 N 
ATOM     19  C   UNL     1      50.417   1.899  16.893  0.00  0.00    +0.000 A 
ATOM     20  O   UNL     1      49.462   1.646  16.166  0.00  0.00    +0.000 OA
ATOM     21  C   UNL     1      50.605   3.157  17.589  0.00  0.00    +0.000 A 
ATOM     22  H   UNL     1      51.327   0.104  16.599  0.00  0.00    +0.000 HD
ENDBRANCH   9  12
ENDBRANCH   7  10
ENDBRANCH   1   7
BRANCH   5  23
ATOM     23  C   UNL     1      44.988   5.898  10.774  0.00  0.00    +0.000 C 
BRANCH  23  24
ATOM     24  N   UNL     1      44.630   4.471  10.502  0.00  0.00    +0.000 NA
BRANCH  24  25
ATOM     25  C   UNL     1      43.364   4.129  11.208  0.00  0.00    +0.000 C 
BRANCH  25  26
ATOM     26  C   UNL     1      43.402   2.871  12.098  0.00  0.00    +0.000 C 
BRANCH  26  27
ATOM     27  O   UNL     1      43.130   1.685  11.360  0.00  0.00    +0.000 OA
ATOM     28  H   UNL     1      43.505   1.823  10.472  0.00  0.00    +0.000 HD
ENDBRANCH  26  27
ENDBRANCH  25  26
ENDBRANCH  24  25
BRANCH  24  29
ATOM     29  C   UNL     1      44.482   4.287   9.036  0.00  0.00    +0.000 C 
BRANCH  29  30
ATOM     30  C   UNL     1      45.402   3.242   8.443  0.00  0.00    +0.000 A 
ATOM     31  C   UNL     1      46.285   3.551   7.422  0.00  0.00    +0.000 A 
ATOM     32  C   UNL     1      47.070   2.542   6.885  0.00  0.00    +0.000 A 
ATOM     33  C   UNL     1      46.933   1.272   7.407  0.00  0.00    +0.000 A 
ATOM     34  N   UNL     1      46.075   0.989   8.409  0.00  0.00    +0.000 NA
ATOM     35  N   UNL     1      45.301   1.984   8.929  0.00  0.00    +0.000 NA
ENDBRANCH  29  30
ENDBRANCH  24  29
ENDBRANCH  23  24
ENDBRANCH   5  23
TORSDOF 10
ENDMDL
MODEL 2
REMARK VINA RESULT:    -8.362      2.147      2.925
REMARK INTER + INTRA:         -14.373
REMARK INTER:                 -12.953
REMARK INTRA:                  -1.420
REMARK UNBOUND:                -1.368
REMARK  Name = 
REMARK  10 active torsions:
REMARK  status: ('A' for Active; 'I' for Inactive)
REMARK    1  A    between atoms: C_2  and  C_23
REMARK    2  A    between atoms: N_3  and  C_4
REMARK    3  A    between atoms: C_4  and  C_5
REMARK    4  A    between atoms: C_9  and  C_10
REMARK    5  A    between atoms: C_10  and  N_11
REMARK    6  A    between atoms: N_11  and  C_12
REMARK    7  A    between atoms: N_11  and  C_15
REMARK    8  A    between atoms: C_12  and  C_13
REMARK    9  A    between atoms: C_13  and  O_14
REMARK   10  A    between atoms: C_15  and  C_16
REMARK                            x       y       z     vdW  Elec       q    Type
REMARK                         _______ _______ _______ _____ _____    ______ ____
ROOT
ATOM      1  C   UNL     1      47.389   7.587  12.035  0.00  0.00    +0.000 A 
ATOM      2  C   UNL     1      46.847   8.873  12.158  0.00  0.00    +0.000 A 
ATOM      3  C   UNL     1      45.477   9.081  11.997  0.00  0.00    +0.000 A 
ATOM      4  C   UNL     1      44.645   8.018  11.652  0.00  0.00    +0.000 A 
ATOM      5  C   UNL     1      45.184   6.746  11.417  0.00  0.00    +0.000 A 
ATOM      6  C   UNL     1      46.551   6.532  11.645  0.00  0.00    +0.000 A 
ENDROOT
BRANCH   1   7
ATOM      7  C   UNL     1      48.855   7.342  12.276  0.00  0.00    +0.000 C 
BRANCH   7  10
ATOM      8  O   UNL     1      48.879   8.446  14.864  0.00  0.00    +0.000 OA
ATOM      9  C   UNL     1      49.024   7.235  14.732  0.00  0.00    +0.000 C 
ATOM     10  N   UNL     1      49.072   6.628  13.505  0.00  0.00    +0.000 N 
ATOM     11  H   UNL     1      49.024   5.617  13.446  0.00  0.00    +0.000 HD
BRANCH   9  12
ATOM     12  C   UNL     1      49.200   6.357  15.898  0.00  0.00    +0.000 A 
ATOM     13  C   UNL     1      50.199   6.639  16.821  0.00  0.00    +0.000 A 
ATOM     14  S   UNL     1      50.266   5.531  18.115  0.00  0.00    +0.000 S 
ATOM     15  C   UNL     1      48.937   4.658  17.507  0.00  0.00    +0.000 A 
ATOM     16  N   UNL     1      48.443   3.583  18.179  0.00  0.00    +0.000 NA
ATOM     17  C   UNL     1      47.409   3.039  17.630  0.00  0.00    +0.000 A 
ATOM     18  N   UNL     1      46.835   3.461  16.461  0.00  0.00    +0.000 N 
ATOM     19  C   UNL     1      47.347   4.494  15.709  0.00  0.00    +0.000 A 
ATOM     20  O   UNL     1      46.892   4.756  14.600  0.00  0.00    +0.000 OA
ATOM     21  C   UNL     1      48.474   5.177  16.314  0.00  0.00    +0.000 A 
ATOM     22  H   UNL     1      46.041   2.977  16.068  0.00  0.00    +0.000 HD
ENDBRANCH   9  12
ENDBRANCH   7  10
ENDBRANCH   1   7
BRANCH   5  23
ATOM     23  C   UNL     1      44.314   5.635  10.866  0.00  0.00    +0.000 C 
BRANCH  23  24
ATOM     24  N   UNL     1      45.069   4.374  10.581  0.00  0.00    +0.000 NA
BRANCH  24  25
ATOM     25  C   UNL     1      44.945   3.445  11.738  0.00  0.00    +0.000 C 
BRANCH  25  26
ATOM     26  C   UNL     1      43.509   3.107  12.186  0.00  0.00    +0.000 C 
BRANCH  26  27
ATOM     27  O   UNL     1      43.086   1.834  11.710  0.00  0.00    +0.000 OA
ATOM     28  H   UNL     1      43.222   1.844  10.746  0.00  0.00    +0.000 HD
ENDBRANCH  26  27
ENDBRANCH  25  26
ENDBRANCH  24  25
BRANCH  24  29
ATOM     29  C   UNL     1      44.518   3.757   9.349  0.00  0.00    +0.000 C 
BRANCH  29  30
ATOM     30  C   UNL     1      45.524   2.958   8.549  0.00  0.00    +0.000 A 
ATOM     31  C   UNL     1      46.329   3.556   7.594  0.00  0.00    +0.000 A 
ATOM     32  C   UNL     1      47.199   2.766   6.859  0.00  0.00    +0.000 A 
ATOM     33  C   UNL     1      47.222   1.412   7.126  0.00  0.00    +0.000 A 
ATOM     34  N   UNL     1      46.439   0.845   8.066  0.00  0.00    +0.000 NA
ATOM     35  N   UNL     1      45.581   1.626   8.782  0.00  0.00    +0.000 NA
ENDBRANCH  29  30
ENDBRANCH  24  29
ENDBRANCH  23  24
ENDBRANCH   5  23
TORSDOF 10
ENDMDL
MODEL 3
REMARK VINA RESULT:    -8.322      1.729      2.206
REMARK INTER + INTRA:         -14.312
REMARK INTER:                 -13.441
REMARK INTRA:                  -0.871
REMARK UNBOUND:                -1.368
REMARK  Name = 
REMARK  10 active torsions:
REMARK  status: ('A' for Active; 'I' for Inactive)
REMARK    1  A    between atoms: C_2  and  C_23
REMARK    2  A    between atoms: N_3  and  C_4
REMARK    3  A    between atoms: C_4  and  C_5
REMARK    4  A    between atoms: C_9  and  C_10
REMARK    5  A    between atoms: C_10  and  N_11
REMARK    6  A    between atoms: N_11  and  C_12
REMARK    7  A    between atoms: N_11  and  C_15
REMARK    8  A    between atoms: C_12  and  C_13
REMARK    9  A    between atoms: C_13  and  O_14
REMARK   10  A    between atoms: C_15  and  C_16
REMARK                            x       y       z     vdW  Elec       q    Type
REMARK                         _______ _______ _______ _____ _____    ______ ____
ROOT
ATOM      1  C   UNL     1      47.019   5.210  13.681  0.00  0.00    +0.000 A 
ATOM      2  C   UNL     1      48.020   6.188  13.634  0.00  0.00    +0.000 A 
ATOM      3  C   UNL     1      48.049   7.121  12.598  0.00  0.00    +0.000 A 
ATOM      4  C   UNL     1      47.113   7.049  11.568  0.00  0.00    +0.000 A 
ATOM      5  C   UNL     1      46.172   6.012  11.539  0.00  0.00    +0.000 A 
ATOM      6  C   UNL     1      46.109   5.118  12.618  0.00  0.00    +0.000 A 
ENDROOT
BRANCH   1   7
ATOM      7  C   UNL     1      46.940   4.242  14.832  0.00  0.00    +0.000 C 
BRANCH   7  10
ATOM      8  O   UNL     1      46.594   3.208  17.427  0.00  0.00    +0.000 OA
ATOM      9  C   UNL     1      47.217   4.255  17.281  0.00  0.00    +0.000 C 
ATOM     10  N   UNL     1      47.388   4.847  16.057  0.00  0.00    +0.000 N 
ATOM     11  H   UNL     1      48.046   5.612  15.961  0.00  0.00    +0.000 HD
BRANCH   9  12
ATOM     12  C   UNL     1      47.790   4.968  18.432  0.00  0.00    +0.000 A 
ATOM     13  C   UNL     1      46.993   5.843  19.159  0.00  0.00    +0.000 A 
ATOM     14  S   UNL     1      47.805   6.582  20.464  0.00  0.00    +0.000 S 
ATOM     15  C   UNL     1      49.237   5.728  20.127  0.00  0.00    +0.000 A 
ATOM     16  N   UNL     1      50.338   5.873  20.915  0.00  0.00    +0.000 NA
ATOM     17  C   UNL     1      51.341   5.136  20.573  0.00  0.00    +0.000 A 
ATOM     18  N   UNL     1      51.350   4.280  19.504  0.00  0.00    +0.000 N 
ATOM     19  C   UNL     1      50.289   4.159  18.636  0.00  0.00    +0.000 A 
ATOM     20  O   UNL     1      50.381   3.489  17.612  0.00  0.00    +0.000 OA
ATOM     21  C   UNL     1      49.115   4.922  19.012  0.00  0.00    +0.000 A 
ATOM     22  H   UNL     1      52.176   3.748  19.272  0.00  0.00    +0.000 HD
ENDBRANCH   9  12
ENDBRANCH   7  10
ENDBRANCH   1   7
BRANCH   5  23
ATOM     23  C   UNL     1      45.276   5.824  10.333  0.00  0.00    +0.000 C 
BRANCH  23  24
ATOM     24  N   UNL     1      44.852   4.404  10.121  0.00  0.00    +0.000 NA
BRANCH  24  25
ATOM     25  C   UNL     1      43.557   4.160  10.815  0.00  0.00    +0.000 C 
BRANCH  25  26
ATOM     26  C   UNL     1      43.410   2.794  11.515  0.00  0.00    +0.000 C 
BRANCH  26  27
ATOM     27  O   UNL     1      43.542   2.900  12.928  0.00  0.00    +0.000 OA
ATOM     28  H   UNL     1      43.534   3.852  13.133  0.00  0.00    +0.000 HD
ENDBRANCH  26  27
ENDBRANCH  25  26
ENDBRANCH  24  25
BRANCH  24  29
ATOM     29  C   UNL     1      44.724   4.156   8.663  0.00  0.00    +0.000 C 
BRANCH  29  30
ATOM     30  C   UNL     1      45.689   3.125   8.119  0.00  0.00    +0.000 A 
ATOM     31  C   UNL     1      46.608   3.444   7.133  0.00  0.00    +0.000 A 
ATOM     32  C   UNL     1      47.435   2.447   6.639  0.00  0.00    +0.000 A 
ATOM     33  C   UNL     1      47.303   1.179   7.167  0.00  0.00    +0.000 A 
ATOM     34  N   UNL     1      46.410   0.886   8.135  0.00  0.00    +0.000 NA
ATOM     35  N   UNL     1      45.594   1.869   8.612  0.00  0.00    +0.000 NA
ENDBRANCH  29  30
ENDBRANCH  24  29
ENDBRANCH  23  24
ENDBRANCH   5  23
TORSDOF 10
ENDMDL
MODEL 4
REMARK VINA RESULT:    -7.969      2.179      3.211
REMARK INTER + INTRA:         -13.763
REMARK INTER:                 -12.588
REMARK INTRA:                  -1.174
REMARK UNBOUND:                -1.368
REMARK  Name = 
REMARK  10 active torsions:
REMARK  status: ('A' for Active; 'I' for Inactive)
REMARK    1  A    between atoms: C_2  and  C_23
REMARK    2  A    between atoms: N_3  and  C_4
REMARK    3  A    between atoms: C_4  and  C_5
REMARK    4  A    between atoms: C_9  and  C_10
REMARK    5  A    between atoms: C_10  and  N_11
REMARK    6  A    between atoms: N_11  and  C_12
REMARK    7  A    between atoms: N_11  and  C_15
REMARK    8  A    between atoms: C_12  and  C_13
REMARK    9  A    between atoms: C_13  and  O_14
REMARK   10  A    between atoms: C_15  and  C_16
REMARK                            x       y       z     vdW  Elec       q    Type
REMARK                         _______ _______ _______ _____ _____    ______ ____
ROOT
ATOM      1  C   UNL     1      47.128   5.385  13.864  0.00  0.00    +0.000 A 
ATOM      2  C   UNL     1      48.212   6.194  13.503  0.00  0.00    +0.000 A 
ATOM      3  C   UNL     1      48.150   6.990  12.359  0.00  0.00    +0.000 A 
ATOM      4  C   UNL     1      47.028   6.940  11.534  0.00  0.00    +0.000 A 
ATOM      5  C   UNL     1      45.979   6.056  11.820  0.00  0.00    +0.000 A 
ATOM      6  C   UNL     1      46.021   5.308  13.006  0.00  0.00    +0.000 A 
ENDROOT
BRANCH   1   7
ATOM      7  C   UNL     1      47.159   4.575  15.134  0.00  0.00    +0.000 C 
BRANCH   7  10
ATOM      8  O   UNL     1      49.251   3.558  16.717  0.00  0.00    +0.000 OA
ATOM      9  C   UNL     1      48.891   4.719  16.880  0.00  0.00    +0.000 C 
ATOM     10  N   UNL     1      47.850   5.273  16.183  0.00  0.00    +0.000 N 
ATOM     11  H   UNL     1      47.697   6.275  16.227  0.00  0.00    +0.000 HD
BRANCH   9  12
ATOM     12  C   UNL     1      49.538   5.584  17.878  0.00  0.00    +0.000 A 
ATOM     13  C   UNL     1      50.910   5.795  17.813  0.00  0.00    +0.000 A 
ATOM     14  S   UNL     1      51.500   6.826  19.035  0.00  0.00    +0.000 S 
ATOM     15  C   UNL     1      49.939   7.059  19.670  0.00  0.00    +0.000 A 
ATOM     16  N   UNL     1      49.733   7.887  20.730  0.00  0.00    +0.000 NA
ATOM     17  C   UNL     1      48.497   8.007  21.082  0.00  0.00    +0.000 A 
ATOM     18  N   UNL     1      47.450   7.358  20.484  0.00  0.00    +0.000 N 
ATOM     19  C   UNL     1      47.620   6.454  19.461  0.00  0.00    +0.000 A 
ATOM     20  O   UNL     1      46.678   5.788  19.041  0.00  0.00    +0.000 OA
ATOM     21  C   UNL     1      48.984   6.330  18.987  0.00  0.00    +0.000 A 
ATOM     22  H   UNL     1      46.506   7.473  20.823  0.00  0.00    +0.000 HD
ENDBRANCH   9  12
ENDBRANCH   7  10
ENDBRANCH   1   7
BRANCH   5  23
ATOM     23  C   UNL     1      44.847   5.866  10.832  0.00  0.00    +0.000 C 
BRANCH  23  24
ATOM     24  N   UNL     1      44.464   4.433  10.633  0.00  0.00    +0.000 NA
BRANCH  24  25
ATOM     25  C   UNL     1      43.228   4.133  11.406  0.00  0.00    +0.000 C 
BRANCH  25  26
ATOM     26  C   UNL     1      42.464   5.350  11.963  0.00  0.00    +0.000 C 
BRANCH  26  27
ATOM     27  O   UNL     1      42.532   5.421  13.383  0.00  0.00    +0.000 OA
ATOM     28  H   UNL     1      42.372   6.352  13.618  0.00  0.00    +0.000 HD
ENDBRANCH  26  27
ENDBRANCH  25  26
ENDBRANCH  24  25
BRANCH  24  29
ATOM     29  C   UNL     1      44.250   4.193   9.184  0.00  0.00    +0.000 C 
BRANCH  29  30
ATOM     30  C   UNL     1      45.273   3.277   8.546  0.00  0.00    +0.000 A 
ATOM     31  C   UNL     1      46.171   3.742   7.600  0.00  0.00    +0.000 A 
ATOM     32  C   UNL     1      47.053   2.848   7.015  0.00  0.00    +0.000 A 
ATOM     33  C   UNL     1      46.994   1.529   7.416  0.00  0.00    +0.000 A 
ATOM     34  N   UNL     1      46.121   1.092   8.346  0.00  0.00    +0.000 NA
ATOM     35  N   UNL     1      45.250   1.975   8.913  0.00  0.00    +0.000 NA
ENDBRANCH  29  30
ENDBRANCH  24  29
ENDBRANCH  23  24
ENDBRANCH   5  23
TORSDOF 10
ENDMDL
MODEL 5
REMARK VINA RESULT:    -7.443      2.935      4.240
REMARK INTER + INTRA:         -12.945
REMARK INTER:                 -11.819
REMARK INTRA:                  -1.126
REMARK UNBOUND:                -1.368
REMARK  Name = 
REMARK  10 active torsions:
REMARK  status: ('A' for Active; 'I' for Inactive)
REMARK    1  A    between atoms: C_2  and  C_23
REMARK    2  A    between atoms: N_3  and  C_4
REMARK    3  A    between atoms: C_4  and  C_5
REMARK    4  A    between atoms: C_9  and  C_10
REMARK    5  A    between atoms: C_10  and  N_11
REMARK    6  A    between atoms: N_11  and  C_12
REMARK    7  A    between atoms: N_11  and  C_15
REMARK    8  A    between atoms: C_12  and  C_13
REMARK    9  A    between atoms: C_13  and  O_14
REMARK   10  A    between atoms: C_15  and  C_16
REMARK                            x       y       z     vdW  Elec       q    Type
REMARK                         _______ _______ _______ _____ _____    ______ ____
ROOT
ATOM      1  C   UNL     1      47.236   6.937  13.095  0.00  0.00    +0.000 A 
ATOM      2  C   UNL     1      46.537   8.131  13.314  0.00  0.00    +0.000 A 
ATOM      3  C   UNL     1      45.417   8.445  12.544  0.00  0.00    +0.000 A 
ATOM      4  C   UNL     1      45.021   7.600  11.510  0.00  0.00    +0.000 A 
ATOM      5  C   UNL     1      45.771   6.456  11.205  0.00  0.00    +0.000 A 
ATOM      6  C   UNL     1      46.856   6.114  12.025  0.00  0.00    +0.000 A 
ENDROOT
BRANCH   1   7
ATOM      7  C   UNL     1      48.404   6.557  13.967  0.00  0.00    +0.000 C 
BRANCH   7  10
ATOM      8  O   UNL     1      50.084   5.925  16.134  0.00  0.00    +0.000 OA
ATOM      9  C   UNL     1      48.976   6.402  16.358  0.00  0.00    +0.000 C 
ATOM     10  N   UNL     1      48.082   6.692  15.362  0.00  0.00    +0.000 N 
ATOM     11  H   UNL     1      47.254   7.236  15.577  0.00  0.00    +0.000 HD
BRANCH   9  12
ATOM     12  C   UNL     1      48.520   6.655  17.733  0.00  0.00    +0.000 A 
ATOM     13  C   UNL     1      48.516   5.615  18.654  0.00  0.00    +0.000 A 
ATOM     14  S   UNL     1      47.967   6.076  20.201  0.00  0.00    +0.000 S 
ATOM     15  C   UNL     1      47.753   7.689  19.705  0.00  0.00    +0.000 A 
ATOM     16  N   UNL     1      47.330   8.639  20.583  0.00  0.00    +0.000 NA
ATOM     17  C   UNL     1      47.251   9.828  20.087  0.00  0.00    +0.000 A 
ATOM     18  N   UNL     1      47.538  10.151  18.788  0.00  0.00    +0.000 N 
ATOM     19  C   UNL     1      47.894   9.212  17.847  0.00  0.00    +0.000 A 
ATOM     20  O   UNL     1      48.008   9.513  16.663  0.00  0.00    +0.000 OA
ATOM     21  C   UNL     1      48.055   7.869  18.369  0.00  0.00    +0.000 A 
ATOM     22  H   UNL     1      47.432  11.098  18.452  0.00  0.00    +0.000 HD
ENDBRANCH   9  12
ENDBRANCH   7  10
ENDBRANCH   1   7
BRANCH   5  23
ATOM     23  C   UNL     1      45.452   5.637   9.972  0.00  0.00    +0.000 C 
BRANCH  23  24
ATOM     24  N   UNL     1      44.882   4.288  10.284  0.00  0.00    +0.000 NA
BRANCH  24  25
ATOM     25  C   UNL     1      43.738   4.434  11.226  0.00  0.00    +0.000 C 
BRANCH  25  26
ATOM     26  C   UNL     1      43.667   3.407  12.372  0.00  0.00    +0.000 C 
BRANCH  26  27
ATOM     27  O   UNL     1      44.717   3.585  13.317  0.00  0.00    +0.000 OA
ATOM     28  H   UNL     1      45.029   4.501  13.209  0.00  0.00    +0.000 HD
ENDBRANCH  26  27
ENDBRANCH  25  26
ENDBRANCH  24  25
BRANCH  24  29
ATOM     29  C   UNL     1      44.444   3.650   9.018  0.00  0.00    +0.000 C 
BRANCH  29  30
ATOM     30  C   UNL     1      45.519   2.843   8.322  0.00  0.00    +0.000 A 
ATOM     31  C   UNL     1      46.309   3.395   7.328  0.00  0.00    +0.000 A 
ATOM     32  C   UNL     1      47.246   2.595   6.693  0.00  0.00    +0.000 A 
ATOM     33  C   UNL     1      47.347   1.278   7.095  0.00  0.00    +0.000 A 
ATOM     34  N   UNL     1      46.577   0.757   8.072  0.00  0.00    +0.000 NA
ATOM     35  N   UNL     1      45.653   1.548   8.689  0.00  0.00    +0.000 NA
ENDBRANCH  29  30
ENDBRANCH  24  29
ENDBRANCH  23  24
ENDBRANCH   5  23
TORSDOF 10
ENDMDL
MODEL 6
REMARK VINA RESULT:    -7.405      2.537      3.169
REMARK INTER + INTRA:         -12.886
REMARK INTER:                 -12.025
REMARK INTRA:                  -0.861
REMARK UNBOUND:                -1.368
REMARK  Name = 
REMARK  10 active torsions:
REMARK  status: ('A' for Active; 'I' for Inactive)
REMARK    1  A    between atoms: C_2  and  C_23
REMARK    2  A    between atoms: N_3  and  C_4
REMARK    3  A    between atoms: C_4  and  C_5
REMARK    4  A    between atoms: C_9  and  C_10
REMARK    5  A    between atoms: C_10  and  N_11
REMARK    6  A    between atoms: N_11  and  C_12
REMARK    7  A    between atoms: N_11  and  C_15
REMARK    8  A    between atoms: C_12  and  C_13
REMARK    9  A    between atoms: C_13  and  O_14
REMARK   10  A    between atoms: C_15  and  C_16
REMARK                            x       y       z     vdW  Elec       q    Type
REMARK                         _______ _______ _______ _____ _____    ______ ____
ROOT
ATOM      1  C   UNL     1      47.626   6.151  13.807  0.00  0.00    +0.000 A 
ATOM      2  C   UNL     1      47.403   4.964  14.516  0.00  0.00    +0.000 A 
ATOM      3  C   UNL     1      46.629   3.945  13.962  0.00  0.00    +0.000 A 
ATOM      4  C   UNL     1      46.022   4.126  12.722  0.00  0.00    +0.000 A 
ATOM      5  C   UNL     1      46.142   5.347  12.046  0.00  0.00    +0.000 A 
ATOM      6  C   UNL     1      46.975   6.342  12.579  0.00  0.00    +0.000 A 
ENDROOT
BRANCH   1   7
ATOM      7  C   UNL     1      48.517   7.229  14.367  0.00  0.00    +0.000 C 
BRANCH   7  10
ATOM      8  O   UNL     1      50.477   6.222  16.118  0.00  0.00    +0.000 OA
ATOM      9  C   UNL     1      49.489   6.778  16.586  0.00  0.00    +0.000 C 
ATOM     10  N   UNL     1      48.469   7.253  15.804  0.00  0.00    +0.000 N 
ATOM     11  H   UNL     1      47.761   7.850  16.216  0.00  0.00    +0.000 HD
BRANCH   9  12
ATOM     12  C   UNL     1      49.319   6.935  18.038  0.00  0.00    +0.000 A 
ATOM     13  C   UNL     1      49.367   8.205  18.599  0.00  0.00    +0.000 A 
ATOM     14  S   UNL     1      49.147   8.213  20.289  0.00  0.00    +0.000 S 
ATOM     15  C   UNL     1      48.939   6.525  20.326  0.00  0.00    +0.000 A 
ATOM     16  N   UNL     1      48.669   5.880  21.494  0.00  0.00    +0.000 NA
ATOM     17  C   UNL     1      48.493   4.607  21.373  0.00  0.00    +0.000 A 
ATOM     18  N   UNL     1      48.581   3.916  20.194  0.00  0.00    +0.000 N 
ATOM     19  C   UNL     1      48.928   4.515  19.004  0.00  0.00    +0.000 A 
ATOM     20  O   UNL     1      49.134   3.846  17.995  0.00  0.00    +0.000 OA
ATOM     21  C   UNL     1      49.077   5.955  19.075  0.00  0.00    +0.000 A 
ATOM     22  H   UNL     1      48.458   2.915  20.168  0.00  0.00    +0.000 HD
ENDBRANCH   9  12
ENDBRANCH   7  10
ENDBRANCH   1   7
BRANCH   5  23
ATOM     23  C   UNL     1      45.337   5.612  10.791  0.00  0.00    +0.000 C 
BRANCH  23  24
ATOM     24  N   UNL     1      44.291   4.575  10.524  0.00  0.00    +0.000 NA
BRANCH  24  25
ATOM     25  C   UNL     1      42.998   5.002  11.127  0.00  0.00    +0.000 C 
BRANCH  25  26
ATOM     26  C   UNL     1      42.789   4.641  12.611  0.00  0.00    +0.000 C 
BRANCH  26  27
ATOM     27  O   UNL     1      42.951   5.769  13.464  0.00  0.00    +0.000 OA
ATOM     28  H   UNL     1      43.699   6.279  13.104  0.00  0.00    +0.000 HD
ENDBRANCH  26  27
ENDBRANCH  25  26
ENDBRANCH  24  25
BRANCH  24  29
ATOM     29  C   UNL     1      44.156   4.400   9.056  0.00  0.00    +0.000 C 
BRANCH  29  30
ATOM     30  C   UNL     1      45.194   3.488   8.439  0.00  0.00    +0.000 A 
ATOM     31  C   UNL     1      45.264   2.144   8.766  0.00  0.00    +0.000 A 
ATOM     32  C   UNL     1      46.267   1.368   8.206  0.00  0.00    +0.000 A 
ATOM     33  C   UNL     1      47.145   1.981   7.336  0.00  0.00    +0.000 A 
ATOM     34  N   UNL     1      47.059   3.289   7.019  0.00  0.00    +0.000 NA
ATOM     35  N   UNL     1      46.075   4.049   7.579  0.00  0.00    +0.000 NA
ENDBRANCH  29  30
ENDBRANCH  24  29
ENDBRANCH  23  24
ENDBRANCH   5  23
TORSDOF 10
ENDMDL
MODEL 7
REMARK VINA RESULT:    -7.325      2.365      2.977
REMARK INTER + INTRA:         -12.761
REMARK INTER:                 -11.466
REMARK INTRA:                  -1.295
REMARK UNBOUND:                -1.368
REMARK  Name = 
REMARK  10 active torsions:
REMARK  status: ('A' for Active; 'I' for Inactive)
REMARK    1  A    between atoms: C_2  and  C_23
REMARK    2  A    between atoms: N_3  and  C_4
REMARK    3  A    between atoms: C_4  and  C_5
REMARK    4  A    between atoms: C_9  and  C_10
REMARK    5  A    between atoms: C_10  and  N_11
REMARK    6  A    between atoms: N_11  and  C_12
REMARK    7  A    between atoms: N_11  and  C_15
REMARK    8  A    between atoms: C_12  and  C_13
REMARK    9  A    between atoms: C_13  and  O_14
REMARK   10  A    between atoms: C_15  and  C_16
REMARK                            x       y       z     vdW  Elec       q    Type
REMARK                         _______ _______ _______ _____ _____    ______ ____
ROOT
ATOM      1  C   UNL     1      47.648   7.602  12.528  0.00  0.00    +0.000 A 
ATOM      2  C   UNL     1      47.423   8.981  12.426  0.00  0.00    +0.000 A 
ATOM      3  C   UNL     1      46.159   9.469  12.096  0.00  0.00    +0.000 A 
ATOM      4  C   UNL     1      45.123   8.584  11.807  0.00  0.00    +0.000 A 
ATOM      5  C   UNL     1      45.355   7.202  11.797  0.00  0.00    +0.000 A 
ATOM      6  C   UNL     1      46.611   6.719  12.193  0.00  0.00    +0.000 A 
ENDROOT
BRANCH   1   7
ATOM      7  C   UNL     1      48.991   7.069  12.951  0.00  0.00    +0.000 C 
BRANCH   7  10
ATOM      8  O   UNL     1      48.107   5.501  15.114  0.00  0.00    +0.000 OA
ATOM      9  C   UNL     1      48.808   6.482  15.337  0.00  0.00    +0.000 C 
ATOM     10  N   UNL     1      49.240   7.322  14.345  0.00  0.00    +0.000 N 
ATOM     11  H   UNL     1      49.949   8.016  14.551  0.00  0.00    +0.000 HD
BRANCH   9  12
ATOM     12  C   UNL     1      49.200   6.843  16.708  0.00  0.00    +0.000 A 
ATOM     13  C   UNL     1      49.050   8.156  17.138  0.00  0.00    +0.000 A 
ATOM     14  S   UNL     1      49.542   8.406  18.751  0.00  0.00    +0.000 S 
ATOM     15  C   UNL     1      49.935   6.761  18.944  0.00  0.00    +0.000 A 
ATOM     16  N   UNL     1      50.388   6.288  20.137  0.00  0.00    +0.000 NA
ATOM     17  C   UNL     1      50.607   5.016  20.158  0.00  0.00    +0.000 A 
ATOM     18  N   UNL     1      50.433   4.177  19.089  0.00  0.00    +0.000 N 
ATOM     19  C   UNL     1      50.051   4.624  17.845  0.00  0.00    +0.000 A 
ATOM     20  O   UNL     1      50.039   3.869  16.877  0.00  0.00    +0.000 OA
ATOM     21  C   UNL     1      49.734   6.037  17.785  0.00  0.00    +0.000 A 
ATOM     22  H   UNL     1      50.646   3.193  19.162  0.00  0.00    +0.000 HD
ENDBRANCH   9  12
ENDBRANCH   7  10
ENDBRANCH   1   7
BRANCH   5  23
ATOM     23  C   UNL     1      44.285   6.248  11.307  0.00  0.00    +0.000 C 
BRANCH  23  24
ATOM     24  N   UNL     1      44.797   4.868  11.038  0.00  0.00    +0.000 NA
BRANCH  24  25
ATOM     25  C   UNL     1      44.476   3.982  12.191  0.00  0.00    +0.000 C 
BRANCH  25  26
ATOM     26  C   UNL     1      45.653   3.180  12.779  0.00  0.00    +0.000 C 
BRANCH  26  27
ATOM     27  O   UNL     1      46.176   3.784  13.958  0.00  0.00    +0.000 OA
ATOM     28  H   UNL     1      45.894   4.715  13.936  0.00  0.00    +0.000 HD
ENDBRANCH  26  27
ENDBRANCH  25  26
ENDBRANCH  24  25
BRANCH  24  29
ATOM     29  C   UNL     1      44.168   4.360   9.793  0.00  0.00    +0.000 C 
BRANCH  29  30
ATOM     30  C   UNL     1      45.133   3.701   8.831  0.00  0.00    +0.000 A 
ATOM     31  C   UNL     1      45.368   2.337   8.863  0.00  0.00    +0.000 A 
ATOM     32  C   UNL     1      46.299   1.795   7.990  0.00  0.00    +0.000 A 
ATOM     33  C   UNL     1      46.941   2.653   7.120  0.00  0.00    +0.000 A 
ATOM     34  N   UNL     1      46.694   3.978   7.093  0.00  0.00    +0.000 NA
ATOM     35  N   UNL     1      45.783   4.506   7.960  0.00  0.00    +0.000 NA
ENDBRANCH  29  30
ENDBRANCH  24  29
ENDBRANCH  23  24
ENDBRANCH   5  23
TORSDOF 10
ENDMDL
MODEL 8
REMARK VINA RESULT:    -7.209      5.055      6.427
REMARK INTER + INTRA:         -12.581
REMARK INTER:                 -11.504
REMARK INTRA:                  -1.077
REMARK UNBOUND:                -1.368
REMARK  Name = 
REMARK  10 active torsions:
REMARK  status: ('A' for Active; 'I' for Inactive)
REMARK    1  A    between atoms: C_2  and  C_23
REMARK    2  A    between atoms: N_3  and  C_4
REMARK    3  A    between atoms: C_4  and  C_5
REMARK    4  A    between atoms: C_9  and  C_10
REMARK    5  A    between atoms: C_10  and  N_11
REMARK    6  A    between atoms: N_11  and  C_12
REMARK    7  A    between atoms: N_11  and  C_15
REMARK    8  A    between atoms: C_12  and  C_13
REMARK    9  A    between atoms: C_13  and  O_14
REMARK   10  A    between atoms: C_15  and  C_16
REMARK                            x       y       z     vdW  Elec       q    Type
REMARK                         _______ _______ _______ _____ _____    ______ ____
ROOT
ATOM      1  C   UNL     1      48.763   7.289  11.985  0.00  0.00    +0.000 A 
ATOM      2  C   UNL     1      48.759   6.880  13.324  0.00  0.00    +0.000 A 
ATOM      3  C   UNL     1      47.734   6.070  13.813  0.00  0.00    +0.000 A 
ATOM      4  C   UNL     1      46.673   5.711  12.985  0.00  0.00    +0.000 A 
ATOM      5  C   UNL     1      46.602   6.199  11.674  0.00  0.00    +0.000 A 
ATOM      6  C   UNL     1      47.669   6.959  11.171  0.00  0.00    +0.000 A 
ENDROOT
BRANCH   1   7
ATOM      7  C   UNL     1      49.900   8.106  11.431  0.00  0.00    +0.000 C 
BRANCH   7  10
ATOM      8  O   UNL     1      52.071   8.864   9.809  0.00  0.00    +0.000 OA
ATOM      9  C   UNL     1      52.044   7.730  10.275  0.00  0.00    +0.000 C 
ATOM     10  N   UNL     1      51.001   7.269  11.035  0.00  0.00    +0.000 N 
ATOM     11  H   UNL     1      51.097   6.393  11.535  0.00  0.00    +0.000 HD
BRANCH   9  12
ATOM     12  C   UNL     1      53.126   6.771  10.009  0.00  0.00    +0.000 A 
ATOM     13  C   UNL     1      54.035   6.469  11.017  0.00  0.00    +0.000 A 
ATOM     14  S   UNL     1      55.220   5.337  10.549  0.00  0.00    +0.000 S 
ATOM     15  C   UNL     1      54.538   5.180   8.998  0.00  0.00    +0.000 A 
ATOM     16  N   UNL     1      55.063   4.314   8.089  0.00  0.00    +0.000 NA
ATOM     17  C   UNL     1      54.424   4.263   6.969  0.00  0.00    +0.000 A 
ATOM     18  N   UNL     1      53.319   5.013   6.667  0.00  0.00    +0.000 N 
ATOM     19  C   UNL     1      52.800   5.956   7.525  0.00  0.00    +0.000 A 
ATOM     20  O   UNL     1      51.897   6.706   7.171  0.00  0.00    +0.000 OA
ATOM     21  C   UNL     1      53.447   6.009   8.822  0.00  0.00    +0.000 A 
ATOM     22  H   UNL     1      52.877   4.946   5.762  0.00  0.00    +0.000 HD
ENDBRANCH   9  12
ENDBRANCH   7  10
ENDBRANCH   1   7
BRANCH   5  23
ATOM     23  C   UNL     1      45.365   5.962  10.833  0.00  0.00    +0.000 C 
BRANCH  23  24
ATOM     24  N   UNL     1      44.983   4.519  10.728  0.00  0.00    +0.000 NA
BRANCH  24  25
ATOM     25  C   UNL     1      43.871   4.226  11.674  0.00  0.00    +0.000 C 
BRANCH  25  26
ATOM     26  C   UNL     1      42.878   5.376  11.930  0.00  0.00    +0.000 C 
BRANCH  26  27
ATOM     27  O   UNL     1      42.844   5.758  13.301  0.00  0.00    +0.000 OA
ATOM     28  H   UNL     1      43.059   6.708  13.325  0.00  0.00    +0.000 HD
ENDBRANCH  26  27
ENDBRANCH  25  26
ENDBRANCH  24  25
BRANCH  24  29
ATOM     29  C   UNL     1      44.575   4.234   9.330  0.00  0.00    +0.000 C 
BRANCH  29  30
ATOM     30  C   UNL     1      45.504   3.297   8.588  0.00  0.00    +0.000 A 
ATOM     31  C   UNL     1      46.347   3.754   7.589  0.00  0.00    +0.000 A 
ATOM     32  C   UNL     1      47.141   2.843   6.911  0.00  0.00    +0.000 A 
ATOM     33  C   UNL     1      47.055   1.515   7.278  0.00  0.00    +0.000 A 
ATOM     34  N   UNL     1      46.236   1.086   8.260  0.00  0.00    +0.000 NA
ATOM     35  N   UNL     1      45.452   1.986   8.919  0.00  0.00    +0.000 NA
ENDBRANCH  29  30
ENDBRANCH  24  29
ENDBRANCH  23  24
ENDBRANCH   5  23
TORSDOF 10
ENDMDL
MODEL 9
REMARK VINA RESULT:    -7.079      2.615      3.510
REMARK INTER + INTRA:         -12.379
REMARK INTER:                 -10.502
REMARK INTRA:                  -1.877
REMARK UNBOUND:                -1.368
REMARK  Name = 
REMARK  10 active torsions:
REMARK  status: ('A' for Active; 'I' for Inactive)
REMARK    1  A    between atoms: C_2  and  C_23
REMARK    2  A    between atoms: N_3  and  C_4
REMARK    3  A    between atoms: C_4  and  C_5
REMARK    4  A    between atoms: C_9  and  C_10
REMARK    5  A    between atoms: C_10  and  N_11
REMARK    6  A    between atoms: N_11  and  C_12
REMARK    7  A    between atoms: N_11  and  C_15
REMARK    8  A    between atoms: C_12  and  C_13
REMARK    9  A    between atoms: C_13  and  O_14
REMARK   10  A    between atoms: C_15  and  C_16
REMARK                            x       y       z     vdW  Elec       q    Type
REMARK                         _______ _______ _______ _____ _____    ______ ____
ROOT
ATOM      1  C   UNL     1      48.919   8.584  13.734  0.00  0.00    +0.000 A 
ATOM      2  C   UNL     1      49.822   8.324  12.696  0.00  0.00    +0.000 A 
ATOM      3  C   UNL     1      49.392   7.705  11.523  0.00  0.00    +0.000 A 
ATOM      4  C   UNL     1      48.069   7.286  11.399  0.00  0.00    +0.000 A 
ATOM      5  C   UNL     1      47.176   7.439  12.467  0.00  0.00    +0.000 A 
ATOM      6  C   UNL     1      47.600   8.120  13.618  0.00  0.00    +0.000 A 
ENDROOT
BRANCH   1   7
ATOM      7  C   UNL     1      49.359   9.313  14.976  0.00  0.00    +0.000 C 
BRANCH   7  10
ATOM      8  O   UNL     1      47.711   9.572  17.242  0.00  0.00    +0.000 OA
ATOM      9  C   UNL     1      48.480   8.619  17.171  0.00  0.00    +0.000 C 
ATOM     10  N   UNL     1      49.347   8.447  16.124  0.00  0.00    +0.000 N 
ATOM     11  H   UNL     1      49.839   7.567  16.022  0.00  0.00    +0.000 HD
BRANCH   9  12
ATOM     12  C   UNL     1      48.546   7.611  18.239  0.00  0.00    +0.000 A 
ATOM     13  C   UNL     1      48.490   8.018  19.567  0.00  0.00    +0.000 A 
ATOM     14  S   UNL     1      48.572   6.729  20.679  0.00  0.00    +0.000 S 
ATOM     15  C   UNL     1      48.644   5.580  19.427  0.00  0.00    +0.000 A 
ATOM     16  N   UNL     1      48.688   4.248  19.704  0.00  0.00    +0.000 NA
ATOM     17  C   UNL     1      48.697   3.486  18.662  0.00  0.00    +0.000 A 
ATOM     18  N   UNL     1      48.685   3.934  17.368  0.00  0.00    +0.000 N 
ATOM     19  C   UNL     1      48.718   5.271  17.042  0.00  0.00    +0.000 A 
ATOM     20  O   UNL     1      48.846   5.635  15.877  0.00  0.00    +0.000 OA
ATOM     21  C   UNL     1      48.648   6.169  18.178  0.00  0.00    +0.000 A 
ATOM     22  H   UNL     1      48.719   3.287  16.594  0.00  0.00    +0.000 HD
ENDBRANCH   9  12
ENDBRANCH   7  10
ENDBRANCH   1   7
BRANCH   5  23
ATOM     23  C   UNL     1      45.794   6.823  12.405  0.00  0.00    +0.000 C 
BRANCH  23  24
ATOM     24  N   UNL     1      45.789   5.422  11.879  0.00  0.00    +0.000 NA
BRANCH  24  25
ATOM     25  C   UNL     1      45.461   4.475  12.980  0.00  0.00    +0.000 C 
BRANCH  25  26
ATOM     26  C   UNL     1      46.650   3.707  13.592  0.00  0.00    +0.000 C 
BRANCH  26  27
ATOM     27  O   UNL     1      46.703   3.842  15.008  0.00  0.00    +0.000 OA
ATOM     28  H   UNL     1      46.950   2.967  15.356  0.00  0.00    +0.000 HD
ENDBRANCH  26  27
ENDBRANCH  25  26
ENDBRANCH  24  25
BRANCH  24  29
ATOM     29  C   UNL     1      44.789   5.326  10.786  0.00  0.00    +0.000 C 
BRANCH  29  30
ATOM     30  C   UNL     1      45.222   4.466   9.618  0.00  0.00    +0.000 A 
ATOM     31  C   UNL     1      44.972   3.105   9.589  0.00  0.00    +0.000 A 
ATOM     32  C   UNL     1      45.434   2.360   8.515  0.00  0.00    +0.000 A 
ATOM     33  C   UNL     1      46.119   3.024   7.518  0.00  0.00    +0.000 A 
ATOM     34  N   UNL     1      46.347   4.352   7.556  0.00  0.00    +0.000 NA
ATOM     35  N   UNL     1      45.896   5.079   8.618  0.00  0.00    +0.000 NA
ENDBRANCH  29  30
ENDBRANCH  24  29
ENDBRANCH  23  24
ENDBRANCH   5  23
TORSDOF 10
ENDMDL
