MODEL 1
REMARK VINA RESULT:    -7.057      0.000      0.000
REMARK INTER + INTRA:          -9.728
REMARK INTER:                  -9.327
REMARK INTRA:                  -0.402
REMARK UNBOUND:                -0.402
REMARK  Name = 
REMARK  6 active torsions:
REMARK  status: ('A' for Active; 'I' for Inactive)
REMARK    1  A    between atoms: N_1  and  C_2
REMARK    2  A    between atoms: C_2  and  C_3
REMARK    3  A    between atoms: C_7  and  O_8
REMARK    4  A    between atoms: O_8  and  C_9
REMARK    5  A    between atoms: C_10  and  C_11
REMARK    6  A    between atoms: C_15  and  C_16
REMARK                            x       y       z     vdW  Elec       q    Type
REMARK                         _______ _______ _______ _____ _____    ______ ____
ROOT
ATOM      1  C   UNL     1      45.688   5.564  10.835  0.00  0.00    +0.000 C 
ATOM      2  C   UNL     1      45.714   4.935  12.018  0.00  0.00    +0.000 C 
ENDROOT
BRANCH   2   3
ATOM      3  C   UNL     1      46.603   5.317  13.128  0.00  0.00    +0.000 A 
ATOM      4  C   UNL     1      47.437   6.439  13.077  0.00  0.00    +0.000 A 
ATOM      5  C   UNL     1      48.269   6.712  14.155  0.00  0.00    +0.000 A 
ATOM      6  N   UNL     1      48.321   5.962  15.275  0.00  0.00    +0.000 NA
ATOM      7  C   UNL     1      47.483   4.889  15.317  0.00  0.00    +0.000 A 
ATOM      8  C   UNL     1      46.615   4.537  14.287  0.00  0.00    +0.000 A 
BRANCH   7   9
ATOM      9  C   UNL     1      47.540   4.048  16.554  0.00  0.00    +0.000 C 
ATOM     10  N   UNL     1      48.735   4.066  17.223  0.00  0.00    +0.000 N 
ATOM     11  O   UNL     1      46.589   3.385  16.949  0.00  0.00    +0.000 OA
ATOM     12  H   UNL     1      49.502   4.620  16.864  0.00  0.00    +0.000 HD
ATOM     13  H   UNL     1      48.846   3.515  18.060  0.00  0.00    +0.000 HD
ENDBRANCH   7   9
ENDBRANCH   2   3
BRANCH   1  14
ATOM     14  O   UNL     1      44.909   5.135   9.782  0.00  0.00    +0.000 OA
BRANCH  14  19
ATOM     15  C   UNL     1      46.522   2.931   7.328  0.00  0.00    +0.000 A 
ATOM     16  C   UNL     1      46.070   1.676   7.764  0.00  0.00    +0.000 A 
ATOM     17  C   UNL     1      45.206   1.566   8.854  0.00  0.00    +0.000 A 
ATOM     18  C   UNL     1      44.797   2.711   9.534  0.00  0.00    +0.000 A 
ATOM     19  C   UNL     1      45.277   3.965   9.147  0.00  0.00    +0.000 A 
ATOM     20  C   UNL     1      46.117   4.078   8.034  0.00  0.00    +0.000 A 
BRANCH  15  21
ATOM     21  C   UNL     1      47.446   3.027   6.141  0.00  0.00    +0.000 C 
BRANCH  21  22
ATOM     22  N   UNL     1      48.290   1.843   6.012  0.00  0.00    +0.000 NA
ATOM     23  H   UNL     1      47.741   1.079   5.625  0.00  0.00    +0.000 HD
ATOM     24  H   UNL     1      48.583   1.547   6.943  0.00  0.00    +0.000 HD
ENDBRANCH  21  22
ENDBRANCH  15  21
ENDBRANCH  14  19
ENDBRANCH   1  14
TORSDOF 6
ENDMDL
MODEL 2
REMARK VINA RESULT:    -6.833      2.069      2.405
REMARK INTER + INTRA:          -9.432
REMARK INTER:                  -9.009
REMARK INTRA:                  -0.423
REMARK UNBOUND:                -0.402
REMARK  Name = 
REMARK  6 active torsions:
REMARK  status: ('A' for Active; 'I' for Inactive)
REMARK    1  A    between atoms: N_1  and  C_2
REMARK    2  A    between atoms: C_2  and  C_3
REMARK    3  A    between atoms: C_7  and  O_8
REMARK    4  A    between atoms: O_8  and  C_9
REMARK    5  A    between atoms: C_10  and  C_11
REMARK    6  A    between atoms: C_15  and  C_16
REMARK                            x       y       z     vdW  Elec       q    Type
REMARK                         _______ _______ _______ _____ _____    ______ ____
ROOT
ATOM      1  C   UNL     1      45.042   5.321   9.864  0.00  0.00    +0.000 C 
ATOM      2  C   UNL     1      44.762   5.620  11.139  0.00  0.00    +0.000 C 
ENDROOT
BRANCH   2   3
ATOM      3  C   UNL     1      45.520   6.600  11.936  0.00  0.00    +0.000 A 
ATOM      4  C   UNL     1      45.116   7.931  12.081  0.00  0.00    +0.000 A 
ATOM      5  C   UNL     1      45.905   8.799  12.824  0.00  0.00    +0.000 A 
ATOM      6  N   UNL     1      47.050   8.438  13.437  0.00  0.00    +0.000 NA
ATOM      7  C   UNL     1      47.414   7.132  13.306  0.00  0.00    +0.000 A 
ATOM      8  C   UNL     1      46.688   6.190  12.583  0.00  0.00    +0.000 A 
BRANCH   7   9
ATOM      9  C   UNL     1      48.688   6.725  13.978  0.00  0.00    +0.000 C 
ATOM     10  N   UNL     1      49.835   7.210  13.408  0.00  0.00    +0.000 N 
ATOM     11  O   UNL     1      48.714   6.008  14.971  0.00  0.00    +0.000 OA
ATOM     12  H   UNL     1      49.776   7.795  12.583  0.00  0.00    +0.000 HD
ATOM     13  H   UNL     1      50.730   6.967  13.804  0.00  0.00    +0.000 HD
ENDBRANCH   7   9
ENDBRANCH   2   3
BRANCH   1  14
ATOM     14  O   UNL     1      44.371   4.339   9.165  0.00  0.00    +0.000 OA
BRANCH  14  19
ATOM     15  C   UNL     1      46.721   2.649   6.906  0.00  0.00    +0.000 A 
ATOM     16  C   UNL     1      46.667   1.337   7.402  0.00  0.00    +0.000 A 
ATOM     17  C   UNL     1      45.827   1.010   8.467  0.00  0.00    +0.000 A 
ATOM     18  C   UNL     1      45.044   1.996   9.062  0.00  0.00    +0.000 A 
ATOM     19  C   UNL     1      45.122   3.318   8.616  0.00  0.00    +0.000 A 
ATOM     20  C   UNL     1      45.939   3.639   7.527  0.00  0.00    +0.000 A 
BRANCH  15  21
ATOM     21  C   UNL     1      47.627   2.978   5.746  0.00  0.00    +0.000 C 
BRANCH  21  22
ATOM     22  N   UNL     1      48.506   1.862   5.411  0.00  0.00    +0.000 NA
ATOM     23  H   UNL     1      48.676   1.857   4.408  0.00  0.00    +0.000 HD
ATOM     24  H   UNL     1      48.026   0.990   5.628  0.00  0.00    +0.000 HD
ENDBRANCH  21  22
ENDBRANCH  15  21
ENDBRANCH  14  19
ENDBRANCH   1  14
TORSDOF 6
ENDMDL
MODEL 3
REMARK VINA RESULT:    -6.405      2.860      7.551
REMARK INTER + INTRA:          -8.866
REMARK INTER:                  -8.392
REMARK INTRA:                  -0.474
REMARK UNBOUND:                -0.402
REMARK  Name = 
REMARK  6 active torsions:
REMARK  status: ('A' for Active; 'I' for Inactive)
REMARK    1  A    between atoms: N_1  and  C_2
REMARK    2  A    between atoms: C_2  and  C_3
REMARK    3  A    between atoms: C_7  and  O_8
REMARK    4  A    between atoms: O_8  and  C_9
REMARK    5  A    between atoms: C_10  and  C_11
REMARK    6  A    between atoms: C_15  and  C_16
REMARK                            x       y       z     vdW  Elec       q    Type
REMARK                         _______ _______ _______ _____ _____    ______ ____
ROOT
ATOM      1  C   UNL     1      45.088   5.303  10.804  0.00  0.00    +0.000 C 
ATOM      2  C   UNL     1      44.561   4.788   9.685  0.00  0.00    +0.000 C 
ENDROOT
BRANCH   2   3
ATOM      3  C   UNL     1      45.093   3.595   9.004  0.00  0.00    +0.000 A 
ATOM      4  C   UNL     1      44.774   2.292   9.402  0.00  0.00    +0.000 A 
ATOM      5  C   UNL     1      45.343   1.222   8.726  0.00  0.00    +0.000 A 
ATOM      6  N   UNL     1      46.189   1.353   7.684  0.00  0.00    +0.000 NA
ATOM      7  C   UNL     1      46.468   2.628   7.296  0.00  0.00    +0.000 A 
ATOM      8  C   UNL     1      45.945   3.762   7.911  0.00  0.00    +0.000 A 
BRANCH   7   9
ATOM      9  C   UNL     1      47.412   2.782   6.144  0.00  0.00    +0.000 C 
ATOM     10  N   UNL     1      48.713   2.436   6.400  0.00  0.00    +0.000 N 
ATOM     11  O   UNL     1      47.057   3.188   5.045  0.00  0.00    +0.000 OA
ATOM     12  H   UNL     1      48.972   2.110   7.322  0.00  0.00    +0.000 HD
ATOM     13  H   UNL     1      49.404   2.523   5.671  0.00  0.00    +0.000 HD
ENDBRANCH   7   9
ENDBRANCH   2   3
BRANCH   1  14
ATOM     14  O   UNL     1      44.624   6.470  11.375  0.00  0.00    +0.000 OA
BRANCH  14  19
ATOM     15  C   UNL     1      47.887   8.034  12.003  0.00  0.00    +0.000 A 
ATOM     16  C   UNL     1      47.504   9.369  12.208  0.00  0.00    +0.000 A 
ATOM     17  C   UNL     1      46.160   9.741  12.167  0.00  0.00    +0.000 A 
ATOM     18  C   UNL     1      45.182   8.785  11.902  0.00  0.00    +0.000 A 
ATOM     19  C   UNL     1      45.548   7.461  11.644  0.00  0.00    +0.000 A 
ATOM     20  C   UNL     1      46.892   7.082  11.718  0.00  0.00    +0.000 A 
BRANCH  15  21
ATOM     21  C   UNL     1      49.344   7.652  12.062  0.00  0.00    +0.000 C 
BRANCH  21  22
ATOM     22  N   UNL     1      49.646   6.850  13.244  0.00  0.00    +0.000 NA
ATOM     23  H   UNL     1      48.966   6.097  13.323  0.00  0.00    +0.000 HD
ATOM     24  H   UNL     1      49.530   7.432  14.073  0.00  0.00    +0.000 HD
ENDBRANCH  21  22
ENDBRANCH  15  21
ENDBRANCH  14  19
ENDBRANCH   1  14
TORSDOF 6
ENDMDL
MODEL 4
REMARK VINA RESULT:    -6.393      4.104      8.048
REMARK INTER + INTRA:          -8.851
REMARK INTER:                  -8.439
REMARK INTRA:                  -0.411
REMARK UNBOUND:                -0.402
REMARK  Name = 
REMARK  6 active torsions:
REMARK  status: ('A' for Active; 'I' for Inactive)
REMARK    1  A    between atoms: N_1  and  C_2
REMARK    2  A    between atoms: C_2  and  C_3
REMARK    3  A    between atoms: C_7  and  O_8
REMARK    4  A    between atoms: O_8  and  C_9
REMARK    5  A    between atoms: C_10  and  C_11
REMARK    6  A    between atoms: C_15  and  C_16
REMARK                            x       y       z     vdW  Elec       q    Type
REMARK                         _______ _______ _______ _____ _____    ______ ____
ROOT
ATOM      1  C   UNL     1      47.304   4.297  15.833  0.00  0.00    +0.000 C 
ATOM      2  C   UNL     1      46.983   4.004  14.566  0.00  0.00    +0.000 C 
ENDROOT
BRANCH   2   3
ATOM      3  C   UNL     1      46.309   4.944  13.654  0.00  0.00    +0.000 A 
ATOM      4  C   UNL     1      46.857   6.183  13.305  0.00  0.00    +0.000 A 
ATOM      5  C   UNL     1      46.142   7.024  12.463  0.00  0.00    +0.000 A 
ATOM      6  N   UNL     1      44.938   6.719  11.938  0.00  0.00    +0.000 NA
ATOM      7  C   UNL     1      44.433   5.498  12.269  0.00  0.00    +0.000 A 
ATOM      8  C   UNL     1      45.076   4.589  13.104  0.00  0.00    +0.000 A 
BRANCH   7   9
ATOM      9  C   UNL     1      43.093   5.155  11.696  0.00  0.00    +0.000 C 
ATOM     10  N   UNL     1      42.145   6.141  11.784  0.00  0.00    +0.000 N 
ATOM     11  O   UNL     1      42.850   4.071  11.182  0.00  0.00    +0.000 OA
ATOM     12  H   UNL     1      42.380   7.023  12.222  0.00  0.00    +0.000 HD
ATOM     13  H   UNL     1      41.218   5.974  11.426  0.00  0.00    +0.000 HD
ENDBRANCH   7   9
ENDBRANCH   2   3
BRANCH   1  14
ATOM     14  O   UNL     1      47.857   3.372  16.694  0.00  0.00    +0.000 OA
BRANCH  14  19
ATOM     15  C   UNL     1      51.339   2.493  17.459  0.00  0.00    +0.000 A 
ATOM     16  C   UNL     1      51.863   3.753  17.786  0.00  0.00    +0.000 A 
ATOM     17  C   UNL     1      51.052   4.887  17.781  0.00  0.00    +0.000 A 
ATOM     18  C   UNL     1      49.708   4.780  17.430  0.00  0.00    +0.000 A 
ATOM     19  C   UNL     1      49.180   3.542  17.051  0.00  0.00    +0.000 A 
ATOM     20  C   UNL     1      49.986   2.399  17.089  0.00  0.00    +0.000 A 
BRANCH  15  21
ATOM     21  C   UNL     1      52.231   1.277  17.482  0.00  0.00    +0.000 C 
BRANCH  21  22
ATOM     22  N   UNL     1      51.597   0.152  18.160  0.00  0.00    +0.000 NA
ATOM     23  H   UNL     1      50.745   0.471  18.616  0.00  0.00    +0.000 HD
ATOM     24  H   UNL     1      52.216  -0.176  18.900  0.00  0.00    +0.000 HD
ENDBRANCH  21  22
ENDBRANCH  15  21
ENDBRANCH  14  19
ENDBRANCH   1  14
TORSDOF 6
ENDMDL
MODEL 5
REMARK VINA RESULT:    -6.349      4.042      5.665
REMARK INTER + INTRA:          -8.792
REMARK INTER:                  -8.427
REMARK INTRA:                  -0.365
REMARK UNBOUND:                -0.402
REMARK  Name = 
REMARK  6 active torsions:
REMARK  status: ('A' for Active; 'I' for Inactive)
REMARK    1  A    between atoms: N_1  and  C_2
REMARK    2  A    between atoms: C_2  and  C_3
REMARK    3  A    between atoms: C_7  and  O_8
REMARK    4  A    between atoms: O_8  and  C_9
REMARK    5  A    between atoms: C_10  and  C_11
REMARK    6  A    between atoms: C_15  and  C_16
REMARK                            x       y       z     vdW  Elec       q    Type
REMARK                         _______ _______ _______ _____ _____    ______ ____
ROOT
ATOM      1  C   UNL     1      47.322   4.340  15.469  0.00  0.00    +0.000 C 
ATOM      2  C   UNL     1      47.759   3.430  16.350  0.00  0.00    +0.000 C 
ENDROOT
BRANCH   2   3
ATOM      3  C   UNL     1      49.068   3.503  17.020  0.00  0.00    +0.000 A 
ATOM      4  C   UNL     1      49.529   4.660  17.657  0.00  0.00    +0.000 A 
ATOM      5  C   UNL     1      50.790   4.655  18.238  0.00  0.00    +0.000 A 
ATOM      6  N   UNL     1      51.613   3.587  18.242  0.00  0.00    +0.000 NA
ATOM      7  C   UNL     1      51.137   2.462  17.639  0.00  0.00    +0.000 A 
ATOM      8  C   UNL     1      49.888   2.372  17.032  0.00  0.00    +0.000 A 
BRANCH   7   9
ATOM      9  C   UNL     1      52.048   1.274  17.633  0.00  0.00    +0.000 C 
ATOM     10  N   UNL     1      51.525   0.128  18.172  0.00  0.00    +0.000 N 
ATOM     11  O   UNL     1      53.186   1.313  17.180  0.00  0.00    +0.000 OA
ATOM     12  H   UNL     1      50.584   0.134  18.544  0.00  0.00    +0.000 HD
ATOM     13  H   UNL     1      52.088  -0.707  18.209  0.00  0.00    +0.000 HD
ENDBRANCH   7   9
ENDBRANCH   2   3
BRANCH   1  14
ATOM     14  O   UNL     1      46.129   4.205  14.791  0.00  0.00    +0.000 OA
BRANCH  14  19
ATOM     15  C   UNL     1      44.524   5.491  11.748  0.00  0.00    +0.000 A 
ATOM     16  C   UNL     1      45.548   6.301  11.233  0.00  0.00    +0.000 A 
ATOM     17  C   UNL     1      46.779   6.395  11.881  0.00  0.00    +0.000 A 
ATOM     18  C   UNL     1      46.997   5.694  13.064  0.00  0.00    +0.000 A 
ATOM     19  C   UNL     1      45.973   4.923  13.621  0.00  0.00    +0.000 A 
ATOM     20  C   UNL     1      44.750   4.802  12.953  0.00  0.00    +0.000 A 
BRANCH  15  21
ATOM     21  C   UNL     1      43.204   5.395  11.025  0.00  0.00    +0.000 C 
BRANCH  21  22
ATOM     22  N   UNL     1      42.135   6.067  11.757  0.00  0.00    +0.000 NA
ATOM     23  H   UNL     1      42.078   7.037  11.453  0.00  0.00    +0.000 HD
ATOM     24  H   UNL     1      42.378   6.088  12.747  0.00  0.00    +0.000 HD
ENDBRANCH  21  22
ENDBRANCH  15  21
ENDBRANCH  14  19
ENDBRANCH   1  14
TORSDOF 6
ENDMDL
MODEL 6
REMARK VINA RESULT:    -6.336      2.686      8.367
REMARK INTER + INTRA:          -8.775
REMARK INTER:                  -8.386
REMARK INTRA:                  -0.389
REMARK UNBOUND:                -0.402
REMARK  Name = 
REMARK  6 active torsions:
REMARK  status: ('A' for Active; 'I' for Inactive)
REMARK    1  A    between atoms: N_1  and  C_2
REMARK    2  A    between atoms: C_2  and  C_3
REMARK    3  A    between atoms: C_7  and  O_8
REMARK    4  A    between atoms: O_8  and  C_9
REMARK    5  A    between atoms: C_10  and  C_11
REMARK    6  A    between atoms: C_15  and  C_16
REMARK                            x       y       z     vdW  Elec       q    Type
REMARK                         _______ _______ _______ _____ _____    ______ ____
ROOT
ATOM      1  C   UNL     1      47.110   4.771  13.953  0.00  0.00    +0.000 C 
ATOM      2  C   UNL     1      45.863   5.150  13.643  0.00  0.00    +0.000 C 
ENDROOT
BRANCH   2   3
ATOM      3  C   UNL     1      45.060   4.527  12.578  0.00  0.00    +0.000 A 
ATOM      4  C   UNL     1      43.938   3.733  12.842  0.00  0.00    +0.000 A 
ATOM      5  C   UNL     1      43.253   3.157  11.781  0.00  0.00    +0.000 A 
ATOM      6  N   UNL     1      43.593   3.322  10.486  0.00  0.00    +0.000 NA
ATOM      7  C   UNL     1      44.672   4.118  10.247  0.00  0.00    +0.000 A 
ATOM      8  C   UNL     1      45.419   4.738  11.244  0.00  0.00    +0.000 A 
BRANCH   7   9
ATOM      9  C   UNL     1      45.060   4.301   8.813  0.00  0.00    +0.000 C 
ATOM     10  N   UNL     1      44.377   3.523   7.915  0.00  0.00    +0.000 N 
ATOM     11  O   UNL     1      45.927   5.088   8.455  0.00  0.00    +0.000 OA
ATOM     12  H   UNL     1      43.671   2.877   8.247  0.00  0.00    +0.000 HD
ATOM     13  H   UNL     1      44.594   3.588   6.933  0.00  0.00    +0.000 HD
ENDBRANCH   7   9
ENDBRANCH   2   3
BRANCH   1  14
ATOM     14  O   UNL     1      47.873   5.425  14.897  0.00  0.00    +0.000 OA
BRANCH  14  19
ATOM     15  C   UNL     1      49.225   4.795  18.252  0.00  0.00    +0.000 A 
ATOM     16  C   UNL     1      48.545   3.615  18.593  0.00  0.00    +0.000 A 
ATOM     17  C   UNL     1      47.662   3.015  17.696  0.00  0.00    +0.000 A 
ATOM     18  C   UNL     1      47.433   3.598  16.451  0.00  0.00    +0.000 A 
ATOM     19  C   UNL     1      48.061   4.800  16.114  0.00  0.00    +0.000 A 
ATOM     20  C   UNL     1      48.972   5.384  17.001  0.00  0.00    +0.000 A 
BRANCH  15  21
ATOM     21  C   UNL     1      50.185   5.421  19.233  0.00  0.00    +0.000 C 
BRANCH  21  22
ATOM     22  N   UNL     1      50.963   4.414  19.948  0.00  0.00    +0.000 NA
ATOM     23  H   UNL     1      51.384   4.837  20.773  0.00  0.00    +0.000 HD
ATOM     24  H   UNL     1      51.733   4.111  19.353  0.00  0.00    +0.000 HD
ENDBRANCH  21  22
ENDBRANCH  15  21
ENDBRANCH  14  19
ENDBRANCH   1  14
TORSDOF 6
ENDMDL
MODEL 7
REMARK VINA RESULT:    -6.223      2.046      2.508
REMARK INTER + INTRA:          -8.626
REMARK INTER:                  -8.193
REMARK INTRA:                  -0.433
REMARK UNBOUND:                -0.402
REMARK  Name = 
REMARK  6 active torsions:
REMARK  status: ('A' for Active; 'I' for Inactive)
REMARK    1  A    between atoms: N_1  and  C_2
REMARK    2  A    between atoms: C_2  and  C_3
REMARK    3  A    between atoms: C_7  and  O_8
REMARK    4  A    between atoms: O_8  and  C_9
REMARK    5  A    between atoms: C_10  and  C_11
REMARK    6  A    between atoms: C_15  and  C_16
REMARK                            x       y       z     vdW  Elec       q    Type
REMARK                         _______ _______ _______ _____ _____    ______ ____
ROOT
ATOM      1  C   UNL     1      45.892   6.273  11.846  0.00  0.00    +0.000 C 
ATOM      2  C   UNL     1      47.006   6.891  11.432  0.00  0.00    +0.000 C 
ENDROOT
BRANCH   2   3
ATOM      3  C   UNL     1      48.127   7.240  12.321  0.00  0.00    +0.000 A 
ATOM      4  C   UNL     1      49.223   7.998  11.894  0.00  0.00    +0.000 A 
ATOM      5  C   UNL     1      50.254   8.256  12.787  0.00  0.00    +0.000 A 
ATOM      6  N   UNL     1      50.267   7.831  14.067  0.00  0.00    +0.000 NA
ATOM      7  C   UNL     1      49.179   7.117  14.471  0.00  0.00    +0.000 A 
ATOM      8  C   UNL     1      48.100   6.809  13.649  0.00  0.00    +0.000 A 
BRANCH   7   9
ATOM      9  C   UNL     1      49.190   6.635  15.889  0.00  0.00    +0.000 C 
ATOM     10  N   UNL     1      48.271   7.224  16.717  0.00  0.00    +0.000 N 
ATOM     11  O   UNL     1      49.962   5.774  16.291  0.00  0.00    +0.000 OA
ATOM     12  H   UNL     1      47.653   7.938  16.352  0.00  0.00    +0.000 HD
ATOM     13  H   UNL     1      48.230   6.953  17.687  0.00  0.00    +0.000 HD
ENDBRANCH   7   9
ENDBRANCH   2   3
BRANCH   1  14
ATOM     14  O   UNL     1      44.820   6.033  11.012  0.00  0.00    +0.000 OA
BRANCH  14  19
ATOM     15  C   UNL     1      45.321   3.447   8.454  0.00  0.00    +0.000 A 
ATOM     16  C   UNL     1      44.656   2.361   9.043  0.00  0.00    +0.000 A 
ATOM     17  C   UNL     1      44.017   2.498  10.275  0.00  0.00    +0.000 A 
ATOM     18  C   UNL     1      44.050   3.720  10.944  0.00  0.00    +0.000 A 
ATOM     19  C   UNL     1      44.751   4.798  10.397  0.00  0.00    +0.000 A 
ATOM     20  C   UNL     1      45.364   4.670   9.146  0.00  0.00    +0.000 A 
BRANCH  15  21
ATOM     21  C   UNL     1      45.996   3.280   7.116  0.00  0.00    +0.000 C 
BRANCH  21  22
ATOM     22  N   UNL     1      46.999   4.315   6.881  0.00  0.00    +0.000 NA
ATOM     23  H   UNL     1      47.568   4.426   7.717  0.00  0.00    +0.000 HD
ATOM     24  H   UNL     1      46.523   5.204   6.734  0.00  0.00    +0.000 HD
ENDBRANCH  21  22
ENDBRANCH  15  21
ENDBRANCH  14  19
ENDBRANCH   1  14
TORSDOF 6
ENDMDL
MODEL 8
REMARK VINA RESULT:    -6.110      2.773      8.011
REMARK INTER + INTRA:          -8.477
REMARK INTER:                  -8.048
REMARK INTRA:                  -0.429
REMARK UNBOUND:                -0.402
REMARK  Name = 
REMARK  6 active torsions:
REMARK  status: ('A' for Active; 'I' for Inactive)
REMARK    1  A    between atoms: N_1  and  C_2
REMARK    2  A    between atoms: C_2  and  C_3
REMARK    3  A    between atoms: C_7  and  O_8
REMARK    4  A    between atoms: O_8  and  C_9
REMARK    5  A    between atoms: C_10  and  C_11
REMARK    6  A    between atoms: C_15  and  C_16
REMARK                            x       y       z     vdW  Elec       q    Type
REMARK                         _______ _______ _______ _____ _____    ______ ____
ROOT
ATOM      1  C   UNL     1      47.147   6.088  13.936  0.00  0.00    +0.000 C 
ATOM      2  C   UNL     1      46.339   6.639  13.020  0.00  0.00    +0.000 C 
ENDROOT
BRANCH   2   3
ATOM      3  C   UNL     1      45.299   5.894  12.292  0.00  0.00    +0.000 A 
ATOM      4  C   UNL     1      44.035   5.635  12.833  0.00  0.00    +0.000 A 
ATOM      5  C   UNL     1      43.122   4.898  12.093  0.00  0.00    +0.000 A 
ATOM      6  N   UNL     1      43.368   4.413  10.858  0.00  0.00    +0.000 NA
ATOM      7  C   UNL     1      44.595   4.697  10.338  0.00  0.00    +0.000 A 
ATOM      8  C   UNL     1      45.573   5.429  11.004  0.00  0.00    +0.000 A 
BRANCH   7   9
ATOM      9  C   UNL     1      44.878   4.157   8.971  0.00  0.00    +0.000 C 
ATOM     10  N   UNL     1      44.276   2.963   8.673  0.00  0.00    +0.000 N 
ATOM     11  O   UNL     1      45.598   4.735   8.165  0.00  0.00    +0.000 OA
ATOM     12  H   UNL     1      43.693   2.510   9.365  0.00  0.00    +0.000 HD
ATOM     13  H   UNL     1      44.432   2.538   7.772  0.00  0.00    +0.000 HD
ENDBRANCH   7   9
ENDBRANCH   2   3
BRANCH   1  14
ATOM     14  O   UNL     1      48.170   6.786  14.543  0.00  0.00    +0.000 OA
BRANCH  14  19
ATOM     15  C   UNL     1      48.688   4.511  17.378  0.00  0.00    +0.000 A 
ATOM     16  C   UNL     1      49.945   4.940  17.833  0.00  0.00    +0.000 A 
ATOM     17  C   UNL     1      50.603   6.004  17.217  0.00  0.00    +0.000 A 
ATOM     18  C   UNL     1      50.022   6.641  16.123  0.00  0.00    +0.000 A 
ATOM     19  C   UNL     1      48.796   6.196  15.623  0.00  0.00    +0.000 A 
ATOM     20  C   UNL     1      48.120   5.151  16.262  0.00  0.00    +0.000 A 
BRANCH  15  21
ATOM     21  C   UNL     1      47.988   3.367  18.066  0.00  0.00    +0.000 C 
BRANCH  21  22
ATOM     22  N   UNL     1      46.667   3.118  17.497  0.00  0.00    +0.000 NA
ATOM     23  H   UNL     1      46.756   2.483  16.707  0.00  0.00    +0.000 HD
ATOM     24  H   UNL     1      46.300   3.994  17.125  0.00  0.00    +0.000 HD
ENDBRANCH  21  22
ENDBRANCH  15  21
ENDBRANCH  14  19
ENDBRANCH   1  14
TORSDOF 6
ENDMDL
MODEL 9
REMARK VINA RESULT:    -6.015      4.579      7.016
REMARK INTER + INTRA:          -8.351
REMARK INTER:                  -7.826
REMARK INTRA:                  -0.526
REMARK UNBOUND:                -0.402
REMARK  Name = 
REMARK  6 active torsions:
REMARK  status: ('A' for Active; 'I' for Inactive)
REMARK    1  A    between atoms: N_1  and  C_2
REMARK    2  A    between atoms: C_2  and  C_3
REMARK    3  A    between atoms: C_7  and  O_8
REMARK    4  A    between atoms: O_8  and  C_9
REMARK    5  A    between atoms: C_10  and  C_11
REMARK    6  A    between atoms: C_15  and  C_16
REMARK                            x       y       z     vdW  Elec       q    Type
REMARK                         _______ _______ _______ _____ _____    ______ ____
ROOT
ATOM      1  C   UNL     1      45.989   8.464  12.647  0.00  0.00    +0.000 C 
ATOM      2  C   UNL     1      46.659   7.436  12.110  0.00  0.00    +0.000 C 
ENDROOT
BRANCH   2   3
ATOM      3  C   UNL     1      46.373   6.024  12.414  0.00  0.00    +0.000 A 
ATOM      4  C   UNL     1      47.036   5.319  13.424  0.00  0.00    +0.000 A 
ATOM      5  C   UNL     1      46.729   3.980  13.626  0.00  0.00    +0.000 A 
ATOM      6  N   UNL     1      45.809   3.302  12.910  0.00  0.00    +0.000 NA
ATOM      7  C   UNL     1      45.155   4.012  11.949  0.00  0.00    +0.000 A 
ATOM      8  C   UNL     1      45.395   5.355  11.675  0.00  0.00    +0.000 A 
BRANCH   7   9
ATOM      9  C   UNL     1      44.137   3.264  11.146  0.00  0.00    +0.000 C 
ATOM     10  N   UNL     1      44.644   2.382  10.228  0.00  0.00    +0.000 N 
ATOM     11  O   UNL     1      42.931   3.423  11.291  0.00  0.00    +0.000 OA
ATOM     12  H   UNL     1      45.646   2.282  10.130  0.00  0.00    +0.000 HD
ATOM     13  H   UNL     1      44.014   1.851   9.647  0.00  0.00    +0.000 HD
ENDBRANCH   7   9
ENDBRANCH   2   3
BRANCH   1  14
ATOM     14  O   UNL     1      46.331   9.780  12.413  0.00  0.00    +0.000 OA
BRANCH  14  19
ATOM     15  C   UNL     1      43.332  10.815  10.566  0.00  0.00    +0.000 A 
ATOM     16  C   UNL     1      43.849  11.865   9.791  0.00  0.00    +0.000 A 
ATOM     17  C   UNL     1      45.199  12.207   9.861  0.00  0.00    +0.000 A 
ATOM     18  C   UNL     1      46.048  11.515  10.723  0.00  0.00    +0.000 A 
ATOM     19  C   UNL     1      45.541  10.501  11.540  0.00  0.00    +0.000 A 
ATOM     20  C   UNL     1      44.194  10.136  11.445  0.00  0.00    +0.000 A 
BRANCH  15  21
ATOM     21  C   UNL     1      41.871  10.454  10.465  0.00  0.00    +0.000 C 
BRANCH  21  22
ATOM     22  N   UNL     1      41.575   9.198  11.147  0.00  0.00    +0.000 NA
ATOM     23  H   UNL     1      42.181   8.466  10.783  0.00  0.00    +0.000 HD
ATOM     24  H   UNL     1      40.620   8.921  10.924  0.00  0.00    +0.000 HD
ENDBRANCH  21  22
ENDBRANCH  15  21
ENDBRANCH  14  19
ENDBRANCH   1  14
TORSDOF 6
ENDMDL
