MODEL 1
REMARK VINA RESULT:    -8.420      0.000      0.000
REMARK INTER + INTRA:         -12.296
REMARK INTER:                 -11.373
REMARK INTRA:                  -0.922
REMARK UNBOUND:                -0.922
REMARK  Name = 
REMARK  6 active torsions:
REMARK  status: ('A' for Active; 'I' for Inactive)
REMARK    1  A    between atoms: C_2  and  C_4
REMARK    2  A    between atoms: C_7  and  O_8
REMARK    3  A    between atoms: O_8  and  C_9
REMARK    4  A    between atoms: C_9  and  C_10
REMARK    5  A    between atoms: C_10  and  C_11
REMARK    6  A    between atoms: C_15  and  C_16
REMARK                            x       y       z     vdW  Elec       q    Type
REMARK                         _______ _______ _______ _____ _____    ______ ____
ROOT
ATOM      1  C   UNL     1      45.501   6.911  12.730  0.00  0.00    +0.000 C 
ENDROOT
BRANCH   1   2
ATOM      2  O   UNL     1      46.756   6.243  12.556  0.00  0.00    +0.000 OA
BRANCH   2   6
ATOM      3  C   UNL     1      47.753   3.702  15.555  0.00  0.00    +0.000 A 
ATOM      4  C   UNL     1      47.911   5.071  15.727  0.00  0.00    +0.000 A 
ATOM      5  N   UNL     1      47.595   5.972  14.758  0.00  0.00    +0.000 NA
ATOM      6  C   UNL     1      47.113   5.438  13.614  0.00  0.00    +0.000 A 
ATOM      7  C   UNL     1      46.952   4.065  13.444  0.00  0.00    +0.000 A 
ATOM      8  N   UNL     1      47.267   3.158  14.402  0.00  0.00    +0.000 NA
BRANCH   3  10
ATOM      9  N   UNL     1      47.336   2.814  17.768  0.00  0.00    +0.000 N 
ATOM     10  C   UNL     1      48.122   2.764  16.649  0.00  0.00    +0.000 C 
ATOM     11  O   UNL     1      49.070   1.989  16.556  0.00  0.00    +0.000 OA
ATOM     12  H   UNL     1      47.532   2.197  18.545  0.00  0.00    +0.000 HD
ATOM     13  H   UNL     1      46.554   3.456  17.810  0.00  0.00    +0.000 HD
ENDBRANCH   3  10
ENDBRANCH   2   6
ENDBRANCH   1   2
BRANCH   1  14
ATOM     14  C   UNL     1      44.710   6.736  11.433  0.00  0.00    +0.000 C 
BRANCH  14  15
ATOM     15  C   UNL     1      44.492   5.288  11.082  0.00  0.00    +0.000 A 
ATOM     16  C   UNL     1      43.517   4.531  11.733  0.00  0.00    +0.000 A 
ATOM     17  C   UNL     1      43.309   3.202  11.371  0.00  0.00    +0.000 A 
ATOM     18  C   UNL     1      44.055   2.632  10.336  0.00  0.00    +0.000 A 
ATOM     19  C   UNL     1      45.010   3.377   9.624  0.00  0.00    +0.000 A 
ATOM     20  C   UNL     1      45.232   4.703  10.041  0.00  0.00    +0.000 A 
BRANCH  19  21
ATOM     21  C   UNL     1      45.683   2.840   8.416  0.00  0.00    +0.000 A 
ATOM     22  C   UNL     1      45.977   3.681   7.324  0.00  0.00    +0.000 A 
ATOM     23  C   UNL     1      46.721   3.230   6.232  0.00  0.00    +0.000 A 
ATOM     24  C   UNL     1      47.195   1.924   6.205  0.00  0.00    +0.000 A 
ATOM     25  C   UNL     1      46.898   1.061   7.256  0.00  0.00    +0.000 A 
ATOM     26  C   UNL     1      46.140   1.512   8.341  0.00  0.00    +0.000 A 
ENDBRANCH  19  21
ENDBRANCH  14  15
ENDBRANCH   1  14
TORSDOF 6
ENDMDL
MODEL 2
REMARK VINA RESULT:    -8.259      3.676      6.951
REMARK INTER + INTRA:         -12.078
REMARK INTER:                 -11.080
REMARK INTRA:                  -0.998
REMARK UNBOUND:                -0.922
REMARK  Name = 
REMARK  6 active torsions:
REMARK  status: ('A' for Active; 'I' for Inactive)
REMARK    1  A    between atoms: C_2  and  C_4
REMARK    2  A    between atoms: C_7  and  O_8
REMARK    3  A    between atoms: O_8  and  C_9
REMARK    4  A    between atoms: C_9  and  C_10
REMARK    5  A    between atoms: C_10  and  C_11
REMARK    6  A    between atoms: C_15  and  C_16
REMARK                            x       y       z     vdW  Elec       q    Type
REMARK                         _______ _______ _______ _____ _____    ______ ____
ROOT
ATOM      1  C   UNL     1      43.283   3.935  11.213  0.00  0.00    +0.000 C 
ENDROOT
BRANCH   1   2
ATOM      2  O   UNL     1      43.616   4.611   9.996  0.00  0.00    +0.000 OA
BRANCH   2   6
ATOM      3  C   UNL     1      46.368   2.531   7.863  0.00  0.00    +0.000 A 
ATOM      4  C   UNL     1      46.268   3.908   7.708  0.00  0.00    +0.000 A 
ATOM      5  N   UNL     1      45.365   4.659   8.393  0.00  0.00    +0.000 NA
ATOM      6  C   UNL     1      44.571   3.968   9.242  0.00  0.00    +0.000 A 
ATOM      7  C   UNL     1      44.675   2.588   9.399  0.00  0.00    +0.000 A 
ATOM      8  N   UNL     1      45.568   1.828   8.718  0.00  0.00    +0.000 NA
BRANCH   3  10
ATOM      9  N   UNL     1      48.375   2.496   6.511  0.00  0.00    +0.000 N 
ATOM     10  C   UNL     1      47.371   1.761   7.079  0.00  0.00    +0.000 C 
ATOM     11  O   UNL     1      47.307   0.542   6.952  0.00  0.00    +0.000 OA
ATOM     12  H   UNL     1      49.092   2.031   5.971  0.00  0.00    +0.000 HD
ATOM     13  H   UNL     1      48.406   3.500   6.645  0.00  0.00    +0.000 HD
ENDBRANCH   3  10
ENDBRANCH   2   6
ENDBRANCH   1   2
BRANCH   1  14
ATOM     14  C   UNL     1      43.388   4.960  12.345  0.00  0.00    +0.000 C 
BRANCH  14  15
ATOM     15  C   UNL     1      44.814   5.247  12.731  0.00  0.00    +0.000 A 
ATOM     16  C   UNL     1      45.604   4.270  13.340  0.00  0.00    +0.000 A 
ATOM     17  C   UNL     1      46.931   4.546  13.659  0.00  0.00    +0.000 A 
ATOM     18  C   UNL     1      47.485   5.789  13.344  0.00  0.00    +0.000 A 
ATOM     19  C   UNL     1      46.737   6.780  12.685  0.00  0.00    +0.000 A 
ATOM     20  C   UNL     1      45.386   6.491  12.416  0.00  0.00    +0.000 A 
BRANCH  19  21
ATOM     21  C   UNL     1      47.356   8.034  12.191  0.00  0.00    +0.000 A 
ATOM     22  C   UNL     1      46.627   9.239  12.179  0.00  0.00    +0.000 A 
ATOM     23  C   UNL     1      47.226  10.454  11.838  0.00  0.00    +0.000 A 
ATOM     24  C   UNL     1      48.575  10.495  11.503  0.00  0.00    +0.000 A 
ATOM     25  C   UNL     1      49.315   9.316  11.479  0.00  0.00    +0.000 A 
ATOM     26  C   UNL     1      48.708   8.100  11.807  0.00  0.00    +0.000 A 
ENDBRANCH  19  21
ENDBRANCH  14  15
ENDBRANCH   1  14
TORSDOF 6
ENDMDL
MODEL 3
REMARK VINA RESULT:    -7.973      3.461      7.707
REMARK INTER + INTRA:         -11.692
REMARK INTER:                 -10.788
REMARK INTRA:                  -0.904
REMARK UNBOUND:                -0.922
REMARK  Name = 
REMARK  6 active torsions:
REMARK  status: ('A' for Active; 'I' for Inactive)
REMARK    1  A    between atoms: C_2  and  C_4
REMARK    2  A    between atoms: C_7  and  O_8
REMARK    3  A    between atoms: O_8  and  C_9
REMARK    4  A    between atoms: C_9  and  C_10
REMARK    5  A    between atoms: C_10  and  C_11
REMARK    6  A    between atoms: C_15  and  C_16
REMARK                            x       y       z     vdW  Elec       q    Type
REMARK                         _______ _______ _______ _____ _____    ______ ____
ROOT
ATOM      1  C   UNL     1      43.547   4.705  10.883  0.00  0.00    +0.000 C 
ENDROOT
BRANCH   1   2
ATOM      2  O   UNL     1      43.433   3.406  10.292  0.00  0.00    +0.000 OA
BRANCH   2   6
ATOM      3  C   UNL     1      46.393   2.740   7.600  0.00  0.00    +0.000 A 
ATOM      4  C   UNL     1      45.893   1.685   8.354  0.00  0.00    +0.000 A 
ATOM      5  N   UNL     1      44.902   1.847   9.272  0.00  0.00    +0.000 NA
ATOM      6  C   UNL     1      44.436   3.110   9.397  0.00  0.00    +0.000 A 
ATOM      7  C   UNL     1      44.937   4.165   8.638  0.00  0.00    +0.000 A 
ATOM      8  N   UNL     1      45.926   4.016   7.723  0.00  0.00    +0.000 NA
BRANCH   3  10
ATOM      9  N   UNL     1      47.400   3.217   5.451  0.00  0.00    +0.000 N 
ATOM     10  C   UNL     1      47.482   2.503   6.615  0.00  0.00    +0.000 C 
ATOM     11  O   UNL     1      48.403   1.719   6.832  0.00  0.00    +0.000 OA
ATOM     12  H   UNL     1      48.114   3.106   4.744  0.00  0.00    +0.000 HD
ATOM     13  H   UNL     1      46.635   3.865   5.308  0.00  0.00    +0.000 HD
ENDBRANCH   3  10
ENDBRANCH   2   6
ENDBRANCH   1   2
BRANCH   1  14
ATOM     14  C   UNL     1      43.920   4.503  12.353  0.00  0.00    +0.000 C 
BRANCH  14  15
ATOM     15  C   UNL     1      45.286   5.045  12.680  0.00  0.00    +0.000 A 
ATOM     16  C   UNL     1      45.892   6.004  11.866  0.00  0.00    +0.000 A 
ATOM     17  C   UNL     1      47.142   6.516  12.204  0.00  0.00    +0.000 A 
ATOM     18  C   UNL     1      47.780   6.096  13.373  0.00  0.00    +0.000 A 
ATOM     19  C   UNL     1      47.180   5.170  14.244  0.00  0.00    +0.000 A 
ATOM     20  C   UNL     1      45.938   4.634  13.854  0.00  0.00    +0.000 A 
BRANCH  19  21
ATOM     21  C   UNL     1      47.764   4.845  15.568  0.00  0.00    +0.000 A 
ATOM     22  C   UNL     1      48.600   5.766  16.230  0.00  0.00    +0.000 A 
ATOM     23  C   UNL     1      49.057   5.537  17.530  0.00  0.00    +0.000 A 
ATOM     24  C   UNL     1      48.686   4.379  18.204  0.00  0.00    +0.000 A 
ATOM     25  C   UNL     1      47.883   3.438  17.567  0.00  0.00    +0.000 A 
ATOM     26  C   UNL     1      47.439   3.664  16.260  0.00  0.00    +0.000 A 
ENDBRANCH  19  21
ENDBRANCH  14  15
ENDBRANCH   1  14
TORSDOF 6
ENDMDL
MODEL 4
REMARK VINA RESULT:    -7.380      4.091      7.672
REMARK INTER + INTRA:         -10.891
REMARK INTER:                 -10.157
REMARK INTRA:                  -0.735
REMARK UNBOUND:                -0.922
REMARK  Name = 
REMARK  6 active torsions:
REMARK  status: ('A' for Active; 'I' for Inactive)
REMARK    1  A    between atoms: C_2  and  C_4
REMARK    2  A    between atoms: C_7  and  O_8
REMARK    3  A    between atoms: O_8  and  C_9
REMARK    4  A    between atoms: C_9  and  C_10
REMARK    5  A    between atoms: C_10  and  C_11
REMARK    6  A    between atoms: C_15  and  C_16
REMARK                            x       y       z     vdW  Elec       q    Type
REMARK                         _______ _______ _______ _____ _____    ______ ____
ROOT
ATOM      1  C   UNL     1      43.736   4.907  10.725  0.00  0.00    +0.000 C 
ENDROOT
BRANCH   1   2
ATOM      2  O   UNL     1      43.672   3.593  10.159  0.00  0.00    +0.000 OA
BRANCH   2   6
ATOM      3  C   UNL     1      46.560   2.633   7.478  0.00  0.00    +0.000 A 
ATOM      4  C   UNL     1      46.105   3.942   7.566  0.00  0.00    +0.000 A 
ATOM      5  N   UNL     1      45.139   4.325   8.444  0.00  0.00    +0.000 NA
ATOM      6  C   UNL     1      44.654   3.337   9.229  0.00  0.00    +0.000 A 
ATOM      7  C   UNL     1      45.113   2.025   9.141  0.00  0.00    +0.000 A 
ATOM      8  N   UNL     1      46.073   1.632   8.268  0.00  0.00    +0.000 NA
BRANCH   3  10
ATOM      9  N   UNL     1      47.695   3.073   5.386  0.00  0.00    +0.000 N 
ATOM     10  C   UNL     1      47.615   2.273   6.493  0.00  0.00    +0.000 C 
ATOM     11  O   UNL     1      48.371   1.320   6.661  0.00  0.00    +0.000 OA
ATOM     12  H   UNL     1      48.395   2.885   4.683  0.00  0.00    +0.000 HD
ATOM     13  H   UNL     1      47.064   3.859   5.283  0.00  0.00    +0.000 HD
ENDBRANCH   3  10
ENDBRANCH   2   6
ENDBRANCH   1   2
BRANCH   1  14
ATOM     14  C   UNL     1      44.917   4.925  11.697  0.00  0.00    +0.000 C 
BRANCH  14  15
ATOM     15  C   UNL     1      45.467   6.311  11.909  0.00  0.00    +0.000 A 
ATOM     16  C   UNL     1      46.788   6.505  12.316  0.00  0.00    +0.000 A 
ATOM     17  C   UNL     1      47.287   7.795  12.474  0.00  0.00    +0.000 A 
ATOM     18  C   UNL     1      46.477   8.900  12.198  0.00  0.00    +0.000 A 
ATOM     19  C   UNL     1      45.158   8.745  11.738  0.00  0.00    +0.000 A 
ATOM     20  C   UNL     1      44.665   7.430  11.632  0.00  0.00    +0.000 A 
BRANCH  19  21
ATOM     21  C   UNL     1      44.346   9.898  11.278  0.00  0.00    +0.000 A 
ATOM     22  C   UNL     1      44.827  11.214  11.412  0.00  0.00    +0.000 A 
ATOM     23  C   UNL     1      44.140  12.305  10.873  0.00  0.00    +0.000 A 
ATOM     24  C   UNL     1      42.951  12.104  10.181  0.00  0.00    +0.000 A 
ATOM     25  C   UNL     1      42.436  10.817  10.055  0.00  0.00    +0.000 A 
ATOM     26  C   UNL     1      43.119   9.730  10.609  0.00  0.00    +0.000 A 
ENDBRANCH  19  21
ENDBRANCH  14  15
ENDBRANCH   1  14
TORSDOF 6
ENDMDL
MODEL 5
REMARK VINA RESULT:    -7.357      1.919      2.684
REMARK INTER + INTRA:         -10.860
REMARK INTER:                 -10.620
REMARK INTRA:                  -0.240
REMARK UNBOUND:                -0.922
REMARK  Name = 
REMARK  6 active torsions:
REMARK  status: ('A' for Active; 'I' for Inactive)
REMARK    1  A    between atoms: C_2  and  C_4
REMARK    2  A    between atoms: C_7  and  O_8
REMARK    3  A    between atoms: O_8  and  C_9
REMARK    4  A    between atoms: C_9  and  C_10
REMARK    5  A    between atoms: C_10  and  C_11
REMARK    6  A    between atoms: C_15  and  C_16
REMARK                            x       y       z     vdW  Elec       q    Type
REMARK                         _______ _______ _______ _____ _____    ______ ____
ROOT
ATOM      1  C   UNL     1      47.063   4.299  13.814  0.00  0.00    +0.000 C 
ENDROOT
BRANCH   1   2
ATOM      2  O   UNL     1      47.321   3.126  14.594  0.00  0.00    +0.000 OA
BRANCH   2   6
ATOM      3  C   UNL     1      48.761   4.047  18.273  0.00  0.00    +0.000 A 
ATOM      4  C   UNL     1      49.353   3.032  17.531  0.00  0.00    +0.000 A 
ATOM      5  N   UNL     1      48.914   2.677  16.294  0.00  0.00    +0.000 NA
ATOM      6  C   UNL     1      47.860   3.387  15.834  0.00  0.00    +0.000 A 
ATOM      7  C   UNL     1      47.270   4.407  16.577  0.00  0.00    +0.000 A 
ATOM      8  N   UNL     1      47.696   4.767  17.813  0.00  0.00    +0.000 NA
BRANCH   3  10
ATOM      9  N   UNL     1      48.516   3.968  20.679  0.00  0.00    +0.000 N 
ATOM     10  C   UNL     1      49.281   4.385  19.624  0.00  0.00    +0.000 C 
ATOM     11  O   UNL     1      50.333   4.997  19.788  0.00  0.00    +0.000 OA
ATOM     12  H   UNL     1      48.818   4.162  21.624  0.00  0.00    +0.000 HD
ATOM     13  H   UNL     1      47.658   3.456  20.512  0.00  0.00    +0.000 HD
ENDBRANCH   3  10
ENDBRANCH   2   6
ENDBRANCH   1   2
BRANCH   1  14
ATOM     14  C   UNL     1      45.588   4.657  14.006  0.00  0.00    +0.000 C 
BRANCH  14  15
ATOM     15  C   UNL     1      44.824   4.663  12.709  0.00  0.00    +0.000 A 
ATOM     16  C   UNL     1      43.649   5.406  12.571  0.00  0.00    +0.000 A 
ATOM     17  C   UNL     1      42.975   5.424  11.353  0.00  0.00    +0.000 A 
ATOM     18  C   UNL     1      43.487   4.725  10.257  0.00  0.00    +0.000 A 
ATOM     19  C   UNL     1      44.692   4.008  10.342  0.00  0.00    +0.000 A 
ATOM     20  C   UNL     1      45.328   3.968  11.597  0.00  0.00    +0.000 A 
BRANCH  19  21
ATOM     21  C   UNL     1      45.335   3.406   9.148  0.00  0.00    +0.000 A 
ATOM     22  C   UNL     1      45.876   4.223   8.136  0.00  0.00    +0.000 A 
ATOM     23  C   UNL     1      46.597   3.685   7.067  0.00  0.00    +0.000 A 
ATOM     24  C   UNL     1      46.797   2.312   6.985  0.00  0.00    +0.000 A 
ATOM     25  C   UNL     1      46.251   1.476   7.956  0.00  0.00    +0.000 A 
ATOM     26  C   UNL     1      45.518   2.018   9.016  0.00  0.00    +0.000 A 
ENDBRANCH  19  21
ENDBRANCH  14  15
ENDBRANCH   1  14
TORSDOF 6
ENDMDL
MODEL 6
REMARK VINA RESULT:    -7.099      1.910      3.565
REMARK INTER + INTRA:         -10.512
REMARK INTER:                  -9.526
REMARK INTRA:                  -0.986
REMARK UNBOUND:                -0.922
REMARK  Name = 
REMARK  6 active torsions:
REMARK  status: ('A' for Active; 'I' for Inactive)
REMARK    1  A    between atoms: C_2  and  C_4
REMARK    2  A    between atoms: C_7  and  O_8
REMARK    3  A    between atoms: O_8  and  C_9
REMARK    4  A    between atoms: C_9  and  C_10
REMARK    5  A    between atoms: C_10  and  C_11
REMARK    6  A    between atoms: C_15  and  C_16
REMARK                            x       y       z     vdW  Elec       q    Type
REMARK                         _______ _______ _______ _____ _____    ______ ____
ROOT
ATOM      1  C   UNL     1      49.535   7.275  13.165  0.00  0.00    +0.000 C 
ENDROOT
BRANCH   1   2
ATOM      2  O   UNL     1      49.213   7.610  14.519  0.00  0.00    +0.000 OA
BRANCH   2   6
ATOM      3  C   UNL     1      48.024   4.545  16.894  0.00  0.00    +0.000 A 
ATOM      4  C   UNL     1      47.556   4.632  15.588  0.00  0.00    +0.000 A 
ATOM      5  N   UNL     1      47.917   5.636  14.745  0.00  0.00    +0.000 NA
ATOM      6  C   UNL     1      48.770   6.545  15.269  0.00  0.00    +0.000 A 
ATOM      7  C   UNL     1      49.240   6.455  16.577  0.00  0.00    +0.000 A 
ATOM      8  N   UNL     1      48.884   5.461  17.427  0.00  0.00    +0.000 NA
BRANCH   3  10
ATOM      9  N   UNL     1      48.339   3.221  18.895  0.00  0.00    +0.000 N 
ATOM     10  C   UNL     1      47.587   3.427  17.771  0.00  0.00    +0.000 C 
ATOM     11  O   UNL     1      46.608   2.732  17.510  0.00  0.00    +0.000 OA
ATOM     12  H   UNL     1      48.091   2.480  19.536  0.00  0.00    +0.000 HD
ATOM     13  H   UNL     1      49.134   3.819  19.089  0.00  0.00    +0.000 HD
ENDBRANCH   3  10
ENDBRANCH   2   6
ENDBRANCH   1   2
BRANCH   1  14
ATOM     14  C   UNL     1      48.789   8.261  12.263  0.00  0.00    +0.000 C 
BRANCH  14  15
ATOM     15  C   UNL     1      47.349   7.875  12.056  0.00  0.00    +0.000 A 
ATOM     16  C   UNL     1      46.315   8.743  12.413  0.00  0.00    +0.000 A 
ATOM     17  C   UNL     1      44.990   8.381  12.183  0.00  0.00    +0.000 A 
ATOM     18  C   UNL     1      44.692   7.163  11.567  0.00  0.00    +0.000 A 
ATOM     19  C   UNL     1      45.707   6.285  11.148  0.00  0.00    +0.000 A 
ATOM     20  C   UNL     1      47.035   6.656  11.435  0.00  0.00    +0.000 A 
BRANCH  19  21
ATOM     21  C   UNL     1      45.416   5.075  10.342  0.00  0.00    +0.000 A 
ATOM     22  C   UNL     1      44.693   4.000  10.895  0.00  0.00    +0.000 A 
ATOM     23  C   UNL     1      44.297   2.907  10.121  0.00  0.00    +0.000 A 
ATOM     24  C   UNL     1      44.613   2.863   8.768  0.00  0.00    +0.000 A 
ATOM     25  C   UNL     1      45.350   3.897   8.198  0.00  0.00    +0.000 A 
ATOM     26  C   UNL     1      45.757   4.982   8.980  0.00  0.00    +0.000 A 
ENDBRANCH  19  21
ENDBRANCH  14  15
ENDBRANCH   1  14
TORSDOF 6
ENDMDL
MODEL 7
REMARK VINA RESULT:    -7.043      3.061      3.428
REMARK INTER + INTRA:         -10.435
REMARK INTER:                  -9.623
REMARK INTRA:                  -0.812
REMARK UNBOUND:                -0.922
REMARK  Name = 
REMARK  6 active torsions:
REMARK  status: ('A' for Active; 'I' for Inactive)
REMARK    1  A    between atoms: C_2  and  C_4
REMARK    2  A    between atoms: C_7  and  O_8
REMARK    3  A    between atoms: O_8  and  C_9
REMARK    4  A    between atoms: C_9  and  C_10
REMARK    5  A    between atoms: C_10  and  C_11
REMARK    6  A    between atoms: C_15  and  C_16
REMARK                            x       y       z     vdW  Elec       q    Type
REMARK                         _______ _______ _______ _____ _____    ______ ____
ROOT
ATOM      1  C   UNL     1      45.074   7.306  11.441  0.00  0.00    +0.000 C 
ENDROOT
BRANCH   1   2
ATOM      2  O   UNL     1      45.483   7.263  12.813  0.00  0.00    +0.000 OA
BRANCH   2   6
ATOM      3  C   UNL     1      49.419   8.126  13.274  0.00  0.00    +0.000 A 
ATOM      4  C   UNL     1      48.462   8.889  13.930  0.00  0.00    +0.000 A 
ATOM      5  N   UNL     1      47.128   8.650  13.814  0.00  0.00    +0.000 NA
ATOM      6  C   UNL     1      46.800   7.610  13.014  0.00  0.00    +0.000 A 
ATOM      7  C   UNL     1      47.761   6.844  12.359  0.00  0.00    +0.000 A 
ATOM      8  N   UNL     1      49.093   7.076  12.465  0.00  0.00    +0.000 NA
BRANCH   3  10
ATOM      9  N   UNL     1      51.708   7.846  12.537  0.00  0.00    +0.000 N 
ATOM     10  C   UNL     1      50.864   8.441  13.435  0.00  0.00    +0.000 C 
ATOM     11  O   UNL     1      51.277   9.192  14.314  0.00  0.00    +0.000 OA
ATOM     12  H   UNL     1      52.701   8.025  12.589  0.00  0.00    +0.000 HD
ATOM     13  H   UNL     1      51.334   7.240  11.816  0.00  0.00    +0.000 HD
ENDBRANCH   3  10
ENDBRANCH   2   6
ENDBRANCH   1   2
BRANCH   1  14
ATOM     14  C   UNL     1      43.730   6.579  11.346  0.00  0.00    +0.000 C 
BRANCH  14  15
ATOM     15  C   UNL     1      43.890   5.102  11.106  0.00  0.00    +0.000 A 
ATOM     16  C   UNL     1      43.175   4.170  11.860  0.00  0.00    +0.000 A 
ATOM     17  C   UNL     1      43.313   2.809  11.600  0.00  0.00    +0.000 A 
ATOM     18  C   UNL     1      44.143   2.373  10.563  0.00  0.00    +0.000 A 
ATOM     19  C   UNL     1      44.839   3.283   9.750  0.00  0.00    +0.000 A 
ATOM     20  C   UNL     1      44.718   4.649  10.065  0.00  0.00    +0.000 A 
BRANCH  19  21
ATOM     21  C   UNL     1      45.584   2.847   8.543  0.00  0.00    +0.000 A 
ATOM     22  C   UNL     1      45.935   3.774   7.542  0.00  0.00    +0.000 A 
ATOM     23  C   UNL     1      46.744   3.414   6.461  0.00  0.00    +0.000 A 
ATOM     24  C   UNL     1      47.225   2.114   6.355  0.00  0.00    +0.000 A 
ATOM     25  C   UNL     1      46.872   1.168   7.314  0.00  0.00    +0.000 A 
ATOM     26  C   UNL     1      46.051   1.529   8.387  0.00  0.00    +0.000 A 
ENDBRANCH  19  21
ENDBRANCH  14  15
ENDBRANCH   1  14
TORSDOF 6
ENDMDL
MODEL 8
REMARK VINA RESULT:    -6.407      3.305      8.116
REMARK INTER + INTRA:          -9.577
REMARK INTER:                  -8.709
REMARK INTRA:                  -0.868
REMARK UNBOUND:                -0.922
REMARK  Name = 
REMARK  6 active torsions:
REMARK  status: ('A' for Active; 'I' for Inactive)
REMARK    1  A    between atoms: C_2  and  C_4
REMARK    2  A    between atoms: C_7  and  O_8
REMARK    3  A    between atoms: O_8  and  C_9
REMARK    4  A    between atoms: C_9  and  C_10
REMARK    5  A    between atoms: C_10  and  C_11
REMARK    6  A    between atoms: C_15  and  C_16
REMARK                            x       y       z     vdW  Elec       q    Type
REMARK                         _______ _______ _______ _____ _____    ______ ____
ROOT
ATOM      1  C   UNL     1      48.168   7.080  14.777  0.00  0.00    +0.000 C 
ENDROOT
BRANCH   1   2
ATOM      2  O   UNL     1      48.484   6.037  13.849  0.00  0.00    +0.000 OA
BRANCH   2   6
ATOM      3  C   UNL     1      45.263   4.113  12.306  0.00  0.00    +0.000 A 
ATOM      4  C   UNL     1      45.612   5.371  11.830  0.00  0.00    +0.000 A 
ATOM      5  N   UNL     1      46.679   6.065  12.308  0.00  0.00    +0.000 NA
ATOM      6  C   UNL     1      47.381   5.441  13.281  0.00  0.00    +0.000 A 
ATOM      7  C   UNL     1      47.032   4.178  13.755  0.00  0.00    +0.000 A 
ATOM      8  N   UNL     1      45.968   3.478  13.288  0.00  0.00    +0.000 NA
BRANCH   3  10
ATOM      9  N   UNL     1      43.696   2.271  12.412  0.00  0.00    +0.000 N 
ATOM     10  C   UNL     1      44.080   3.405  11.749  0.00  0.00    +0.000 C 
ATOM     11  O   UNL     1      43.479   3.812  10.758  0.00  0.00    +0.000 OA
ATOM     12  H   UNL     1      42.895   1.748  12.086  0.00  0.00    +0.000 HD
ATOM     13  H   UNL     1      44.205   1.968  13.233  0.00  0.00    +0.000 HD
ENDBRANCH   3  10
ENDBRANCH   2   6
ENDBRANCH   1   2
BRANCH   1  14
ATOM     14  C   UNL     1      49.188   6.998  15.915  0.00  0.00    +0.000 C 
BRANCH  14  15
ATOM     15  C   UNL     1      49.077   5.716  16.697  0.00  0.00    +0.000 A 
ATOM     16  C   UNL     1      47.831   5.211  17.074  0.00  0.00    +0.000 A 
ATOM     17  C   UNL     1      47.749   4.006  17.767  0.00  0.00    +0.000 A 
ATOM     18  C   UNL     1      48.909   3.285  18.062  0.00  0.00    +0.000 A 
ATOM     19  C   UNL     1      50.176   3.736  17.656  0.00  0.00    +0.000 A 
ATOM     20  C   UNL     1      50.234   4.979  16.997  0.00  0.00    +0.000 A 
BRANCH  19  21
ATOM     21  C   UNL     1      51.393   2.902  17.808  0.00  0.00    +0.000 A 
ATOM     22  C   UNL     1      51.386   1.545  17.431  0.00  0.00    +0.000 A 
ATOM     23  C   UNL     1      52.551   0.774  17.445  0.00  0.00    +0.000 A 
ATOM     24  C   UNL     1      53.756   1.344  17.837  0.00  0.00    +0.000 A 
ATOM     25  C   UNL     1      53.790   2.675  18.242  0.00  0.00    +0.000 A 
ATOM     26  C   UNL     1      52.619   3.440  18.240  0.00  0.00    +0.000 A 
ENDBRANCH  19  21
ENDBRANCH  14  15
ENDBRANCH   1  14
TORSDOF 6
ENDMDL
MODEL 9
REMARK VINA RESULT:    -6.244      2.680      4.105
REMARK INTER + INTRA:          -9.356
REMARK INTER:                  -8.699
REMARK INTRA:                  -0.657
REMARK UNBOUND:                -0.922
REMARK  Name = 
REMARK  6 active torsions:
REMARK  status: ('A' for Active; 'I' for Inactive)
REMARK    1  A    between atoms: C_2  and  C_4
REMARK    2  A    between atoms: C_7  and  O_8
REMARK    3  A    between atoms: O_8  and  C_9
REMARK    4  A    between atoms: C_9  and  C_10
REMARK    5  A    between atoms: C_10  and  C_11
REMARK    6  A    between atoms: C_15  and  C_16
REMARK                            x       y       z     vdW  Elec       q    Type
REMARK                         _______ _______ _______ _____ _____    ______ ____
ROOT
ATOM      1  C   UNL     1      48.754   7.635  14.608  0.00  0.00    +0.000 C 
ENDROOT
BRANCH   1   2
ATOM      2  O   UNL     1      49.636   6.579  15.004  0.00  0.00    +0.000 OA
BRANCH   2   6
ATOM      3  C   UNL     1      49.044   5.530  18.877  0.00  0.00    +0.000 A 
ATOM      4  C   UNL     1      49.453   4.574  17.955  0.00  0.00    +0.000 A 
ATOM      5  N   UNL     1      49.666   4.864  16.643  0.00  0.00    +0.000 NA
ATOM      6  C   UNL     1      49.455   6.155  16.300  0.00  0.00    +0.000 A 
ATOM      7  C   UNL     1      49.049   7.113  17.226  0.00  0.00    +0.000 A 
ATOM      8  N   UNL     1      48.829   6.834  18.535  0.00  0.00    +0.000 NA
BRANCH   3  10
ATOM      9  N   UNL     1      48.503   3.837  20.521  0.00  0.00    +0.000 N 
ATOM     10  C   UNL     1      48.820   5.150  20.297  0.00  0.00    +0.000 C 
ATOM     11  O   UNL     1      48.917   5.959  21.215  0.00  0.00    +0.000 OA
ATOM     12  H   UNL     1      48.345   3.515  21.465  0.00  0.00    +0.000 HD
ATOM     13  H   UNL     1      48.443   3.192  19.743  0.00  0.00    +0.000 HD
ENDBRANCH   3  10
ENDBRANCH   2   6
ENDBRANCH   1   2
BRANCH   1  14
ATOM     14  C   UNL     1      48.684   7.619  13.080  0.00  0.00    +0.000 C 
BRANCH  14  15
ATOM     15  C   UNL     1      47.271   7.516  12.570  0.00  0.00    +0.000 A 
ATOM     16  C   UNL     1      46.365   8.564  12.747  0.00  0.00    +0.000 A 
ATOM     17  C   UNL     1      45.073   8.462  12.239  0.00  0.00    +0.000 A 
ATOM     18  C   UNL     1      44.687   7.325  11.524  0.00  0.00    +0.000 A 
ATOM     19  C   UNL     1      45.585   6.272  11.281  0.00  0.00    +0.000 A 
ATOM     20  C   UNL     1      46.870   6.381  11.846  0.00  0.00    +0.000 A 
BRANCH  19  21
ATOM     21  C   UNL     1      45.247   5.142  10.382  0.00  0.00    +0.000 A 
ATOM     22  C   UNL     1      45.767   5.084   9.074  0.00  0.00    +0.000 A 
ATOM     23  C   UNL     1      45.567   3.971   8.254  0.00  0.00    +0.000 A 
ATOM     24  C   UNL     1      44.840   2.883   8.724  0.00  0.00    +0.000 A 
ATOM     25  C   UNL     1      44.290   2.922  10.002  0.00  0.00    +0.000 A 
ATOM     26  C   UNL     1      44.481   4.044  10.815  0.00  0.00    +0.000 A 
ENDBRANCH  19  21
ENDBRANCH  14  15
ENDBRANCH   1  14
TORSDOF 6
ENDMDL
