MODEL 1
REMARK VINA RESULT:    -8.230      0.000      0.000
REMARK INTER + INTRA:         -12.083
REMARK INTER:                 -10.636
REMARK INTRA:                  -1.447
REMARK UNBOUND:                -1.447
REMARK  Name = 
REMARK  7 active torsions:
REMARK  status: ('A' for Active; 'I' for Inactive)
REMARK    1  A    between atoms: C_1  and  C_2
REMARK    2  A    between atoms: C_4  and  C_5
REMARK    3  A    between atoms: C_9  and  C_10
REMARK    4  A    between atoms: C_11  and  C_12
REMARK    5  A    between atoms: C_12  and  C_13
REMARK    6  A    between atoms: C_13  and  C_14
REMARK    7  A    between atoms: C_18  and  C_19
REMARK                            x       y       z     vdW  Elec       q    Type
REMARK                         _______ _______ _______ _____ _____    ______ ____
ROOT
ATOM      1  C   UNL     1      44.736   6.864  12.737  0.00  0.00    +0.000 C 
ENDROOT
BRANCH   1   9
ATOM      2  C   UNL     1      45.788   9.581  11.860  0.00  0.00    +0.000 C 
ATOM      3  C   UNL     1      46.693   8.433  12.214  0.00  0.00    +0.000 A 
ATOM      4  C   UNL     1      48.072   8.655  12.141  0.00  0.00    +0.000 A 
ATOM      5  C   UNL     1      48.936   7.623  12.460  0.00  0.00    +0.000 A 
ATOM      6  N   UNL     1      48.525   6.387  12.843  0.00  0.00    +0.000 NA
ATOM      7  C   UNL     1      47.185   6.172  12.917  0.00  0.00    +0.000 A 
ATOM      8  C   UNL     1      46.797   4.787  13.358  0.00  0.00    +0.000 C 
ATOM      9  C   UNL     1      46.222   7.164  12.620  0.00  0.00    +0.000 A 
BRANCH   5  10
ATOM     10  C   UNL     1      50.415   7.862  12.393  0.00  0.00    +0.000 C 
ATOM     11  N   UNL     1      51.053   7.316  11.311  0.00  0.00    +0.000 N 
ATOM     12  O   UNL     1      51.025   8.501  13.237  0.00  0.00    +0.000 OA
ATOM     13  H   UNL     1      50.515   6.798  10.625  0.00  0.00    +0.000 HD
ATOM     14  H   UNL     1      52.046   7.449  11.205  0.00  0.00    +0.000 HD
ENDBRANCH   5  10
ENDBRANCH   1   9
BRANCH   1  15
ATOM     15  C   UNL     1      44.075   6.543  11.389  0.00  0.00    +0.000 C 
BRANCH  15  16
ATOM     16  C   UNL     1      44.105   5.063  11.071  0.00  0.00    +0.000 A 
ATOM     17  C   UNL     1      43.313   4.156  11.778  0.00  0.00    +0.000 A 
ATOM     18  C   UNL     1      43.347   2.799  11.461  0.00  0.00    +0.000 A 
ATOM     19  C   UNL     1      44.156   2.339  10.416  0.00  0.00    +0.000 A 
ATOM     20  C   UNL     1      44.933   3.225   9.651  0.00  0.00    +0.000 A 
ATOM     21  C   UNL     1      44.914   4.584  10.028  0.00  0.00    +0.000 A 
BRANCH  20  22
ATOM     22  C   UNL     1      45.648   2.787   8.426  0.00  0.00    +0.000 A 
ATOM     23  C   UNL     1      45.939   3.699   7.394  0.00  0.00    +0.000 A 
ATOM     24  C   UNL     1      46.745   3.347   6.308  0.00  0.00    +0.000 A 
ATOM     25  C   UNL     1      47.288   2.068   6.230  0.00  0.00    +0.000 A 
ATOM     26  C   UNL     1      46.988   1.134   7.215  0.00  0.00    +0.000 A 
ATOM     27  C   UNL     1      46.166   1.485   8.292  0.00  0.00    +0.000 A 
ENDBRANCH  20  22
ENDBRANCH  15  16
ENDBRANCH   1  15
TORSDOF 5
ENDMDL
MODEL 2
REMARK VINA RESULT:    -8.147      0.593      1.751
REMARK INTER + INTRA:         -11.976
REMARK INTER:                 -10.450
REMARK INTRA:                  -1.526
REMARK UNBOUND:                -1.447
REMARK  Name = 
REMARK  7 active torsions:
REMARK  status: ('A' for Active; 'I' for Inactive)
REMARK    1  A    between atoms: C_1  and  C_2
REMARK    2  A    between atoms: C_4  and  C_5
REMARK    3  A    between atoms: C_9  and  C_10
REMARK    4  A    between atoms: C_11  and  C_12
REMARK    5  A    between atoms: C_12  and  C_13
REMARK    6  A    between atoms: C_13  and  C_14
REMARK    7  A    between atoms: C_18  and  C_19
REMARK                            x       y       z     vdW  Elec       q    Type
REMARK                         _______ _______ _______ _____ _____    ______ ____
ROOT
ATOM      1  C   UNL     1      44.708   6.915  12.748  0.00  0.00    +0.000 C 
ENDROOT
BRANCH   1   9
ATOM      2  C   UNL     1      46.820   4.803  13.332  0.00  0.00    +0.000 C 
ATOM      3  C   UNL     1      47.165   6.203  12.901  0.00  0.00    +0.000 A 
ATOM      4  C   UNL     1      48.520   6.517  12.759  0.00  0.00    +0.000 A 
ATOM      5  C   UNL     1      48.877   7.793  12.364  0.00  0.00    +0.000 A 
ATOM      6  N   UNL     1      47.980   8.779  12.104  0.00  0.00    +0.000 NA
ATOM      7  C   UNL     1      46.663   8.473  12.239  0.00  0.00    +0.000 A 
ATOM      8  C   UNL     1      45.722   9.606  11.926  0.00  0.00    +0.000 C 
ATOM      9  C   UNL     1      46.198   7.197  12.629  0.00  0.00    +0.000 A 
BRANCH   5  10
ATOM     10  C   UNL     1      50.330   8.129  12.200  0.00  0.00    +0.000 C 
ATOM     11  N   UNL     1      51.027   7.328  11.336  0.00  0.00    +0.000 N 
ATOM     12  O   UNL     1      50.869   9.054  12.789  0.00  0.00    +0.000 OA
ATOM     13  H   UNL     1      50.547   6.574  10.859  0.00  0.00    +0.000 HD
ATOM     14  H   UNL     1      52.006   7.508  11.178  0.00  0.00    +0.000 HD
ENDBRANCH   5  10
ENDBRANCH   1   9
BRANCH   1  15
ATOM     15  C   UNL     1      44.045   6.586  11.404  0.00  0.00    +0.000 C 
BRANCH  15  16
ATOM     16  C   UNL     1      44.076   5.104  11.094  0.00  0.00    +0.000 A 
ATOM     17  C   UNL     1      43.286   4.200  11.807  0.00  0.00    +0.000 A 
ATOM     18  C   UNL     1      43.323   2.841  11.496  0.00  0.00    +0.000 A 
ATOM     19  C   UNL     1      44.131   2.377  10.454  0.00  0.00    +0.000 A 
ATOM     20  C   UNL     1      44.906   3.259   9.683  0.00  0.00    +0.000 A 
ATOM     21  C   UNL     1      44.885   4.620  10.053  0.00  0.00    +0.000 A 
BRANCH  20  22
ATOM     22  C   UNL     1      45.621   2.816   8.460  0.00  0.00    +0.000 A 
ATOM     23  C   UNL     1      45.926   3.726   7.432  0.00  0.00    +0.000 A 
ATOM     24  C   UNL     1      46.733   3.368   6.348  0.00  0.00    +0.000 A 
ATOM     25  C   UNL     1      47.261   2.083   6.269  0.00  0.00    +0.000 A 
ATOM     26  C   UNL     1      46.946   1.150   7.250  0.00  0.00    +0.000 A 
ATOM     27  C   UNL     1      46.124   1.508   8.325  0.00  0.00    +0.000 A 
ENDBRANCH  20  22
ENDBRANCH  15  16
ENDBRANCH   1  15
TORSDOF 5
ENDMDL
MODEL 3
REMARK VINA RESULT:    -7.504      2.579      3.805
REMARK INTER + INTRA:         -11.144
REMARK INTER:                  -9.972
REMARK INTRA:                  -1.172
REMARK UNBOUND:                -1.447
REMARK  Name = 
REMARK  7 active torsions:
REMARK  status: ('A' for Active; 'I' for Inactive)
REMARK    1  A    between atoms: C_1  and  C_2
REMARK    2  A    between atoms: C_4  and  C_5
REMARK    3  A    between atoms: C_9  and  C_10
REMARK    4  A    between atoms: C_11  and  C_12
REMARK    5  A    between atoms: C_12  and  C_13
REMARK    6  A    between atoms: C_13  and  C_14
REMARK    7  A    between atoms: C_18  and  C_19
REMARK                            x       y       z     vdW  Elec       q    Type
REMARK                         _______ _______ _______ _____ _____    ______ ____
ROOT
ATOM      1  C   UNL     1      47.625   6.457  12.562  0.00  0.00    +0.000 C 
ENDROOT
BRANCH   1   9
ATOM      2  C   UNL     1      46.563   3.814  13.633  0.00  0.00    +0.000 C 
ATOM      3  C   UNL     1      47.283   4.813  14.497  0.00  0.00    +0.000 A 
ATOM      4  C   UNL     1      47.468   4.483  15.844  0.00  0.00    +0.000 A 
ATOM      5  C   UNL     1      48.126   5.376  16.670  0.00  0.00    +0.000 A 
ATOM      6  N   UNL     1      48.608   6.574  16.252  0.00  0.00    +0.000 NA
ATOM      7  C   UNL     1      48.430   6.894  14.943  0.00  0.00    +0.000 A 
ATOM      8  C   UNL     1      48.996   8.230  14.543  0.00  0.00    +0.000 C 
ATOM      9  C   UNL     1      47.779   6.046  14.018  0.00  0.00    +0.000 A 
BRANCH   5  10
ATOM     10  C   UNL     1      48.336   5.019  18.112  0.00  0.00    +0.000 C 
ATOM     11  N   UNL     1      47.209   5.021  18.890  0.00  0.00    +0.000 N 
ATOM     12  O   UNL     1      49.431   4.740  18.576  0.00  0.00    +0.000 OA
ATOM     13  H   UNL     1      46.315   5.250  18.472  0.00  0.00    +0.000 HD
ATOM     14  H   UNL     1      47.284   4.781  19.866  0.00  0.00    +0.000 HD
ENDBRANCH   5  10
ENDBRANCH   1   9
BRANCH   1  15
ATOM     15  C   UNL     1      46.277   7.125  12.261  0.00  0.00    +0.000 C 
BRANCH  15  16
ATOM     16  C   UNL     1      45.327   6.200  11.530  0.00  0.00    +0.000 A 
ATOM     17  C   UNL     1      43.945   6.294  11.710  0.00  0.00    +0.000 A 
ATOM     18  C   UNL     1      43.088   5.440  11.018  0.00  0.00    +0.000 A 
ATOM     19  C   UNL     1      43.603   4.499  10.120  0.00  0.00    +0.000 A 
ATOM     20  C   UNL     1      44.983   4.403   9.876  0.00  0.00    +0.000 A 
ATOM     21  C   UNL     1      45.827   5.247  10.627  0.00  0.00    +0.000 A 
BRANCH  20  22
ATOM     22  C   UNL     1      45.534   3.547   8.795  0.00  0.00    +0.000 A 
ATOM     23  C   UNL     1      46.171   4.115   7.677  0.00  0.00    +0.000 A 
ATOM     24  C   UNL     1      46.833   3.329   6.729  0.00  0.00    +0.000 A 
ATOM     25  C   UNL     1      46.876   1.947   6.881  0.00  0.00    +0.000 A 
ATOM     26  C   UNL     1      46.224   1.353   7.956  0.00  0.00    +0.000 A 
ATOM     27  C   UNL     1      45.548   2.142   8.893  0.00  0.00    +0.000 A 
ENDBRANCH  20  22
ENDBRANCH  15  16
ENDBRANCH   1  15
TORSDOF 5
ENDMDL
MODEL 4
REMARK VINA RESULT:    -7.031      1.767      2.555
REMARK INTER + INTRA:         -10.534
REMARK INTER:                  -9.358
REMARK INTRA:                  -1.175
REMARK UNBOUND:                -1.447
REMARK  Name = 
REMARK  7 active torsions:
REMARK  status: ('A' for Active; 'I' for Inactive)
REMARK    1  A    between atoms: C_1  and  C_2
REMARK    2  A    between atoms: C_4  and  C_5
REMARK    3  A    between atoms: C_9  and  C_10
REMARK    4  A    between atoms: C_11  and  C_12
REMARK    5  A    between atoms: C_12  and  C_13
REMARK    6  A    between atoms: C_13  and  C_14
REMARK    7  A    between atoms: C_18  and  C_19
REMARK                            x       y       z     vdW  Elec       q    Type
REMARK                         _______ _______ _______ _____ _____    ______ ____
ROOT
ATOM      1  C   UNL     1      46.168   7.070  11.409  0.00  0.00    +0.000 C 
ENDROOT
BRANCH   1   9
ATOM      2  C   UNL     1      47.260   4.954  13.304  0.00  0.00    +0.000 C 
ATOM      3  C   UNL     1      47.427   6.429  13.547  0.00  0.00    +0.000 A 
ATOM      4  C   UNL     1      48.128   6.817  14.694  0.00  0.00    +0.000 A 
ATOM      5  C   UNL     1      48.303   8.165  14.951  0.00  0.00    +0.000 A 
ATOM      6  N   UNL     1      47.826   9.152  14.151  0.00  0.00    +0.000 NA
ATOM      7  C   UNL     1      47.147   8.775  13.035  0.00  0.00    +0.000 A 
ATOM      8  C   UNL     1      46.655   9.917  12.186  0.00  0.00    +0.000 C 
ATOM      9  C   UNL     1      46.924   7.425  12.680  0.00  0.00    +0.000 A 
BRANCH   5  10
ATOM     10  C   UNL     1      49.064   8.582  16.174  0.00  0.00    +0.000 C 
ATOM     11  N   UNL     1      49.957   7.664  16.656  0.00  0.00    +0.000 N 
ATOM     12  O   UNL     1      48.911   9.668  16.714  0.00  0.00    +0.000 OA
ATOM     13  H   UNL     1      50.064   6.776  16.180  0.00  0.00    +0.000 HD
ATOM     14  H   UNL     1      50.505   7.890  17.472  0.00  0.00    +0.000 HD
ENDBRANCH   5  10
ENDBRANCH   1   9
BRANCH   1  15
ATOM     15  C   UNL     1      44.720   6.634  11.668  0.00  0.00    +0.000 C 
BRANCH  15  16
ATOM     16  C   UNL     1      44.466   5.202  11.250  0.00  0.00    +0.000 A 
ATOM     17  C   UNL     1      43.483   4.431  11.875  0.00  0.00    +0.000 A 
ATOM     18  C   UNL     1      43.258   3.117  11.466  0.00  0.00    +0.000 A 
ATOM     19  C   UNL     1      43.998   2.569  10.412  0.00  0.00    +0.000 A 
ATOM     20  C   UNL     1      44.963   3.326   9.728  0.00  0.00    +0.000 A 
ATOM     21  C   UNL     1      45.201   4.635  10.197  0.00  0.00    +0.000 A 
BRANCH  20  22
ATOM     22  C   UNL     1      45.622   2.830   8.494  0.00  0.00    +0.000 A 
ATOM     23  C   UNL     1      45.895   3.699   7.421  0.00  0.00    +0.000 A 
ATOM     24  C   UNL     1      46.652   3.292   6.319  0.00  0.00    +0.000 A 
ATOM     25  C   UNL     1      47.162   1.999   6.265  0.00  0.00    +0.000 A 
ATOM     26  C   UNL     1      46.878   1.105   7.293  0.00  0.00    +0.000 A 
ATOM     27  C   UNL     1      46.105   1.512   8.386  0.00  0.00    +0.000 A 
ENDBRANCH  20  22
ENDBRANCH  15  16
ENDBRANCH   1  15
TORSDOF 5
ENDMDL
MODEL 5
REMARK VINA RESULT:    -6.904      1.442      1.932
REMARK INTER + INTRA:         -10.370
REMARK INTER:                  -9.151
REMARK INTRA:                  -1.219
REMARK UNBOUND:                -1.447
REMARK  Name = 
REMARK  7 active torsions:
REMARK  status: ('A' for Active; 'I' for Inactive)
REMARK    1  A    between atoms: C_1  and  C_2
REMARK    2  A    between atoms: C_4  and  C_5
REMARK    3  A    between atoms: C_9  and  C_10
REMARK    4  A    between atoms: C_11  and  C_12
REMARK    5  A    between atoms: C_12  and  C_13
REMARK    6  A    between atoms: C_13  and  C_14
REMARK    7  A    between atoms: C_18  and  C_19
REMARK                            x       y       z     vdW  Elec       q    Type
REMARK                         _______ _______ _______ _____ _____    ______ ____
ROOT
ATOM      1  C   UNL     1      45.896   5.097  14.039  0.00  0.00    +0.000 C 
ENDROOT
BRANCH   1   9
ATOM      2  C   UNL     1      46.669   7.041  11.829  0.00  0.00    +0.000 C 
ATOM      3  C   UNL     1      47.545   6.774  13.022  0.00  0.00    +0.000 A 
ATOM      4  C   UNL     1      48.755   7.471  13.100  0.00  0.00    +0.000 A 
ATOM      5  C   UNL     1      49.588   7.253  14.183  0.00  0.00    +0.000 A 
ATOM      6  N   UNL     1      49.303   6.388  15.190  0.00  0.00    +0.000 NA
ATOM      7  C   UNL     1      48.125   5.712  15.115  0.00  0.00    +0.000 A 
ATOM      8  C   UNL     1      47.866   4.779  16.267  0.00  0.00    +0.000 C 
ATOM      9  C   UNL     1      47.204   5.872  14.056  0.00  0.00    +0.000 A 
BRANCH   5  10
ATOM     10  C   UNL     1      50.881   8.008  14.274  0.00  0.00    +0.000 C 
ATOM     11  N   UNL     1      51.625   8.045  13.126  0.00  0.00    +0.000 N 
ATOM     12  O   UNL     1      51.257   8.561  15.297  0.00  0.00    +0.000 OA
ATOM     13  H   UNL     1      51.279   7.581  12.293  0.00  0.00    +0.000 HD
ATOM     14  H   UNL     1      52.501   8.544  13.121  0.00  0.00    +0.000 HD
ENDBRANCH   5  10
ENDBRANCH   1   9
BRANCH   1  15
ATOM     15  C   UNL     1      45.972   3.799  13.223  0.00  0.00    +0.000 C 
BRANCH  15  16
ATOM     16  C   UNL     1      45.234   3.902  11.906  0.00  0.00    +0.000 A 
ATOM     17  C   UNL     1      44.081   4.681  11.783  0.00  0.00    +0.000 A 
ATOM     18  C   UNL     1      43.424   4.771  10.557  0.00  0.00    +0.000 A 
ATOM     19  C   UNL     1      43.926   4.102   9.436  0.00  0.00    +0.000 A 
ATOM     20  C   UNL     1      45.108   3.345   9.507  0.00  0.00    +0.000 A 
ATOM     21  C   UNL     1      45.722   3.234  10.771  0.00  0.00    +0.000 A 
BRANCH  20  22
ATOM     22  C   UNL     1      45.757   2.785   8.295  0.00  0.00    +0.000 A 
ATOM     23  C   UNL     1      46.032   3.600   7.181  0.00  0.00    +0.000 A 
ATOM     24  C   UNL     1      46.781   3.134   6.097  0.00  0.00    +0.000 A 
ATOM     25  C   UNL     1      47.279   1.835   6.103  0.00  0.00    +0.000 A 
ATOM     26  C   UNL     1      46.992   0.994   7.173  0.00  0.00    +0.000 A 
ATOM     27  C   UNL     1      46.228   1.459   8.248  0.00  0.00    +0.000 A 
ENDBRANCH  20  22
ENDBRANCH  15  16
ENDBRANCH   1  15
TORSDOF 5
ENDMDL
MODEL 6
REMARK VINA RESULT:    -6.685      2.120      2.868
REMARK INTER + INTRA:         -10.086
REMARK INTER:                  -8.784
REMARK INTRA:                  -1.302
REMARK UNBOUND:                -1.447
REMARK  Name = 
REMARK  7 active torsions:
REMARK  status: ('A' for Active; 'I' for Inactive)
REMARK    1  A    between atoms: C_1  and  C_2
REMARK    2  A    between atoms: C_4  and  C_5
REMARK    3  A    between atoms: C_9  and  C_10
REMARK    4  A    between atoms: C_11  and  C_12
REMARK    5  A    between atoms: C_12  and  C_13
REMARK    6  A    between atoms: C_13  and  C_14
REMARK    7  A    between atoms: C_18  and  C_19
REMARK                            x       y       z     vdW  Elec       q    Type
REMARK                         _______ _______ _______ _____ _____    ______ ____
ROOT
ATOM      1  C   UNL     1      47.335   4.867  13.740  0.00  0.00    +0.000 C 
ENDROOT
BRANCH   1   9
ATOM      2  C   UNL     1      48.479   5.516  16.484  0.00  0.00    +0.000 C 
ATOM      3  C   UNL     1      48.418   6.523  15.368  0.00  0.00    +0.000 A 
ATOM      4  C   UNL     1      48.926   7.800  15.626  0.00  0.00    +0.000 A 
ATOM      5  C   UNL     1      48.888   8.754  14.624  0.00  0.00    +0.000 A 
ATOM      6  N   UNL     1      48.376   8.527  13.387  0.00  0.00    +0.000 NA
ATOM      7  C   UNL     1      47.885   7.284  13.136  0.00  0.00    +0.000 A 
ATOM      8  C   UNL     1      47.344   7.095  11.744  0.00  0.00    +0.000 C 
ATOM      9  C   UNL     1      47.887   6.240  14.089  0.00  0.00    +0.000 A 
BRANCH   5  10
ATOM     10  C   UNL     1      49.442  10.121  14.895  0.00  0.00    +0.000 C 
ATOM     11  N   UNL     1      49.445  10.979  13.828  0.00  0.00    +0.000 N 
ATOM     12  O   UNL     1      49.862  10.463  15.990  0.00  0.00    +0.000 OA
ATOM     13  H   UNL     1      49.082  10.665  12.936  0.00  0.00    +0.000 HD
ATOM     14  H   UNL     1      49.797  11.915  13.949  0.00  0.00    +0.000 HD
ENDBRANCH   5  10
ENDBRANCH   1   9
BRANCH   1  15
ATOM     15  C   UNL     1      45.846   4.709  14.077  0.00  0.00    +0.000 C 
BRANCH  15  16
ATOM     16  C   UNL     1      44.976   4.673  12.840  0.00  0.00    +0.000 A 
ATOM     17  C   UNL     1      43.748   5.337  12.801  0.00  0.00    +0.000 A 
ATOM     18  C   UNL     1      42.967   5.300  11.646  0.00  0.00    +0.000 A 
ATOM     19  C   UNL     1      43.418   4.618  10.511  0.00  0.00    +0.000 A 
ATOM     20  C   UNL     1      44.668   3.976  10.494  0.00  0.00    +0.000 A 
ATOM     21  C   UNL     1      45.411   3.990  11.692  0.00  0.00    +0.000 A 
BRANCH  20  22
ATOM     22  C   UNL     1      45.245   3.411   9.249  0.00  0.00    +0.000 A 
ATOM     23  C   UNL     1      45.731   4.252   8.231  0.00  0.00    +0.000 A 
ATOM     24  C   UNL     1      46.419   3.746   7.125  0.00  0.00    +0.000 A 
ATOM     25  C   UNL     1      46.643   2.378   7.011  0.00  0.00    +0.000 A 
ATOM     26  C   UNL     1      46.141   1.517   7.982  0.00  0.00    +0.000 A 
ATOM     27  C   UNL     1      45.438   2.027   9.079  0.00  0.00    +0.000 A 
ENDBRANCH  20  22
ENDBRANCH  15  16
ENDBRANCH   1  15
TORSDOF 5
ENDMDL
MODEL 7
REMARK VINA RESULT:    -6.236      4.814      8.190
REMARK INTER + INTRA:          -9.506
REMARK INTER:                  -8.153
REMARK INTRA:                  -1.352
REMARK UNBOUND:                -1.447
REMARK  Name = 
REMARK  7 active torsions:
REMARK  status: ('A' for Active; 'I' for Inactive)
REMARK    1  A    between atoms: C_1  and  C_2
REMARK    2  A    between atoms: C_4  and  C_5
REMARK    3  A    between atoms: C_9  and  C_10
REMARK    4  A    between atoms: C_11  and  C_12
REMARK    5  A    between atoms: C_12  and  C_13
REMARK    6  A    between atoms: C_13  and  C_14
REMARK    7  A    between atoms: C_18  and  C_19
REMARK                            x       y       z     vdW  Elec       q    Type
REMARK                         _______ _______ _______ _____ _____    ______ ____
ROOT
ATOM      1  C   UNL     1      48.675   6.809  13.975  0.00  0.00    +0.000 C 
ENDROOT
BRANCH   1   9
ATOM      2  C   UNL     1      46.981   4.404  14.754  0.00  0.00    +0.000 C 
ATOM      3  C   UNL     1      46.560   5.390  13.698  0.00  0.00    +0.000 A 
ATOM      4  C   UNL     1      45.327   5.174  13.073  0.00  0.00    +0.000 A 
ATOM      5  C   UNL     1      44.905   6.059  12.097  0.00  0.00    +0.000 A 
ATOM      6  N   UNL     1      45.624   7.140  11.698  0.00  0.00    +0.000 NA
ATOM      7  C   UNL     1      46.821   7.351  12.308  0.00  0.00    +0.000 A 
ATOM      8  C   UNL     1      47.561   8.570  11.828  0.00  0.00    +0.000 C 
ATOM      9  C   UNL     1      47.335   6.510  13.321  0.00  0.00    +0.000 A 
BRANCH   5  10
ATOM     10  C   UNL     1      43.579   5.836  11.432  0.00  0.00    +0.000 C 
ATOM     11  N   UNL     1      42.865   6.968  11.145  0.00  0.00    +0.000 N 
ATOM     12  O   UNL     1      43.152   4.725  11.155  0.00  0.00    +0.000 OA
ATOM     13  H   UNL     1      43.252   7.875  11.382  0.00  0.00    +0.000 HD
ATOM     14  H   UNL     1      41.969   6.884  10.691  0.00  0.00    +0.000 HD
ENDBRANCH   5  10
ENDBRANCH   1   9
BRANCH   1  15
ATOM     15  C   UNL     1      48.575   7.818  15.127  0.00  0.00    +0.000 C 
BRANCH  15  16
ATOM     16  C   UNL     1      48.897   7.194  16.468  0.00  0.00    +0.000 A 
ATOM     17  C   UNL     1      48.407   7.742  17.655  0.00  0.00    +0.000 A 
ATOM     18  C   UNL     1      48.707   7.144  18.879  0.00  0.00    +0.000 A 
ATOM     19  C   UNL     1      49.479   5.979  18.925  0.00  0.00    +0.000 A 
ATOM     20  C   UNL     1      49.952   5.371  17.750  0.00  0.00    +0.000 A 
ATOM     21  C   UNL     1      49.674   6.026  16.533  0.00  0.00    +0.000 A 
BRANCH  20  22
ATOM     22  C   UNL     1      50.609   4.039  17.763  0.00  0.00    +0.000 A 
ATOM     23  C   UNL     1      49.907   2.884  17.375  0.00  0.00    +0.000 A 
ATOM     24  C   UNL     1      50.546   1.649  17.229  0.00  0.00    +0.000 A 
ATOM     25  C   UNL     1      51.913   1.542  17.464  0.00  0.00    +0.000 A 
ATOM     26  C   UNL     1      52.627   2.659  17.884  0.00  0.00    +0.000 A 
ATOM     27  C   UNL     1      51.980   3.889  18.046  0.00  0.00    +0.000 A 
ENDBRANCH  20  22
ENDBRANCH  15  16
ENDBRANCH   1  15
TORSDOF 5
ENDMDL
MODEL 8
REMARK VINA RESULT:    -6.209      3.572      5.088
REMARK INTER + INTRA:          -9.472
REMARK INTER:                  -8.418
REMARK INTRA:                  -1.054
REMARK UNBOUND:                -1.447
REMARK  Name = 
REMARK  7 active torsions:
REMARK  status: ('A' for Active; 'I' for Inactive)
REMARK    1  A    between atoms: C_1  and  C_2
REMARK    2  A    between atoms: C_4  and  C_5
REMARK    3  A    between atoms: C_9  and  C_10
REMARK    4  A    between atoms: C_11  and  C_12
REMARK    5  A    between atoms: C_12  and  C_13
REMARK    6  A    between atoms: C_13  and  C_14
REMARK    7  A    between atoms: C_18  and  C_19
REMARK                            x       y       z     vdW  Elec       q    Type
REMARK                         _______ _______ _______ _____ _____    ______ ____
ROOT
ATOM      1  C   UNL     1      48.452   7.410  15.041  0.00  0.00    +0.000 C 
ENDROOT
BRANCH   1   9
ATOM      2  C   UNL     1      51.285   8.066  15.937  0.00  0.00    +0.000 C 
ATOM      3  C   UNL     1      50.599   6.774  16.288  0.00  0.00    +0.000 A 
ATOM      4  C   UNL     1      51.311   5.858  17.069  0.00  0.00    +0.000 A 
ATOM      5  C   UNL     1      50.713   4.659  17.413  0.00  0.00    +0.000 A 
ATOM      6  N   UNL     1      49.459   4.306  17.030  0.00  0.00    +0.000 NA
ATOM      7  C   UNL     1      48.765   5.197  16.272  0.00  0.00    +0.000 A 
ATOM      8  C   UNL     1      47.380   4.750  15.892  0.00  0.00    +0.000 C 
ATOM      9  C   UNL     1      49.285   6.451  15.877  0.00  0.00    +0.000 A 
BRANCH   5  10
ATOM     10  C   UNL     1      51.470   3.681  18.260  0.00  0.00    +0.000 C 
ATOM     11  N   UNL     1      51.358   2.368  17.889  0.00  0.00    +0.000 N 
ATOM     12  O   UNL     1      52.150   4.017  19.218  0.00  0.00    +0.000 OA
ATOM     13  H   UNL     1      50.792   2.124  17.084  0.00  0.00    +0.000 HD
ATOM     14  H   UNL     1      51.851   1.663  18.415  0.00  0.00    +0.000 HD
ENDBRANCH   5  10
ENDBRANCH   1   9
BRANCH   1  15
ATOM     15  C   UNL     1      48.594   7.176  13.531  0.00  0.00    +0.000 C 
BRANCH  15  16
ATOM     16  C   UNL     1      47.264   7.244  12.811  0.00  0.00    +0.000 A 
ATOM     17  C   UNL     1      46.489   8.405  12.834  0.00  0.00    +0.000 A 
ATOM     18  C   UNL     1      45.273   8.449  12.153  0.00  0.00    +0.000 A 
ATOM     19  C   UNL     1      44.832   7.341  11.423  0.00  0.00    +0.000 A 
ATOM     20  C   UNL     1      45.604   6.170  11.336  0.00  0.00    +0.000 A 
ATOM     21  C   UNL     1      46.805   6.139  12.075  0.00  0.00    +0.000 A 
BRANCH  20  22
ATOM     22  C   UNL     1      45.247   5.059  10.419  0.00  0.00    +0.000 A 
ATOM     23  C   UNL     1      45.677   5.061   9.080  0.00  0.00    +0.000 A 
ATOM     24  C   UNL     1      45.489   3.956   8.244  0.00  0.00    +0.000 A 
ATOM     25  C   UNL     1      44.866   2.813   8.735  0.00  0.00    +0.000 A 
ATOM     26  C   UNL     1      44.396   2.794  10.044  0.00  0.00    +0.000 A 
ATOM     27  C   UNL     1      44.572   3.909  10.871  0.00  0.00    +0.000 A 
ENDBRANCH  20  22
ENDBRANCH  15  16
ENDBRANCH   1  15
TORSDOF 5
ENDMDL
MODEL 9
REMARK VINA RESULT:    -6.134      4.375      6.551
REMARK INTER + INTRA:          -9.374
REMARK INTER:                  -8.304
REMARK INTRA:                  -1.070
REMARK UNBOUND:                -1.447
REMARK  Name = 
REMARK  7 active torsions:
REMARK  status: ('A' for Active; 'I' for Inactive)
REMARK    1  A    between atoms: C_1  and  C_2
REMARK    2  A    between atoms: C_4  and  C_5
REMARK    3  A    between atoms: C_9  and  C_10
REMARK    4  A    between atoms: C_11  and  C_12
REMARK    5  A    between atoms: C_12  and  C_13
REMARK    6  A    between atoms: C_13  and  C_14
REMARK    7  A    between atoms: C_18  and  C_19
REMARK                            x       y       z     vdW  Elec       q    Type
REMARK                         _______ _______ _______ _____ _____    ______ ____
ROOT
ATOM      1  C   UNL     1      48.926   6.357  16.577  0.00  0.00    +0.000 C 
ENDROOT
BRANCH   1   9
ATOM      2  C   UNL     1      47.710   3.568  16.517  0.00  0.00    +0.000 C 
ATOM      3  C   UNL     1      49.129   3.829  16.942  0.00  0.00    +0.000 A 
ATOM      4  C   UNL     1      49.905   2.723  17.308  0.00  0.00    +0.000 A 
ATOM      5  C   UNL     1      51.215   2.923  17.703  0.00  0.00    +0.000 A 
ATOM      6  N   UNL     1      51.806   4.144  17.764  0.00  0.00    +0.000 NA
ATOM      7  C   UNL     1      51.053   5.218  17.405  0.00  0.00    +0.000 A 
ATOM      8  C   UNL     1      51.770   6.538  17.484  0.00  0.00    +0.000 C 
ATOM      9  C   UNL     1      49.709   5.117  16.979  0.00  0.00    +0.000 A 
BRANCH   5  10
ATOM     10  C   UNL     1      52.052   1.738  18.086  0.00  0.00    +0.000 C 
ATOM     11  N   UNL     1      51.457   0.517  17.918  0.00  0.00    +0.000 N 
ATOM     12  O   UNL     1      53.191   1.840  18.516  0.00  0.00    +0.000 OA
ATOM     13  H   UNL     1      50.513   0.469  17.552  0.00  0.00    +0.000 HD
ATOM     14  H   UNL     1      51.971  -0.318  18.150  0.00  0.00    +0.000 HD
ENDBRANCH   5  10
ENDBRANCH   1   9
BRANCH   1  15
ATOM     15  C   UNL     1      49.317   6.900  15.197  0.00  0.00    +0.000 C 
BRANCH  15  16
ATOM     16  C   UNL     1      48.111   7.222  14.341  0.00  0.00    +0.000 A 
ATOM     17  C   UNL     1      47.708   8.542  14.128  0.00  0.00    +0.000 A 
ATOM     18  C   UNL     1      46.601   8.816  13.327  0.00  0.00    +0.000 A 
ATOM     19  C   UNL     1      45.899   7.774  12.711  0.00  0.00    +0.000 A 
ATOM     20  C   UNL     1      46.299   6.436  12.864  0.00  0.00    +0.000 A 
ATOM     21  C   UNL     1      47.393   6.188  13.719  0.00  0.00    +0.000 A 
BRANCH  20  22
ATOM     22  C   UNL     1      45.688   5.338  12.074  0.00  0.00    +0.000 A 
ATOM     23  C   UNL     1      45.206   4.176  12.706  0.00  0.00    +0.000 A 
ATOM     24  C   UNL     1      44.488   3.202  12.006  0.00  0.00    +0.000 A 
ATOM     25  C   UNL     1      44.228   3.371  10.649  0.00  0.00    +0.000 A 
ATOM     26  C   UNL     1      44.724   4.491   9.989  0.00  0.00    +0.000 A 
ATOM     27  C   UNL     1      45.457   5.454  10.690  0.00  0.00    +0.000 A 
ENDBRANCH  20  22
ENDBRANCH  15  16
ENDBRANCH   1  15
TORSDOF 5
ENDMDL
