MODEL 1
REMARK VINA RESULT:    -8.565      0.000      0.000
REMARK INTER + INTRA:         -12.086
REMARK INTER:                 -11.068
REMARK INTRA:                  -1.018
REMARK UNBOUND:                -1.018
REMARK  Name = 
REMARK  5 active torsions:
REMARK  status: ('A' for Active; 'I' for Inactive)
REMARK    1  A    between atoms: C_2  and  C_19
REMARK    2  A    between atoms: N_3  and  C_4
REMARK    3  A    between atoms: C_4  and  C_5
REMARK    4  A    between atoms: N_9  and  C_10
REMARK    5  A    between atoms: C_10  and  C_11
REMARK                            x       y       z     vdW  Elec       q    Type
REMARK                         _______ _______ _______ _____ _____    ______ ____
ROOT
ATOM      1  C   UNL     1      46.870   7.748  13.178  0.00  0.00    +0.000 C 
ENDROOT
BRANCH   1   2
ATOM      2  C   UNL     1      46.201   6.687  12.358  0.00  0.00    +0.000 A 
ATOM      3  C   UNL     1      45.253   5.824  12.904  0.00  0.00    +0.000 A 
ATOM      4  C   UNL     1      44.656   4.862  12.093  0.00  0.00    +0.000 A 
ATOM      5  C   UNL     1      44.978   4.805  10.739  0.00  0.00    +0.000 A 
ATOM      6  N   UNL     1      44.295   3.872   9.955  0.00  0.00    +0.000 N 
ATOM      7  N   UNL     1      45.878   5.640  10.191  0.00  0.00    +0.000 NA
ATOM      8  C   UNL     1      46.469   6.553  11.002  0.00  0.00    +0.000 A 
ATOM      9  H   UNL     1      44.524   2.931  10.260  0.00  0.00    +0.000 HD
BRANCH   6  10
ATOM     10  C   UNL     1      44.413   4.040   8.514  0.00  0.00    +0.000 C 
BRANCH  10  11
ATOM     11  C   UNL     1      45.456   3.075   8.011  0.00  0.00    +0.000 A 
ATOM     12  C   UNL     1      46.376   3.456   7.025  0.00  0.00    +0.000 A 
ATOM     13  C   UNL     1      47.344   2.558   6.587  0.00  0.00    +0.000 A 
ATOM     14  C   UNL     1      47.367   1.299   7.161  0.00  0.00    +0.000 A 
ATOM     15  N   UNL     1      46.507   0.893   8.120  0.00  0.00    +0.000 NA
ATOM     16  C   UNL     1      45.575   1.791   8.525  0.00  0.00    +0.000 A 
ENDBRANCH  10  11
ENDBRANCH   6  10
ENDBRANCH   1   2
BRANCH   1  19
ATOM     17  O   UNL     1      49.499   6.867  13.664  0.00  0.00    +0.000 OA
ATOM     18  C   UNL     1      48.686   6.841  14.586  0.00  0.00    +0.000 C 
ATOM     19  N   UNL     1      47.378   7.214  14.415  0.00  0.00    +0.000 N 
ATOM     20  H   UNL     1      46.789   7.337  15.232  0.00  0.00    +0.000 HD
BRANCH  18  21
ATOM     21  C   UNL     1      49.054   6.358  15.923  0.00  0.00    +0.000 A 
ATOM     22  C   UNL     1      49.932   7.094  16.708  0.00  0.00    +0.000 A 
ATOM     23  S   UNL     1      50.266   6.379  18.220  0.00  0.00    +0.000 S 
ATOM     24  C   UNL     1      49.211   5.082  17.901  0.00  0.00    +0.000 A 
ATOM     25  N   UNL     1      49.006   4.105  18.825  0.00  0.00    +0.000 NA
ATOM     26  C   UNL     1      48.150   3.206  18.470  0.00  0.00    +0.000 A 
ATOM     27  N   UNL     1      47.492   3.187  17.268  0.00  0.00    +0.000 N 
ATOM     28  C   UNL     1      47.725   4.109  16.277  0.00  0.00    +0.000 A 
ATOM     29  O   UNL     1      47.218   3.986  15.166  0.00  0.00    +0.000 OA
ATOM     30  C   UNL     1      48.638   5.175  16.645  0.00  0.00    +0.000 A 
ATOM     31  H   UNL     1      46.858   2.437  17.038  0.00  0.00    +0.000 HD
ENDBRANCH  18  21
ENDBRANCH   1  19
TORSDOF 5
ENDMDL
MODEL 2
REMARK VINA RESULT:    -8.080      1.771      3.304
REMARK INTER + INTRA:         -11.460
REMARK INTER:                 -10.471
REMARK INTRA:                  -0.989
REMARK UNBOUND:                -1.018
REMARK  Name = 
REMARK  5 active torsions:
REMARK  status: ('A' for Active; 'I' for Inactive)
REMARK    1  A    between atoms: C_2  and  C_19
REMARK    2  A    between atoms: N_3  and  C_4
REMARK    3  A    between atoms: C_4  and  C_5
REMARK    4  A    between atoms: N_9  and  C_10
REMARK    5  A    between atoms: C_10  and  C_11
REMARK                            x       y       z     vdW  Elec       q    Type
REMARK                         _______ _______ _______ _____ _____    ______ ____
ROOT
ATOM      1  C   UNL     1      46.733   4.349  14.698  0.00  0.00    +0.000 C 
ENDROOT
BRANCH   1   2
ATOM      2  C   UNL     1      46.247   4.589  13.301  0.00  0.00    +0.000 A 
ATOM      3  C   UNL     1      46.659   5.695  12.559  0.00  0.00    +0.000 A 
ATOM      4  C   UNL     1      46.183   5.863  11.261  0.00  0.00    +0.000 A 
ATOM      5  C   UNL     1      45.341   4.903  10.705  0.00  0.00    +0.000 A 
ATOM      6  N   UNL     1      44.952   5.082   9.375  0.00  0.00    +0.000 N 
ATOM      7  N   UNL     1      44.946   3.822  11.400  0.00  0.00    +0.000 NA
ATOM      8  C   UNL     1      45.398   3.688  12.671  0.00  0.00    +0.000 A 
ATOM      9  H   UNL     1      44.390   5.923   9.289  0.00  0.00    +0.000 HD
BRANCH   6  10
ATOM     10  C   UNL     1      44.343   3.930   8.727  0.00  0.00    +0.000 C 
BRANCH  10  11
ATOM     11  C   UNL     1      45.443   3.078   8.149  0.00  0.00    +0.000 A 
ATOM     12  C   UNL     1      46.374   3.614   7.248  0.00  0.00    +0.000 A 
ATOM     13  C   UNL     1      47.395   2.816   6.740  0.00  0.00    +0.000 A 
ATOM     14  C   UNL     1      47.459   1.500   7.160  0.00  0.00    +0.000 A 
ATOM     15  N   UNL     1      46.591   0.945   8.034  0.00  0.00    +0.000 NA
ATOM     16  C   UNL     1      45.607   1.747   8.511  0.00  0.00    +0.000 A 
ENDBRANCH  10  11
ENDBRANCH   6  10
ENDBRANCH   1   2
BRANCH   1  19
ATOM     17  O   UNL     1      48.755   4.373  16.657  0.00  0.00    +0.000 OA
ATOM     18  C   UNL     1      48.401   5.439  16.159  0.00  0.00    +0.000 C 
ATOM     19  N   UNL     1      47.394   5.512  15.231  0.00  0.00    +0.000 N 
ATOM     20  H   UNL     1      47.250   6.380  14.727  0.00  0.00    +0.000 HD
BRANCH  18  21
ATOM     21  C   UNL     1      49.002   6.716  16.567  0.00  0.00    +0.000 A 
ATOM     22  C   UNL     1      48.957   7.107  17.899  0.00  0.00    +0.000 A 
ATOM     23  S   UNL     1      49.684   8.622  18.194  0.00  0.00    +0.000 S 
ATOM     24  C   UNL     1      50.128   8.789  16.559  0.00  0.00    +0.000 A 
ATOM     25  N   UNL     1      50.826   9.875  16.132  0.00  0.00    +0.000 NA
ATOM     26  C   UNL     1      51.134   9.853  14.878  0.00  0.00    +0.000 A 
ATOM     27  N   UNL     1      50.795   8.849  14.009  0.00  0.00    +0.000 N 
ATOM     28  C   UNL     1      50.026   7.772  14.380  0.00  0.00    +0.000 A 
ATOM     29  O   UNL     1      49.630   6.961  13.548  0.00  0.00    +0.000 OA
ATOM     30  C   UNL     1      49.699   7.719  15.792  0.00  0.00    +0.000 A 
ATOM     31  H   UNL     1      51.038   8.906  13.032  0.00  0.00    +0.000 HD
ENDBRANCH  18  21
ENDBRANCH   1  19
TORSDOF 5
ENDMDL
MODEL 3
REMARK VINA RESULT:    -7.922      2.237      2.939
REMARK INTER + INTRA:         -11.256
REMARK INTER:                 -10.507
REMARK INTRA:                  -0.748
REMARK UNBOUND:                -1.018
REMARK  Name = 
REMARK  5 active torsions:
REMARK  status: ('A' for Active; 'I' for Inactive)
REMARK    1  A    between atoms: C_2  and  C_19
REMARK    2  A    between atoms: N_3  and  C_4
REMARK    3  A    between atoms: C_4  and  C_5
REMARK    4  A    between atoms: N_9  and  C_10
REMARK    5  A    between atoms: C_10  and  C_11
REMARK                            x       y       z     vdW  Elec       q    Type
REMARK                         _______ _______ _______ _____ _____    ______ ____
ROOT
ATOM      1  C   UNL     1      46.841   4.279  14.749  0.00  0.00    +0.000 C 
ENDROOT
BRANCH   1   2
ATOM      2  C   UNL     1      46.326   4.543  13.367  0.00  0.00    +0.000 A 
ATOM      3  C   UNL     1      46.716   5.665  12.639  0.00  0.00    +0.000 A 
ATOM      4  C   UNL     1      46.214   5.855  11.354  0.00  0.00    +0.000 A 
ATOM      5  C   UNL     1      45.366   4.901  10.796  0.00  0.00    +0.000 A 
ATOM      6  N   UNL     1      44.951   5.103   9.477  0.00  0.00    +0.000 N 
ATOM      7  N   UNL     1      44.991   3.804  11.478  0.00  0.00    +0.000 NA
ATOM      8  C   UNL     1      45.469   3.649  12.737  0.00  0.00    +0.000 A 
ATOM      9  H   UNL     1      44.382   5.942   9.419  0.00  0.00    +0.000 HD
BRANCH   6  10
ATOM     10  C   UNL     1      44.335   3.959   8.819  0.00  0.00    +0.000 C 
BRANCH  10  11
ATOM     11  C   UNL     1      45.430   3.117   8.216  0.00  0.00    +0.000 A 
ATOM     12  C   UNL     1      46.363   3.674   7.330  0.00  0.00    +0.000 A 
ATOM     13  C   UNL     1      47.379   2.885   6.798  0.00  0.00    +0.000 A 
ATOM     14  C   UNL     1      47.435   1.557   7.180  0.00  0.00    +0.000 A 
ATOM     15  N   UNL     1      46.564   0.981   8.037  0.00  0.00    +0.000 NA
ATOM     16  C   UNL     1      45.585   1.776   8.538  0.00  0.00    +0.000 A 
ENDBRANCH  10  11
ENDBRANCH   6  10
ENDBRANCH   1   2
BRANCH   1  19
ATOM     17  O   UNL     1      48.921   4.398  16.643  0.00  0.00    +0.000 OA
ATOM     18  C   UNL     1      48.436   5.449  16.230  0.00  0.00    +0.000 C 
ATOM     19  N   UNL     1      47.393   5.471  15.341  0.00  0.00    +0.000 N 
ATOM     20  H   UNL     1      47.137   6.349  14.901  0.00  0.00    +0.000 HD
BRANCH  18  21
ATOM     21  C   UNL     1      48.912   6.755  16.705  0.00  0.00    +0.000 A 
ATOM     22  C   UNL     1      49.824   7.478  15.947  0.00  0.00    +0.000 A 
ATOM     23  S   UNL     1      50.283   8.960  16.655  0.00  0.00    +0.000 S 
ATOM     24  C   UNL     1      49.243   8.713  17.979  0.00  0.00    +0.000 A 
ATOM     25  N   UNL     1      49.129   9.645  18.963  0.00  0.00    +0.000 NA
ATOM     26  C   UNL     1      48.274   9.349  19.883  0.00  0.00    +0.000 A 
ATOM     27  N   UNL     1      47.532   8.198  19.918  0.00  0.00    +0.000 N 
ATOM     28  C   UNL     1      47.670   7.195  18.988  0.00  0.00    +0.000 A 
ATOM     29  O   UNL     1      47.088   6.123  19.123  0.00  0.00    +0.000 OA
ATOM     30  C   UNL     1      48.579   7.501  17.900  0.00  0.00    +0.000 A 
ATOM     31  H   UNL     1      46.903   8.011  20.684  0.00  0.00    +0.000 HD
ENDBRANCH  18  21
ENDBRANCH   1  19
TORSDOF 5
ENDMDL
MODEL 4
REMARK VINA RESULT:    -7.552      2.779      3.655
REMARK INTER + INTRA:         -10.778
REMARK INTER:                 -10.287
REMARK INTRA:                  -0.491
REMARK UNBOUND:                -1.018
REMARK  Name = 
REMARK  5 active torsions:
REMARK  status: ('A' for Active; 'I' for Inactive)
REMARK    1  A    between atoms: C_2  and  C_19
REMARK    2  A    between atoms: N_3  and  C_4
REMARK    3  A    between atoms: C_4  and  C_5
REMARK    4  A    between atoms: N_9  and  C_10
REMARK    5  A    between atoms: C_10  and  C_11
REMARK                            x       y       z     vdW  Elec       q    Type
REMARK                         _______ _______ _______ _____ _____    ______ ____
ROOT
ATOM      1  C   UNL     1      45.137   6.094  13.432  0.00  0.00    +0.000 C 
ENDROOT
BRANCH   1   2
ATOM      2  C   UNL     1      44.829   5.223  12.252  0.00  0.00    +0.000 A 
ATOM      3  C   UNL     1      44.045   5.673  11.191  0.00  0.00    +0.000 A 
ATOM      4  C   UNL     1      43.798   4.824  10.116  0.00  0.00    +0.000 A 
ATOM      5  C   UNL     1      44.374   3.555  10.091  0.00  0.00    +0.000 A 
ATOM      6  N   UNL     1      44.156   2.772   8.955  0.00  0.00    +0.000 N 
ATOM      7  N   UNL     1      45.146   3.110  11.098  0.00  0.00    +0.000 NA
ATOM      8  C   UNL     1      45.353   3.941  12.150  0.00  0.00    +0.000 A 
ATOM      9  H   UNL     1      43.168   2.551   8.872  0.00  0.00    +0.000 HD
BRANCH   6  10
ATOM     10  C   UNL     1      45.008   1.601   8.813  0.00  0.00    +0.000 C 
BRANCH  10  11
ATOM     11  C   UNL     1      46.024   1.885   7.736  0.00  0.00    +0.000 A 
ATOM     12  C   UNL     1      45.961   3.062   6.977  0.00  0.00    +0.000 A 
ATOM     13  C   UNL     1      46.919   3.316   6.001  0.00  0.00    +0.000 A 
ATOM     14  C   UNL     1      47.924   2.382   5.820  0.00  0.00    +0.000 A 
ATOM     15  N   UNL     1      48.029   1.241   6.535  0.00  0.00    +0.000 NA
ATOM     16  C   UNL     1      47.080   1.021   7.478  0.00  0.00    +0.000 A 
ENDBRANCH  10  11
ENDBRANCH   6  10
ENDBRANCH   1   2
BRANCH   1  19
ATOM     17  O   UNL     1      47.720   5.233  14.149  0.00  0.00    +0.000 OA
ATOM     18  C   UNL     1      47.593   6.316  13.582  0.00  0.00    +0.000 C 
ATOM     19  N   UNL     1      46.366   6.822  13.241  0.00  0.00    +0.000 N 
ATOM     20  H   UNL     1      46.317   7.630  12.631  0.00  0.00    +0.000 HD
BRANCH  18  21
ATOM     21  C   UNL     1      48.753   7.166  13.280  0.00  0.00    +0.000 A 
ATOM     22  C   UNL     1      48.829   7.824  12.060  0.00  0.00    +0.000 A 
ATOM     23  S   UNL     1      50.248   8.751  11.868  0.00  0.00    +0.000 S 
ATOM     24  C   UNL     1      50.791   8.344  13.429  0.00  0.00    +0.000 A 
ATOM     25  N   UNL     1      51.958   8.846  13.916  0.00  0.00    +0.000 NA
ATOM     26  C   UNL     1      52.227   8.490  15.127  0.00  0.00    +0.000 A 
ATOM     27  N   UNL     1      51.443   7.667  15.892  0.00  0.00    +0.000 N 
ATOM     28  C   UNL     1      50.297   7.077  15.415  0.00  0.00    +0.000 A 
ATOM     29  O   UNL     1      49.691   6.242  16.080  0.00  0.00    +0.000 OA
ATOM     30  C   UNL     1      49.918   7.487  14.075  0.00  0.00    +0.000 A 
ATOM     31  H   UNL     1      51.726   7.400  16.822  0.00  0.00    +0.000 HD
ENDBRANCH  18  21
ENDBRANCH   1  19
TORSDOF 5
ENDMDL
MODEL 5
REMARK VINA RESULT:    -7.477      2.508      4.293
REMARK INTER + INTRA:         -10.681
REMARK INTER:                  -9.590
REMARK INTRA:                  -1.091
REMARK UNBOUND:                -1.018
REMARK  Name = 
REMARK  5 active torsions:
REMARK  status: ('A' for Active; 'I' for Inactive)
REMARK    1  A    between atoms: C_2  and  C_19
REMARK    2  A    between atoms: N_3  and  C_4
REMARK    3  A    between atoms: C_4  and  C_5
REMARK    4  A    between atoms: N_9  and  C_10
REMARK    5  A    between atoms: C_10  and  C_11
REMARK                            x       y       z     vdW  Elec       q    Type
REMARK                         _______ _______ _______ _____ _____    ______ ____
ROOT
ATOM      1  C   UNL     1      46.808   5.425  14.178  0.00  0.00    +0.000 C 
ENDROOT
BRANCH   1   2
ATOM      2  C   UNL     1      46.151   5.137  12.862  0.00  0.00    +0.000 A 
ATOM      3  C   UNL     1      45.934   6.136  11.915  0.00  0.00    +0.000 A 
ATOM      4  C   UNL     1      45.328   5.810  10.704  0.00  0.00    +0.000 A 
ATOM      5  C   UNL     1      44.989   4.485  10.436  0.00  0.00    +0.000 A 
ATOM      6  N   UNL     1      44.453   4.201   9.177  0.00  0.00    +0.000 N 
ATOM      7  N   UNL     1      45.205   3.506  11.331  0.00  0.00    +0.000 NA
ATOM      8  C   UNL     1      45.772   3.846  12.515  0.00  0.00    +0.000 A 
ATOM      9  H   UNL     1      43.557   4.668   9.070  0.00  0.00    +0.000 HD
BRANCH   6  10
ATOM     10  C   UNL     1      44.401   2.794   8.808  0.00  0.00    +0.000 C 
BRANCH  10  11
ATOM     11  C   UNL     1      45.600   2.489   7.947  0.00  0.00    +0.000 A 
ATOM     12  C   UNL     1      46.093   3.433   7.036  0.00  0.00    +0.000 A 
ATOM     13  C   UNL     1      47.214   3.141   6.264  0.00  0.00    +0.000 A 
ATOM     14  C   UNL     1      47.816   1.907   6.436  0.00  0.00    +0.000 A 
ATOM     15  N   UNL     1      47.381   0.972   7.309  0.00  0.00    +0.000 NA
ATOM     16  C   UNL     1      46.287   1.286   8.046  0.00  0.00    +0.000 A 
ENDBRANCH  10  11
ENDBRANCH   6  10
ENDBRANCH   1   2
BRANCH   1  19
ATOM     17  O   UNL     1      49.257   6.185  15.339  0.00  0.00    +0.000 OA
ATOM     18  C   UNL     1      48.587   7.037  14.760  0.00  0.00    +0.000 C 
ATOM     19  N   UNL     1      47.365   6.752  14.208  0.00  0.00    +0.000 N 
ATOM     20  H   UNL     1      46.927   7.436  13.599  0.00  0.00    +0.000 HD
BRANCH  18  21
ATOM     21  C   UNL     1      49.032   8.434  14.668  0.00  0.00    +0.000 A 
ATOM     22  C   UNL     1      49.227   9.175  15.827  0.00  0.00    +0.000 A 
ATOM     23  S   UNL     1      49.723  10.781  15.538  0.00  0.00    +0.000 S 
ATOM     24  C   UNL     1      49.743  10.530  13.854  0.00  0.00    +0.000 A 
ATOM     25  N   UNL     1      50.122  11.523  13.004  0.00  0.00    +0.000 NA
ATOM     26  C   UNL     1      50.131  11.183  11.759  0.00  0.00    +0.000 A 
ATOM     27  N   UNL     1      49.783   9.946  11.284  0.00  0.00    +0.000 N 
ATOM     28  C   UNL     1      49.323   8.939  12.098  0.00  0.00    +0.000 A 
ATOM     29  O   UNL     1      48.894   7.890  11.626  0.00  0.00    +0.000 OA
ATOM     30  C   UNL     1      49.344   9.250  13.515  0.00  0.00    +0.000 A 
ATOM     31  H   UNL     1      49.781   9.754  10.294  0.00  0.00    +0.000 HD
ENDBRANCH  18  21
ENDBRANCH   1  19
TORSDOF 5
ENDMDL
MODEL 6
REMARK VINA RESULT:    -7.381      2.301      2.935
REMARK INTER + INTRA:         -10.556
REMARK INTER:                  -9.792
REMARK INTRA:                  -0.764
REMARK UNBOUND:                -1.018
REMARK  Name = 
REMARK  5 active torsions:
REMARK  status: ('A' for Active; 'I' for Inactive)
REMARK    1  A    between atoms: C_2  and  C_19
REMARK    2  A    between atoms: N_3  and  C_4
REMARK    3  A    between atoms: C_4  and  C_5
REMARK    4  A    between atoms: N_9  and  C_10
REMARK    5  A    between atoms: C_10  and  C_11
REMARK                            x       y       z     vdW  Elec       q    Type
REMARK                         _______ _______ _______ _____ _____    ______ ____
ROOT
ATOM      1  C   UNL     1      48.228   7.295  14.048  0.00  0.00    +0.000 C 
ENDROOT
BRANCH   1   2
ATOM      2  C   UNL     1      47.119   6.801  13.169  0.00  0.00    +0.000 A 
ATOM      3  C   UNL     1      46.436   7.650  12.301  0.00  0.00    +0.000 A 
ATOM      4  C   UNL     1      45.420   7.135  11.499  0.00  0.00    +0.000 A 
ATOM      5  C   UNL     1      45.131   5.773  11.541  0.00  0.00    +0.000 A 
ATOM      6  N   UNL     1      44.154   5.296  10.663  0.00  0.00    +0.000 N 
ATOM      7  N   UNL     1      45.790   4.936  12.362  0.00  0.00    +0.000 NA
ATOM      8  C   UNL     1      46.758   5.459  13.154  0.00  0.00    +0.000 A 
ATOM      9  H   UNL     1      43.254   5.704  10.893  0.00  0.00    +0.000 HD
BRANCH   6  10
ATOM     10  C   UNL     1      44.092   3.850  10.502  0.00  0.00    +0.000 C 
BRANCH  10  11
ATOM     11  C   UNL     1      45.002   3.463   9.365  0.00  0.00    +0.000 A 
ATOM     12  C   UNL     1      45.342   2.123   9.137  0.00  0.00    +0.000 A 
ATOM     13  C   UNL     1      46.168   1.783   8.071  0.00  0.00    +0.000 A 
ATOM     14  C   UNL     1      46.624   2.801   7.253  0.00  0.00    +0.000 A 
ATOM     15  N   UNL     1      46.314   4.105   7.429  0.00  0.00    +0.000 NA
ATOM     16  C   UNL     1      45.507   4.404   8.477  0.00  0.00    +0.000 A 
ENDBRANCH  10  11
ENDBRANCH   6  10
ENDBRANCH   1   2
BRANCH   1  19
ATOM     17  O   UNL     1      50.263   6.308  15.724  0.00  0.00    +0.000 OA
ATOM     18  C   UNL     1      49.122   6.400  16.171  0.00  0.00    +0.000 C 
ATOM     19  N   UNL     1      48.071   6.831  15.403  0.00  0.00    +0.000 N 
ATOM     20  H   UNL     1      47.189   7.051  15.852  0.00  0.00    +0.000 HD
BRANCH  18  21
ATOM     21  C   UNL     1      48.800   6.003  17.548  0.00  0.00    +0.000 A 
ATOM     22  C   UNL     1      49.027   4.697  17.962  0.00  0.00    +0.000 A 
ATOM     23  S   UNL     1      48.580   4.403  19.581  0.00  0.00    +0.000 S 
ATOM     24  C   UNL     1      48.110   6.023  19.804  0.00  0.00    +0.000 A 
ATOM     25  N   UNL     1      47.650   6.459  21.007  0.00  0.00    +0.000 NA
ATOM     26  C   UNL     1      47.370   7.719  21.047  0.00  0.00    +0.000 A 
ATOM     27  N   UNL     1      47.494   8.580  19.988  0.00  0.00    +0.000 N 
ATOM     28  C   UNL     1      47.880   8.168  18.736  0.00  0.00    +0.000 A 
ATOM     29  O   UNL     1      47.852   8.938  17.780  0.00  0.00    +0.000 OA
ATOM     30  C   UNL     1      48.260   6.771  18.649  0.00  0.00    +0.000 A 
ATOM     31  H   UNL     1      47.227   9.549  20.076  0.00  0.00    +0.000 HD
ENDBRANCH  18  21
ENDBRANCH   1  19
TORSDOF 5
ENDMDL
MODEL 7
REMARK VINA RESULT:    -7.343      3.789      4.905
REMARK INTER + INTRA:         -10.507
REMARK INTER:                  -9.611
REMARK INTRA:                  -0.896
REMARK UNBOUND:                -1.018
REMARK  Name = 
REMARK  5 active torsions:
REMARK  status: ('A' for Active; 'I' for Inactive)
REMARK    1  A    between atoms: C_2  and  C_19
REMARK    2  A    between atoms: N_3  and  C_4
REMARK    3  A    between atoms: C_4  and  C_5
REMARK    4  A    between atoms: N_9  and  C_10
REMARK    5  A    between atoms: C_10  and  C_11
REMARK                            x       y       z     vdW  Elec       q    Type
REMARK                         _______ _______ _______ _____ _____    ______ ____
ROOT
ATOM      1  C   UNL     1      45.773   8.020  13.078  0.00  0.00    +0.000 C 
ENDROOT
BRANCH   1   2
ATOM      2  C   UNL     1      45.610   6.652  12.486  0.00  0.00    +0.000 A 
ATOM      3  C   UNL     1      45.723   5.498  13.259  0.00  0.00    +0.000 A 
ATOM      4  C   UNL     1      45.551   4.254  12.659  0.00  0.00    +0.000 A 
ATOM      5  C   UNL     1      45.224   4.179  11.306  0.00  0.00    +0.000 A 
ATOM      6  N   UNL     1      44.990   2.910  10.771  0.00  0.00    +0.000 N 
ATOM      7  N   UNL     1      45.096   5.282  10.548  0.00  0.00    +0.000 NA
ATOM      8  C   UNL     1      45.293   6.484  11.144  0.00  0.00    +0.000 A 
ATOM      9  H   UNL     1      45.841   2.357  10.807  0.00  0.00    +0.000 HD
BRANCH   6  10
ATOM     10  C   UNL     1      44.354   2.876   9.462  0.00  0.00    +0.000 C 
BRANCH  10  11
ATOM     11  C   UNL     1      45.408   2.559   8.434  0.00  0.00    +0.000 A 
ATOM     12  C   UNL     1      45.873   3.543   7.550  0.00  0.00    +0.000 A 
ATOM     13  C   UNL     1      46.861   3.236   6.620  0.00  0.00    +0.000 A 
ATOM     14  C   UNL     1      47.364   1.947   6.609  0.00  0.00    +0.000 A 
ATOM     15  N   UNL     1      46.953   0.971   7.447  0.00  0.00    +0.000 NA
ATOM     16  C   UNL     1      45.989   1.301   8.342  0.00  0.00    +0.000 A 
ENDBRANCH  10  11
ENDBRANCH   6  10
ENDBRANCH   1   2
BRANCH   1  19
ATOM     17  O   UNL     1      46.240  10.358  11.582  0.00  0.00    +0.000 OA
ATOM     18  C   UNL     1      47.202   9.752  12.049  0.00  0.00    +0.000 C 
ATOM     19  N   UNL     1      47.057   8.584  12.751  0.00  0.00    +0.000 N 
ATOM     20  H   UNL     1      47.853   8.211  13.257  0.00  0.00    +0.000 HD
BRANCH  18  21
ATOM     21  C   UNL     1      48.580  10.216  11.837  0.00  0.00    +0.000 A 
ATOM     22  C   UNL     1      48.864  11.575  11.865  0.00  0.00    +0.000 A 
ATOM     23  S   UNL     1      50.506  11.939  11.582  0.00  0.00    +0.000 S 
ATOM     24  C   UNL     1      50.907  10.289  11.458  0.00  0.00    +0.000 A 
ATOM     25  N   UNL     1      52.192   9.896  11.248  0.00  0.00    +0.000 NA
ATOM     26  C   UNL     1      52.360   8.617  11.218  0.00  0.00    +0.000 A 
ATOM     27  N   UNL     1      51.358   7.694  11.365  0.00  0.00    +0.000 N 
ATOM     28  C   UNL     1      50.037   8.046  11.503  0.00  0.00    +0.000 A 
ATOM     29  O   UNL     1      49.152   7.195  11.498  0.00  0.00    +0.000 OA
ATOM     30  C   UNL     1      49.798   9.474  11.598  0.00  0.00    +0.000 A 
ATOM     31  H   UNL     1      51.551   6.706  11.299  0.00  0.00    +0.000 HD
ENDBRANCH  18  21
ENDBRANCH   1  19
TORSDOF 5
ENDMDL
MODEL 8
REMARK VINA RESULT:    -7.226      2.531      3.686
REMARK INTER + INTRA:         -10.357
REMARK INTER:                  -9.521
REMARK INTRA:                  -0.836
REMARK UNBOUND:                -1.018
REMARK  Name = 
REMARK  5 active torsions:
REMARK  status: ('A' for Active; 'I' for Inactive)
REMARK    1  A    between atoms: C_2  and  C_19
REMARK    2  A    between atoms: N_3  and  C_4
REMARK    3  A    between atoms: C_4  and  C_5
REMARK    4  A    between atoms: N_9  and  C_10
REMARK    5  A    between atoms: C_10  and  C_11
REMARK                            x       y       z     vdW  Elec       q    Type
REMARK                         _______ _______ _______ _____ _____    ______ ____
ROOT
ATOM      1  C   UNL     1      47.578   4.139  15.332  0.00  0.00    +0.000 C 
ENDROOT
BRANCH   1   2
ATOM      2  C   UNL     1      46.867   4.582  14.089  0.00  0.00    +0.000 A 
ATOM      3  C   UNL     1      47.224   5.749  13.415  0.00  0.00    +0.000 A 
ATOM      4  C   UNL     1      46.535   6.108  12.259  0.00  0.00    +0.000 A 
ATOM      5  C   UNL     1      45.533   5.276  11.766  0.00  0.00    +0.000 A 
ATOM      6  N   UNL     1      44.925   5.645  10.563  0.00  0.00    +0.000 N 
ATOM      7  N   UNL     1      45.186   4.139  12.394  0.00  0.00    +0.000 NA
ATOM      8  C   UNL     1      45.849   3.819  13.533  0.00  0.00    +0.000 A 
ATOM      9  H   UNL     1      44.425   6.521  10.683  0.00  0.00    +0.000 HD
BRANCH   6  10
ATOM     10  C   UNL     1      44.119   4.622   9.915  0.00  0.00    +0.000 C 
BRANCH  10  11
ATOM     11  C   UNL     1      45.029   3.774   9.063  0.00  0.00    +0.000 A 
ATOM     12  C   UNL     1      45.059   2.380   9.206  0.00  0.00    +0.000 A 
ATOM     13  C   UNL     1      45.892   1.613   8.397  0.00  0.00    +0.000 A 
ATOM     14  C   UNL     1      46.668   2.269   7.459  0.00  0.00    +0.000 A 
ATOM     15  N   UNL     1      46.664   3.608   7.280  0.00  0.00    +0.000 NA
ATOM     16  C   UNL     1      45.843   4.328   8.083  0.00  0.00    +0.000 A 
ENDBRANCH  10  11
ENDBRANCH   6  10
ENDBRANCH   1   2
BRANCH   1  19
ATOM     17  O   UNL     1      49.670   5.754  16.302  0.00  0.00    +0.000 OA
ATOM     18  C   UNL     1      48.541   5.906  16.765  0.00  0.00    +0.000 C 
ATOM     19  N   UNL     1      47.482   5.128  16.374  0.00  0.00    +0.000 N 
ATOM     20  H   UNL     1      46.544   5.395  16.653  0.00  0.00    +0.000 HD
BRANCH  18  21
ATOM     21  C   UNL     1      48.266   6.900  17.811  0.00  0.00    +0.000 A 
ATOM     22  C   UNL     1      48.169   6.500  19.137  0.00  0.00    +0.000 A 
ATOM     23  S   UNL     1      47.827   7.777  20.215  0.00  0.00    +0.000 S 
ATOM     24  C   UNL     1      47.843   8.920  18.953  0.00  0.00    +0.000 A 
ATOM     25  N   UNL     1      47.646  10.242  19.205  0.00  0.00    +0.000 NA
ATOM     26  C   UNL     1      47.727  11.001  18.164  0.00  0.00    +0.000 A 
ATOM     27  N   UNL     1      47.972  10.557  16.891  0.00  0.00    +0.000 N 
ATOM     28  C   UNL     1      48.100   9.225  16.580  0.00  0.00    +0.000 A 
ATOM     29  O   UNL     1      48.186   8.853  15.413  0.00  0.00    +0.000 OA
ATOM     30  C   UNL     1      48.073   8.331  17.723  0.00  0.00    +0.000 A 
ATOM     31  H   UNL     1      47.990  11.199  16.114  0.00  0.00    +0.000 HD
ENDBRANCH  18  21
ENDBRANCH   1  19
TORSDOF 5
ENDMDL
MODEL 9
REMARK VINA RESULT:    -7.180      3.295      8.024
REMARK INTER + INTRA:         -10.297
REMARK INTER:                  -9.479
REMARK INTRA:                  -0.818
REMARK UNBOUND:                -1.018
REMARK  Name = 
REMARK  5 active torsions:
REMARK  status: ('A' for Active; 'I' for Inactive)
REMARK    1  A    between atoms: C_2  and  C_19
REMARK    2  A    between atoms: N_3  and  C_4
REMARK    3  A    between atoms: C_4  and  C_5
REMARK    4  A    between atoms: N_9  and  C_10
REMARK    5  A    between atoms: C_10  and  C_11
REMARK                            x       y       z     vdW  Elec       q    Type
REMARK                         _______ _______ _______ _____ _____    ______ ____
ROOT
ATOM      1  C   UNL     1      48.261   7.944  12.280  0.00  0.00    +0.000 C 
ENDROOT
BRANCH   1   2
ATOM      2  C   UNL     1      48.951   7.510  13.538  0.00  0.00    +0.000 A 
ATOM      3  C   UNL     1      50.040   8.208  14.056  0.00  0.00    +0.000 A 
ATOM      4  C   UNL     1      50.637   7.766  15.234  0.00  0.00    +0.000 A 
ATOM      5  C   UNL     1      50.111   6.664  15.903  0.00  0.00    +0.000 A 
ATOM      6  N   UNL     1      50.701   6.308  17.119  0.00  0.00    +0.000 N 
ATOM      7  N   UNL     1      49.051   5.988  15.427  0.00  0.00    +0.000 NA
ATOM      8  C   UNL     1      48.499   6.416  14.264  0.00  0.00    +0.000 A 
ATOM      9  H   UNL     1      51.661   6.015  16.965  0.00  0.00    +0.000 HD
BRANCH   6  10
ATOM     10  C   UNL     1      49.952   5.369  17.942  0.00  0.00    +0.000 C 
BRANCH  10  11
ATOM     11  C   UNL     1      50.541   3.996  17.744  0.00  0.00    +0.000 A 
ATOM     12  C   UNL     1      51.881   3.733  18.061  0.00  0.00    +0.000 A 
ATOM     13  C   UNL     1      52.402   2.454  17.889  0.00  0.00    +0.000 A 
ATOM     14  C   UNL     1      51.557   1.468  17.412  0.00  0.00    +0.000 A 
ATOM     15  N   UNL     1      50.258   1.674  17.103  0.00  0.00    +0.000 NA
ATOM     16  C   UNL     1      49.780   2.931  17.280  0.00  0.00    +0.000 A 
ENDBRANCH  10  11
ENDBRANCH   6  10
ENDBRANCH   1   2
BRANCH   1  19
ATOM     17  O   UNL     1      45.480   7.849  11.855  0.00  0.00    +0.000 OA
ATOM     18  C   UNL     1      46.169   6.904  11.475  0.00  0.00    +0.000 C 
ATOM     19  N   UNL     1      47.523   6.859  11.685  0.00  0.00    +0.000 N 
ATOM     20  H   UNL     1      48.072   6.150  11.212  0.00  0.00    +0.000 HD
BRANCH  18  21
ATOM     21  C   UNL     1      45.574   5.734  10.816  0.00  0.00    +0.000 A 
ATOM     22  C   UNL     1      45.774   5.529   9.457  0.00  0.00    +0.000 A 
ATOM     23  S   UNL     1      44.998   4.136   8.852  0.00  0.00    +0.000 S 
ATOM     24  C   UNL     1      44.405   3.729  10.395  0.00  0.00    +0.000 A 
ATOM     25  N   UNL     1      43.670   2.601  10.585  0.00  0.00    +0.000 NA
ATOM     26  C   UNL     1      43.321   2.392  11.811  0.00  0.00    +0.000 A 
ATOM     27  N   UNL     1      43.629   3.216  12.861  0.00  0.00    +0.000 N 
ATOM     28  C   UNL     1      44.302   4.404  12.703  0.00  0.00    +0.000 A 
ATOM     29  O   UNL     1      44.443   5.181  13.643  0.00  0.00    +0.000 OA
ATOM     30  C   UNL     1      44.766   4.661  11.352  0.00  0.00    +0.000 A 
ATOM     31  H   UNL     1      43.298   3.013  13.792  0.00  0.00    +0.000 HD
ENDBRANCH  18  21
ENDBRANCH   1  19
TORSDOF 5
ENDMDL
