MODEL 1
REMARK VINA RESULT:    -7.739      0.000      0.000
REMARK INTER + INTRA:         -11.470
REMARK INTER:                 -10.906
REMARK INTRA:                  -0.564
REMARK UNBOUND:                -0.564
REMARK  Name = 
REMARK  8 active torsions:
REMARK  status: ('A' for Active; 'I' for Inactive)
REMARK    1  A    between atoms: C_1  and  N_2
REMARK    2  A    between atoms: N_2  and  C_3
REMARK    3  A    between atoms: N_2  and  C_24
REMARK    4  A    between atoms: C_3  and  C_4
REMARK    5  A    between atoms: C_7  and  C_8
REMARK    6  A    between atoms: C_8  and  N_9
REMARK    7  A    between atoms: C_10  and  C_12
REMARK    8  A    between atoms: C_24  and  C_25
REMARK                            x       y       z     vdW  Elec       q    Type
REMARK                         _______ _______ _______ _____ _____    ______ ____
ROOT
ATOM      1  C   UNL     1      45.959   4.458  12.511  0.00  0.00    +0.000 A 
ATOM      2  C   UNL     1      46.525   4.276  13.781  0.00  0.00    +0.000 A 
ATOM      3  C   UNL     1      47.349   5.259  14.339  0.00  0.00    +0.000 A 
ATOM      4  C   UNL     1      47.595   6.455  13.651  0.00  0.00    +0.000 A 
ATOM      5  C   UNL     1      47.040   6.631  12.379  0.00  0.00    +0.000 A 
ATOM      6  C   UNL     1      46.233   5.643  11.814  0.00  0.00    +0.000 A 
ENDROOT
BRANCH   1   7
ATOM      7  C   UNL     1      45.069   3.401  11.894  0.00  0.00    +0.000 C 
BRANCH   7   9
ATOM      8  C   UNL     1      43.214   4.405  10.775  0.00  0.00    +0.000 C 
ATOM      9  N   UNL     1      44.517   3.749  10.570  0.00  0.00    +0.000 NA
BRANCH   9  10
ATOM     10  C   UNL     1      44.354   2.544   9.717  0.00  0.00    +0.000 C 
BRANCH  10  11
ATOM     11  C   UNL     1      45.505   2.294   8.754  0.00  0.00    +0.000 A 
ATOM     12  N   UNL     1      45.821   0.979   8.542  0.00  0.00    +0.000 NA
ATOM     13  C   UNL     1      46.774   0.701   7.628  0.00  0.00    +0.000 A 
ATOM     14  C   UNL     1      47.452   1.669   6.909  0.00  0.00    +0.000 A 
ATOM     15  C   UNL     1      47.142   3.004   7.149  0.00  0.00    +0.000 A 
ATOM     16  C   UNL     1      46.154   3.330   8.080  0.00  0.00    +0.000 A 
ATOM     17 CL   UNL     1      45.805   4.998   8.344  0.00  0.00    +0.000 Cl
ENDBRANCH  10  11
ENDBRANCH   9  10
ENDBRANCH   7   9
ENDBRANCH   1   7
BRANCH   4  18
ATOM     18  C   UNL     1      48.480   7.520  14.238  0.00  0.00    +0.000 C 
BRANCH  18  19
ATOM     19  N   UNL     1      48.487   7.451  15.678  0.00  0.00    +0.000 N 
ATOM     20  C   UNL     1      49.574   6.969  16.359  0.00  0.00    +0.000 C 
ATOM     21  O   UNL     1      50.601   6.621  15.781  0.00  0.00    +0.000 OA
ATOM     22  H   UNL     1      47.591   7.529  16.148  0.00  0.00    +0.000 HD
BRANCH  20  23
ATOM     23  C   UNL     1      49.475   6.945  17.824  0.00  0.00    +0.000 A 
ATOM     24  C   UNL     1      49.736   8.104  18.544  0.00  0.00    +0.000 A 
ATOM     25  S   UNL     1      49.536   7.924  20.226  0.00  0.00    +0.000 S 
ATOM     26  C   UNL     1      49.143   6.278  20.058  0.00  0.00    +0.000 A 
ATOM     27  N   UNL     1      48.878   5.512  21.148  0.00  0.00    +0.000 NA
ATOM     28  C   UNL     1      48.621   4.273  20.881  0.00  0.00    +0.000 A 
ATOM     29  N   UNL     1      48.602   3.738  19.618  0.00  0.00    +0.000 N 
ATOM     30  C   UNL     1      48.837   4.480  18.486  0.00  0.00    +0.000 A 
ATOM     31  O   UNL     1      48.772   3.974  17.370  0.00  0.00    +0.000 OA
ATOM     32  C   UNL     1      49.143   5.875  18.734  0.00  0.00    +0.000 A 
ATOM     33  H   UNL     1      48.383   2.761  19.476  0.00  0.00    +0.000 HD
ENDBRANCH  20  23
ENDBRANCH  18  19
ENDBRANCH   4  18
TORSDOF 7
ENDMDL
MODEL 2
REMARK VINA RESULT:    -7.727      3.895      9.109
REMARK INTER + INTRA:         -11.453
REMARK INTER:                  -9.828
REMARK INTRA:                  -1.626
REMARK UNBOUND:                -0.564
REMARK  Name = 
REMARK  8 active torsions:
REMARK  status: ('A' for Active; 'I' for Inactive)
REMARK    1  A    between atoms: C_1  and  N_2
REMARK    2  A    between atoms: N_2  and  C_3
REMARK    3  A    between atoms: N_2  and  C_24
REMARK    4  A    between atoms: C_3  and  C_4
REMARK    5  A    between atoms: C_7  and  C_8
REMARK    6  A    between atoms: C_8  and  N_9
REMARK    7  A    between atoms: C_10  and  C_12
REMARK    8  A    between atoms: C_24  and  C_25
REMARK                            x       y       z     vdW  Elec       q    Type
REMARK                         _______ _______ _______ _____ _____    ______ ____
ROOT
ATOM      1  C   UNL     1      48.803   7.930  16.227  0.00  0.00    +0.000 A 
ATOM      2  C   UNL     1      48.335   9.076  15.571  0.00  0.00    +0.000 A 
ATOM      3  C   UNL     1      47.956   9.019  14.225  0.00  0.00    +0.000 A 
ATOM      4  C   UNL     1      48.008   7.808  13.522  0.00  0.00    +0.000 A 
ATOM      5  C   UNL     1      48.487   6.666  14.176  0.00  0.00    +0.000 A 
ATOM      6  C   UNL     1      48.882   6.727  15.512  0.00  0.00    +0.000 A 
ENDROOT
BRANCH   1   7
ATOM      7  C   UNL     1      49.220   7.979  17.682  0.00  0.00    +0.000 C 
BRANCH   7   9
ATOM      8  C   UNL     1      47.939   8.652  19.581  0.00  0.00    +0.000 C 
ATOM      9  N   UNL     1      48.184   7.546  18.640  0.00  0.00    +0.000 NA
BRANCH   9  10
ATOM     10  C   UNL     1      48.605   6.328  19.380  0.00  0.00    +0.000 C 
BRANCH  10  11
ATOM     11  C   UNL     1      48.544   5.044  18.567  0.00  0.00    +0.000 A 
ATOM     12  N   UNL     1      47.305   4.707  18.091  0.00  0.00    +0.000 NA
ATOM     13  C   UNL     1      47.214   3.626  17.288  0.00  0.00    +0.000 A 
ATOM     14  C   UNL     1      48.295   2.839  16.936  0.00  0.00    +0.000 A 
ATOM     15  C   UNL     1      49.547   3.174  17.446  0.00  0.00    +0.000 A 
ATOM     16  C   UNL     1      49.682   4.292  18.271  0.00  0.00    +0.000 A 
ATOM     17 CL   UNL     1      51.251   4.667  18.879  0.00  0.00    +0.000 Cl
ENDBRANCH  10  11
ENDBRANCH   9  10
ENDBRANCH   7   9
ENDBRANCH   1   7
BRANCH   4  18
ATOM     18  C   UNL     1      47.606   7.731  12.075  0.00  0.00    +0.000 C 
BRANCH  18  19
ATOM     19  N   UNL     1      46.917   6.496  11.795  0.00  0.00    +0.000 N 
ATOM     20  C   UNL     1      45.551   6.415  11.867  0.00  0.00    +0.000 C 
ATOM     21  O   UNL     1      44.855   7.394  12.125  0.00  0.00    +0.000 OA
ATOM     22  H   UNL     1      47.473   5.647  11.793  0.00  0.00    +0.000 HD
BRANCH  20  23
ATOM     23  C   UNL     1      44.952   5.109  11.560  0.00  0.00    +0.000 A 
ATOM     24  C   UNL     1      44.244   4.435  12.546  0.00  0.00    +0.000 A 
ATOM     25  S   UNL     1      43.576   2.959  12.020  0.00  0.00    +0.000 S 
ATOM     26  C   UNL     1      44.252   3.142  10.470  0.00  0.00    +0.000 A 
ATOM     27  N   UNL     1      44.076   2.191   9.517  0.00  0.00    +0.000 NA
ATOM     28  C   UNL     1      44.665   2.442   8.394  0.00  0.00    +0.000 A 
ATOM     29  N   UNL     1      45.409   3.567   8.142  0.00  0.00    +0.000 N 
ATOM     30  C   UNL     1      45.591   4.568   9.065  0.00  0.00    +0.000 A 
ATOM     31  O   UNL     1      46.231   5.578   8.790  0.00  0.00    +0.000 OA
ATOM     32  C   UNL     1      44.960   4.326  10.347  0.00  0.00    +0.000 A 
ATOM     33  H   UNL     1      45.835   3.710   7.237  0.00  0.00    +0.000 HD
ENDBRANCH  20  23
ENDBRANCH  18  19
ENDBRANCH   4  18
TORSDOF 7
ENDMDL
MODEL 3
REMARK VINA RESULT:    -7.701      2.467      2.877
REMARK INTER + INTRA:         -11.416
REMARK INTER:                 -10.553
REMARK INTRA:                  -0.863
REMARK UNBOUND:                -0.564
REMARK  Name = 
REMARK  8 active torsions:
REMARK  status: ('A' for Active; 'I' for Inactive)
REMARK    1  A    between atoms: C_1  and  N_2
REMARK    2  A    between atoms: N_2  and  C_3
REMARK    3  A    between atoms: N_2  and  C_24
REMARK    4  A    between atoms: C_3  and  C_4
REMARK    5  A    between atoms: C_7  and  C_8
REMARK    6  A    between atoms: C_8  and  N_9
REMARK    7  A    between atoms: C_10  and  C_12
REMARK    8  A    between atoms: C_24  and  C_25
REMARK                            x       y       z     vdW  Elec       q    Type
REMARK                         _______ _______ _______ _____ _____    ______ ____
ROOT
ATOM      1  C   UNL     1      46.213   5.098  12.582  0.00  0.00    +0.000 A 
ATOM      2  C   UNL     1      46.530   4.556  13.835  0.00  0.00    +0.000 A 
ATOM      3  C   UNL     1      47.368   5.248  14.716  0.00  0.00    +0.000 A 
ATOM      4  C   UNL     1      47.877   6.508  14.373  0.00  0.00    +0.000 A 
ATOM      5  C   UNL     1      47.569   7.043  13.117  0.00  0.00    +0.000 A 
ATOM      6  C   UNL     1      46.749   6.345  12.230  0.00  0.00    +0.000 A 
ENDROOT
BRANCH   1   7
ATOM      7  C   UNL     1      45.311   4.359  11.617  0.00  0.00    +0.000 C 
BRANCH   7   9
ATOM      8  C   UNL     1      43.418   5.806  11.467  0.00  0.00    +0.000 C 
ATOM      9  N   UNL     1      44.535   5.222  10.705  0.00  0.00    +0.000 NA
BRANCH   9  10
ATOM     10  C   UNL     1      44.016   4.455   9.543  0.00  0.00    +0.000 C 
BRANCH  10  11
ATOM     11  C   UNL     1      45.093   3.829   8.671  0.00  0.00    +0.000 A 
ATOM     12  N   UNL     1      45.941   4.710   8.056  0.00  0.00    +0.000 NA
ATOM     13  C   UNL     1      46.969   4.202   7.344  0.00  0.00    +0.000 A 
ATOM     14  C   UNL     1      47.200   2.846   7.193  0.00  0.00    +0.000 A 
ATOM     15  C   UNL     1      46.318   1.957   7.800  0.00  0.00    +0.000 A 
ATOM     16  C   UNL     1      45.248   2.446   8.553  0.00  0.00    +0.000 A 
ATOM     17 CL   UNL     1      44.183   1.306   9.286  0.00  0.00    +0.000 Cl
ENDBRANCH  10  11
ENDBRANCH   9  10
ENDBRANCH   7   9
ENDBRANCH   1   7
BRANCH   4  18
ATOM     18  C   UNL     1      48.780   7.262  15.310  0.00  0.00    +0.000 C 
BRANCH  18  19
ATOM     19  N   UNL     1      49.845   6.419  15.792  0.00  0.00    +0.000 N 
ATOM     20  C   UNL     1      49.803   5.874  17.049  0.00  0.00    +0.000 C 
ATOM     21  O   UNL     1      48.843   6.040  17.797  0.00  0.00    +0.000 OA
ATOM     22  H   UNL     1      50.722   6.447  15.283  0.00  0.00    +0.000 HD
BRANCH  20  23
ATOM     23  C   UNL     1      50.939   5.028  17.437  0.00  0.00    +0.000 A 
ATOM     24  C   UNL     1      52.117   5.625  17.867  0.00  0.00    +0.000 A 
ATOM     25  S   UNL     1      53.322   4.509  18.321  0.00  0.00    +0.000 S 
ATOM     26  C   UNL     1      52.331   3.188  17.912  0.00  0.00    +0.000 A 
ATOM     27  N   UNL     1      52.781   1.914  18.042  0.00  0.00    +0.000 NA
ATOM     28  C   UNL     1      51.938   1.008  17.670  0.00  0.00    +0.000 A 
ATOM     29  N   UNL     1      50.681   1.268  17.185  0.00  0.00    +0.000 N 
ATOM     30  C   UNL     1      50.174   2.539  17.062  0.00  0.00    +0.000 A 
ATOM     31  O   UNL     1      49.030   2.730  16.660  0.00  0.00    +0.000 OA
ATOM     32  C   UNL     1      51.088   3.592  17.454  0.00  0.00    +0.000 A 
ATOM     33  H   UNL     1      50.065   0.512  16.921  0.00  0.00    +0.000 HD
ENDBRANCH  20  23
ENDBRANCH  18  19
ENDBRANCH   4  18
TORSDOF 7
ENDMDL
MODEL 4
REMARK VINA RESULT:    -7.625      4.159      8.659
REMARK INTER + INTRA:         -11.310
REMARK INTER:                  -9.758
REMARK INTRA:                  -1.552
REMARK UNBOUND:                -0.564
REMARK  Name = 
REMARK  8 active torsions:
REMARK  status: ('A' for Active; 'I' for Inactive)
REMARK    1  A    between atoms: C_1  and  N_2
REMARK    2  A    between atoms: N_2  and  C_3
REMARK    3  A    between atoms: N_2  and  C_24
REMARK    4  A    between atoms: C_3  and  C_4
REMARK    5  A    between atoms: C_7  and  C_8
REMARK    6  A    between atoms: C_8  and  N_9
REMARK    7  A    between atoms: C_10  and  C_12
REMARK    8  A    between atoms: C_24  and  C_25
REMARK                            x       y       z     vdW  Elec       q    Type
REMARK                         _______ _______ _______ _____ _____    ______ ____
ROOT
ATOM      1  C   UNL     1      48.729   7.730  16.389  0.00  0.00    +0.000 A 
ATOM      2  C   UNL     1      48.763   6.620  15.534  0.00  0.00    +0.000 A 
ATOM      3  C   UNL     1      48.524   6.772  14.163  0.00  0.00    +0.000 A 
ATOM      4  C   UNL     1      48.279   8.040  13.620  0.00  0.00    +0.000 A 
ATOM      5  C   UNL     1      48.234   9.146  14.476  0.00  0.00    +0.000 A 
ATOM      6  C   UNL     1      48.453   8.993  15.845  0.00  0.00    +0.000 A 
ENDROOT
BRANCH   1   7
ATOM      7  C   UNL     1      48.981   7.580  17.874  0.00  0.00    +0.000 C 
BRANCH   7   9
ATOM      8  C   UNL     1      47.566   8.407  19.610  0.00  0.00    +0.000 C 
ATOM      9  N   UNL     1      47.781   7.284  18.681  0.00  0.00    +0.000 NA
BRANCH   9  10
ATOM     10  C   UNL     1      47.935   6.016  19.438  0.00  0.00    +0.000 C 
BRANCH  10  11
ATOM     11  C   UNL     1      48.138   4.784  18.569  0.00  0.00    +0.000 A 
ATOM     12  N   UNL     1      47.039   4.372  17.864  0.00  0.00    +0.000 NA
ATOM     13  C   UNL     1      47.192   3.339  17.009  0.00  0.00    +0.000 A 
ATOM     14  C   UNL     1      48.388   2.672  16.819  0.00  0.00    +0.000 A 
ATOM     15  C   UNL     1      49.494   3.080  17.559  0.00  0.00    +0.000 A 
ATOM     16  C   UNL     1      49.378   4.152  18.446  0.00  0.00    +0.000 A 
ATOM     17 CL   UNL     1      50.774   4.622  19.340  0.00  0.00    +0.000 Cl
ENDBRANCH  10  11
ENDBRANCH   9  10
ENDBRANCH   7   9
ENDBRANCH   1   7
BRANCH   4  18
ATOM     18  C   UNL     1      48.020   8.218  12.149  0.00  0.00    +0.000 C 
BRANCH  18  19
ATOM     19  N   UNL     1      47.398   7.045  11.588  0.00  0.00    +0.000 N 
ATOM     20  C   UNL     1      46.050   7.006  11.346  0.00  0.00    +0.000 C 
ATOM     21  O   UNL     1      45.324   7.976  11.550  0.00  0.00    +0.000 OA
ATOM     22  H   UNL     1      47.931   6.182  11.615  0.00  0.00    +0.000 HD
BRANCH  20  23
ATOM     23  C   UNL     1      45.521   5.762  10.771  0.00  0.00    +0.000 A 
ATOM     24  C   UNL     1      45.730   5.491   9.424  0.00  0.00    +0.000 A 
ATOM     25  S   UNL     1      45.093   3.993   8.922  0.00  0.00    +0.000 S 
ATOM     26  C   UNL     1      44.471   3.675  10.473  0.00  0.00    +0.000 A 
ATOM     27  N   UNL     1      43.774   2.537  10.722  0.00  0.00    +0.000 NA
ATOM     28  C   UNL     1      43.334   2.433  11.933  0.00  0.00    +0.000 A 
ATOM     29  N   UNL     1      43.538   3.368  12.917  0.00  0.00    +0.000 N 
ATOM     30  C   UNL     1      44.260   4.520  12.717  0.00  0.00    +0.000 A 
ATOM     31  O   UNL     1      44.454   5.314  13.632  0.00  0.00    +0.000 OA
ATOM     32  C   UNL     1      44.763   4.689  11.369  0.00  0.00    +0.000 A 
ATOM     33  H   UNL     1      43.176   3.221  13.849  0.00  0.00    +0.000 HD
ENDBRANCH  20  23
ENDBRANCH  18  19
ENDBRANCH   4  18
TORSDOF 7
ENDMDL
MODEL 5
REMARK VINA RESULT:    -6.828      3.959      8.355
REMARK INTER + INTRA:         -10.187
REMARK INTER:                  -8.419
REMARK INTRA:                  -1.768
REMARK UNBOUND:                -0.564
REMARK  Name = 
REMARK  8 active torsions:
REMARK  status: ('A' for Active; 'I' for Inactive)
REMARK    1  A    between atoms: C_1  and  N_2
REMARK    2  A    between atoms: N_2  and  C_3
REMARK    3  A    between atoms: N_2  and  C_24
REMARK    4  A    between atoms: C_3  and  C_4
REMARK    5  A    between atoms: C_7  and  C_8
REMARK    6  A    between atoms: C_8  and  N_9
REMARK    7  A    between atoms: C_10  and  C_12
REMARK    8  A    between atoms: C_24  and  C_25
REMARK                            x       y       z     vdW  Elec       q    Type
REMARK                         _______ _______ _______ _____ _____    ______ ____
ROOT
ATOM      1  C   UNL     1      50.692   7.365  16.982  0.00  0.00    +0.000 A 
ATOM      2  C   UNL     1      51.359   7.338  15.750  0.00  0.00    +0.000 A 
ATOM      3  C   UNL     1      50.718   7.777  14.586  0.00  0.00    +0.000 A 
ATOM      4  C   UNL     1      49.411   8.281  14.640  0.00  0.00    +0.000 A 
ATOM      5  C   UNL     1      48.742   8.297  15.869  0.00  0.00    +0.000 A 
ATOM      6  C   UNL     1      49.374   7.841  17.027  0.00  0.00    +0.000 A 
ENDROOT
BRANCH   1   7
ATOM      7  C   UNL     1      51.371   6.889  18.248  0.00  0.00    +0.000 C 
BRANCH   7   9
ATOM      8  C   UNL     1      50.872   6.703  20.575  0.00  0.00    +0.000 C 
ATOM      9  N   UNL     1      50.476   6.249  19.232  0.00  0.00    +0.000 NA
BRANCH   9  10
ATOM     10  C   UNL     1      50.550   4.767  19.149  0.00  0.00    +0.000 C 
BRANCH  10  11
ATOM     11  C   UNL     1      49.439   4.125  18.333  0.00  0.00    +0.000 A 
ATOM     12  N   UNL     1      48.219   4.740  18.411  0.00  0.00    +0.000 NA
ATOM     13  C   UNL     1      47.223   4.263  17.635  0.00  0.00    +0.000 A 
ATOM     14  C   UNL     1      47.367   3.185  16.781  0.00  0.00    +0.000 A 
ATOM     15  C   UNL     1      48.604   2.549  16.727  0.00  0.00    +0.000 A 
ATOM     16  C   UNL     1      49.661   3.020  17.508  0.00  0.00    +0.000 A 
ATOM     17 CL   UNL     1      51.174   2.201  17.407  0.00  0.00    +0.000 Cl
ENDBRANCH  10  11
ENDBRANCH   9  10
ENDBRANCH   7   9
ENDBRANCH   1   7
BRANCH   4  18
ATOM     18  C   UNL     1      48.710   8.755  13.397  0.00  0.00    +0.000 C 
BRANCH  18  19
ATOM     19  N   UNL     1      47.794   7.756  12.908  0.00  0.00    +0.000 N 
ATOM     20  C   UNL     1      46.440   7.969  12.920  0.00  0.00    +0.000 C 
ATOM     21  O   UNL     1      45.953   9.030  13.301  0.00  0.00    +0.000 OA
ATOM     22  H   UNL     1      48.156   6.814  12.793  0.00  0.00    +0.000 HD
BRANCH  20  23
ATOM     23  C   UNL     1      45.599   6.885  12.395  0.00  0.00    +0.000 A 
ATOM     24  C   UNL     1      44.499   7.197  11.606  0.00  0.00    +0.000 A 
ATOM     25  S   UNL     1      43.653   5.831  11.041  0.00  0.00    +0.000 S 
ATOM     26  C   UNL     1      44.696   4.774  11.871  0.00  0.00    +0.000 A 
ATOM     27  N   UNL     1      44.506   3.430  11.825  0.00  0.00    +0.000 NA
ATOM     28  C   UNL     1      45.352   2.745  12.521  0.00  0.00    +0.000 A 
ATOM     29  N   UNL     1      46.375   3.290  13.256  0.00  0.00    +0.000 N 
ATOM     30  C   UNL     1      46.622   4.640  13.310  0.00  0.00    +0.000 A 
ATOM     31  O   UNL     1      47.571   5.088  13.946  0.00  0.00    +0.000 OA
ATOM     32  C   UNL     1      45.690   5.453  12.554  0.00  0.00    +0.000 A 
ATOM     33  H   UNL     1      47.011   2.697  13.771  0.00  0.00    +0.000 HD
ENDBRANCH  20  23
ENDBRANCH  18  19
ENDBRANCH   4  18
TORSDOF 7
ENDMDL
MODEL 6
REMARK VINA RESULT:    -6.706      1.558      1.803
REMARK INTER + INTRA:         -10.014
REMARK INTER:                  -9.295
REMARK INTRA:                  -0.719
REMARK UNBOUND:                -0.564
REMARK  Name = 
REMARK  8 active torsions:
REMARK  status: ('A' for Active; 'I' for Inactive)
REMARK    1  A    between atoms: C_1  and  N_2
REMARK    2  A    between atoms: N_2  and  C_3
REMARK    3  A    between atoms: N_2  and  C_24
REMARK    4  A    between atoms: C_3  and  C_4
REMARK    5  A    between atoms: C_7  and  C_8
REMARK    6  A    between atoms: C_8  and  N_9
REMARK    7  A    between atoms: C_10  and  C_12
REMARK    8  A    between atoms: C_24  and  C_25
REMARK                            x       y       z     vdW  Elec       q    Type
REMARK                         _______ _______ _______ _____ _____    ______ ____
ROOT
ATOM      1  C   UNL     1      46.367   5.382  12.355  0.00  0.00    +0.000 A 
ATOM      2  C   UNL     1      46.729   5.024  13.661  0.00  0.00    +0.000 A 
ATOM      3  C   UNL     1      47.696   5.759  14.356  0.00  0.00    +0.000 A 
ATOM      4  C   UNL     1      48.293   6.883  13.770  0.00  0.00    +0.000 A 
ATOM      5  C   UNL     1      47.940   7.232  12.461  0.00  0.00    +0.000 A 
ATOM      6  C   UNL     1      46.990   6.489  11.761  0.00  0.00    +0.000 A 
ENDROOT
BRANCH   1   7
ATOM      7  C   UNL     1      45.326   4.593  11.590  0.00  0.00    +0.000 C 
BRANCH   7   9
ATOM      8  C   UNL     1      43.412   6.006  11.388  0.00  0.00    +0.000 C 
ATOM      9  N   UNL     1      44.519   5.386  10.641  0.00  0.00    +0.000 NA
BRANCH   9  10
ATOM     10  C   UNL     1      43.985   4.538   9.544  0.00  0.00    +0.000 C 
BRANCH  10  11
ATOM     11  C   UNL     1      45.051   3.864   8.693  0.00  0.00    +0.000 A 
ATOM     12  N   UNL     1      45.897   4.710   8.029  0.00  0.00    +0.000 NA
ATOM     13  C   UNL     1      46.916   4.162   7.334  0.00  0.00    +0.000 A 
ATOM     14  C   UNL     1      47.139   2.799   7.247  0.00  0.00    +0.000 A 
ATOM     15  C   UNL     1      46.258   1.945   7.904  0.00  0.00    +0.000 A 
ATOM     16  C   UNL     1      45.198   2.476   8.642  0.00  0.00    +0.000 A 
ATOM     17 CL   UNL     1      44.134   1.379   9.438  0.00  0.00    +0.000 Cl
ENDBRANCH  10  11
ENDBRANCH   9  10
ENDBRANCH   7   9
ENDBRANCH   1   7
BRANCH   4  18
ATOM     18  C   UNL     1      49.335   7.681  14.505  0.00  0.00    +0.000 C 
BRANCH  18  19
ATOM     19  N   UNL     1      49.236   7.473  15.928  0.00  0.00    +0.000 N 
ATOM     20  C   UNL     1      48.516   8.328  16.720  0.00  0.00    +0.000 C 
ATOM     21  O   UNL     1      47.889   9.275  16.253  0.00  0.00    +0.000 OA
ATOM     22  H   UNL     1      49.906   6.838  16.349  0.00  0.00    +0.000 HD
BRANCH  20  23
ATOM     23  C   UNL     1      48.480   8.021  18.156  0.00  0.00    +0.000 A 
ATOM     24  C   UNL     1      48.338   9.056  19.071  0.00  0.00    +0.000 A 
ATOM     25  S   UNL     1      48.269   8.532  20.691  0.00  0.00    +0.000 S 
ATOM     26  C   UNL     1      48.478   6.907  20.232  0.00  0.00    +0.000 A 
ATOM     27  N   UNL     1      48.536   5.922  21.165  0.00  0.00    +0.000 NA
ATOM     28  C   UNL     1      48.724   4.738  20.683  0.00  0.00    +0.000 A 
ATOM     29  N   UNL     1      48.854   4.455  19.346  0.00  0.00    +0.000 N 
ATOM     30  C   UNL     1      48.775   5.415  18.366  0.00  0.00    +0.000 A 
ATOM     31  O   UNL     1      48.857   5.118  17.178  0.00  0.00    +0.000 OA
ATOM     32  C   UNL     1      48.577   6.763  18.858  0.00  0.00    +0.000 A 
ATOM     33  H   UNL     1      48.990   3.504  19.032  0.00  0.00    +0.000 HD
ENDBRANCH  20  23
ENDBRANCH  18  19
ENDBRANCH   4  18
TORSDOF 7
ENDMDL
MODEL 7
REMARK VINA RESULT:    -6.698      3.740      5.911
REMARK INTER + INTRA:         -10.003
REMARK INTER:                  -9.389
REMARK INTRA:                  -0.614
REMARK UNBOUND:                -0.564
REMARK  Name = 
REMARK  8 active torsions:
REMARK  status: ('A' for Active; 'I' for Inactive)
REMARK    1  A    between atoms: C_1  and  N_2
REMARK    2  A    between atoms: N_2  and  C_3
REMARK    3  A    between atoms: N_2  and  C_24
REMARK    4  A    between atoms: C_3  and  C_4
REMARK    5  A    between atoms: C_7  and  C_8
REMARK    6  A    between atoms: C_8  and  N_9
REMARK    7  A    between atoms: C_10  and  C_12
REMARK    8  A    between atoms: C_24  and  C_25
REMARK                            x       y       z     vdW  Elec       q    Type
REMARK                         _______ _______ _______ _____ _____    ______ ____
ROOT
ATOM      1  C   UNL     1      45.879   4.391  12.537  0.00  0.00    +0.000 A 
ATOM      2  C   UNL     1      46.502   4.096  13.758  0.00  0.00    +0.000 A 
ATOM      3  C   UNL     1      47.399   5.003  14.334  0.00  0.00    +0.000 A 
ATOM      4  C   UNL     1      47.664   6.232  13.715  0.00  0.00    +0.000 A 
ATOM      5  C   UNL     1      47.050   6.520  12.490  0.00  0.00    +0.000 A 
ATOM      6  C   UNL     1      46.170   5.608  11.907  0.00  0.00    +0.000 A 
ENDROOT
BRANCH   1   7
ATOM      7  C   UNL     1      44.910   3.417  11.901  0.00  0.00    +0.000 C 
BRANCH   7   9
ATOM      8  C   UNL     1      43.228   4.489  10.587  0.00  0.00    +0.000 C 
ATOM      9  N   UNL     1      44.504   3.755  10.523  0.00  0.00    +0.000 NA
BRANCH   9  10
ATOM     10  C   UNL     1      44.352   2.536   9.688  0.00  0.00    +0.000 C 
BRANCH  10  11
ATOM     11  C   UNL     1      45.517   2.267   8.747  0.00  0.00    +0.000 A 
ATOM     12  N   UNL     1      45.820   0.948   8.546  0.00  0.00    +0.000 NA
ATOM     13  C   UNL     1      46.785   0.654   7.650  0.00  0.00    +0.000 A 
ATOM     14  C   UNL     1      47.489   1.610   6.940  0.00  0.00    +0.000 A 
ATOM     15  C   UNL     1      47.191   2.951   7.169  0.00  0.00    +0.000 A 
ATOM     16  C   UNL     1      46.192   3.293   8.082  0.00  0.00    +0.000 A 
ATOM     17 CL   UNL     1      45.860   4.966   8.333  0.00  0.00    +0.000 Cl
ENDBRANCH  10  11
ENDBRANCH   9  10
ENDBRANCH   7   9
ENDBRANCH   1   7
BRANCH   4  18
ATOM     18  C   UNL     1      48.626   7.215  14.322  0.00  0.00    +0.000 C 
BRANCH  18  19
ATOM     19  N   UNL     1      49.331   7.946  13.299  0.00  0.00    +0.000 N 
ATOM     20  C   UNL     1      50.487   8.626  13.583  0.00  0.00    +0.000 C 
ATOM     21  O   UNL     1      50.994   8.606  14.701  0.00  0.00    +0.000 OA
ATOM     22  H   UNL     1      48.825   8.147  12.442  0.00  0.00    +0.000 HD
BRANCH  20  23
ATOM     23  C   UNL     1      51.125   9.334  12.465  0.00  0.00    +0.000 A 
ATOM     24  C   UNL     1      52.493   9.201  12.266  0.00  0.00    +0.000 A 
ATOM     25  S   UNL     1      53.071  10.048  10.905  0.00  0.00    +0.000 S 
ATOM     26  C   UNL     1      51.524  10.665  10.563  0.00  0.00    +0.000 A 
ATOM     27  N   UNL     1      51.326  11.502   9.513  0.00  0.00    +0.000 NA
ATOM     28  C   UNL     1      50.109  11.918   9.382  0.00  0.00    +0.000 A 
ATOM     29  N   UNL     1      49.073  11.563  10.209  0.00  0.00    +0.000 N 
ATOM     30  C   UNL     1      49.221  10.698  11.265  0.00  0.00    +0.000 A 
ATOM     31  O   UNL     1      48.262  10.373  11.959  0.00  0.00    +0.000 OA
ATOM     32  C   UNL     1      50.573  10.213  11.462  0.00  0.00    +0.000 A 
ATOM     33  H   UNL     1      48.140  11.916  10.045  0.00  0.00    +0.000 HD
ENDBRANCH  20  23
ENDBRANCH  18  19
ENDBRANCH   4  18
TORSDOF 7
ENDMDL
MODEL 8
REMARK VINA RESULT:    -6.607      5.355      8.609
REMARK INTER + INTRA:          -9.874
REMARK INTER:                  -9.060
REMARK INTRA:                  -0.814
REMARK UNBOUND:                -0.564
REMARK  Name = 
REMARK  8 active torsions:
REMARK  status: ('A' for Active; 'I' for Inactive)
REMARK    1  A    between atoms: C_1  and  N_2
REMARK    2  A    between atoms: N_2  and  C_3
REMARK    3  A    between atoms: N_2  and  C_24
REMARK    4  A    between atoms: C_3  and  C_4
REMARK    5  A    between atoms: C_7  and  C_8
REMARK    6  A    between atoms: C_8  and  N_9
REMARK    7  A    between atoms: C_10  and  C_12
REMARK    8  A    between atoms: C_24  and  C_25
REMARK                            x       y       z     vdW  Elec       q    Type
REMARK                         _______ _______ _______ _____ _____    ______ ____
ROOT
ATOM      1  C   UNL     1      49.774   9.407  11.382  0.00  0.00    +0.000 A 
ATOM      2  C   UNL     1      49.596   8.083  11.808  0.00  0.00    +0.000 A 
ATOM      3  C   UNL     1      48.391   7.681  12.393  0.00  0.00    +0.000 A 
ATOM      4  C   UNL     1      47.331   8.587  12.534  0.00  0.00    +0.000 A 
ATOM      5  C   UNL     1      47.513   9.912  12.119  0.00  0.00    +0.000 A 
ATOM      6  C   UNL     1      48.722  10.318  11.552  0.00  0.00    +0.000 A 
ENDROOT
BRANCH   1   7
ATOM      7  C   UNL     1      51.074   9.856  10.750  0.00  0.00    +0.000 C 
BRANCH   7   9
ATOM      8  C   UNL     1      53.013   8.996  11.847  0.00  0.00    +0.000 C 
ATOM      9  N   UNL     1      52.124   8.820  10.686  0.00  0.00    +0.000 NA
BRANCH   9  10
ATOM     10  C   UNL     1      52.903   8.916   9.425  0.00  0.00    +0.000 C 
BRANCH  10  11
ATOM     11  C   UNL     1      53.236   7.576   8.786  0.00  0.00    +0.000 A 
ATOM     12  N   UNL     1      53.691   6.611   9.644  0.00  0.00    +0.000 NA
ATOM     13  C   UNL     1      53.913   5.378   9.141  0.00  0.00    +0.000 A 
ATOM     14  C   UNL     1      53.719   5.045   7.813  0.00  0.00    +0.000 A 
ATOM     15  C   UNL     1      53.281   6.039   6.943  0.00  0.00    +0.000 A 
ATOM     16  C   UNL     1      53.031   7.325   7.428  0.00  0.00    +0.000 A 
ATOM     17 CL   UNL     1      52.490   8.522   6.312  0.00  0.00    +0.000 Cl
ENDBRANCH  10  11
ENDBRANCH   9  10
ENDBRANCH   7   9
ENDBRANCH   1   7
BRANCH   4  18
ATOM     18  C   UNL     1      46.030   8.170  13.163  0.00  0.00    +0.000 C 
BRANCH  18  19
ATOM     19  N   UNL     1      45.670   6.832  12.766  0.00  0.00    +0.000 N 
ATOM     20  C   UNL     1      44.807   6.610  11.725  0.00  0.00    +0.000 C 
ATOM     21  O   UNL     1      44.341   7.532  11.060  0.00  0.00    +0.000 OA
ATOM     22  H   UNL     1      45.870   6.085  13.424  0.00  0.00    +0.000 HD
BRANCH  20  23
ATOM     23  C   UNL     1      44.511   5.208  11.403  0.00  0.00    +0.000 A 
ATOM     24  C   UNL     1      43.768   4.446  12.295  0.00  0.00    +0.000 A 
ATOM     25  S   UNL     1      43.475   2.856  11.757  0.00  0.00    +0.000 S 
ATOM     26  C   UNL     1      44.373   3.113  10.335  0.00  0.00    +0.000 A 
ATOM     27  N   UNL     1      44.540   2.116   9.428  0.00  0.00    +0.000 NA
ATOM     28  C   UNL     1      45.266   2.437   8.408  0.00  0.00    +0.000 A 
ATOM     29  N   UNL     1      45.834   3.671   8.216  0.00  0.00    +0.000 N 
ATOM     30  C   UNL     1      45.670   4.716   9.092  0.00  0.00    +0.000 A 
ATOM     31  O   UNL     1      46.161   5.818   8.867  0.00  0.00    +0.000 OA
ATOM     32  C   UNL     1      44.873   4.402  10.261  0.00  0.00    +0.000 A 
ATOM     33  H   UNL     1      46.384   3.862   7.389  0.00  0.00    +0.000 HD
ENDBRANCH  20  23
ENDBRANCH  18  19
ENDBRANCH   4  18
TORSDOF 7
ENDMDL
MODEL 9
REMARK VINA RESULT:    -6.469      3.958      8.671
REMARK INTER + INTRA:          -9.680
REMARK INTER:                  -7.820
REMARK INTRA:                  -1.860
REMARK UNBOUND:                -0.564
REMARK  Name = 
REMARK  8 active torsions:
REMARK  status: ('A' for Active; 'I' for Inactive)
REMARK    1  A    between atoms: C_1  and  N_2
REMARK    2  A    between atoms: N_2  and  C_3
REMARK    3  A    between atoms: N_2  and  C_24
REMARK    4  A    between atoms: C_3  and  C_4
REMARK    5  A    between atoms: C_7  and  C_8
REMARK    6  A    between atoms: C_8  and  N_9
REMARK    7  A    between atoms: C_10  and  C_12
REMARK    8  A    between atoms: C_24  and  C_25
REMARK                            x       y       z     vdW  Elec       q    Type
REMARK                         _______ _______ _______ _____ _____    ______ ____
ROOT
ATOM      1  C   UNL     1      49.702   8.091  18.636  0.00  0.00    +0.000 A 
ATOM      2  C   UNL     1      50.238   7.672  17.411  0.00  0.00    +0.000 A 
ATOM      3  C   UNL     1      49.679   8.110  16.205  0.00  0.00    +0.000 A 
ATOM      4  C   UNL     1      48.596   8.999  16.203  0.00  0.00    +0.000 A 
ATOM      5  C   UNL     1      48.054   9.408  17.428  0.00  0.00    +0.000 A 
ATOM      6  C   UNL     1      48.599   8.957  18.630  0.00  0.00    +0.000 A 
ENDROOT
BRANCH   1   7
ATOM      7  C   UNL     1      50.293   7.622  19.948  0.00  0.00    +0.000 C 
BRANCH   7   9
ATOM      8  C   UNL     1      49.589   7.345  22.212  0.00  0.00    +0.000 C 
ATOM      9  N   UNL     1      49.356   6.898  20.829  0.00  0.00    +0.000 NA
BRANCH   9  10
ATOM     10  C   UNL     1      49.544   5.428  20.727  0.00  0.00    +0.000 C 
BRANCH  10  11
ATOM     11  C   UNL     1      49.220   4.844  19.360  0.00  0.00    +0.000 A 
ATOM     12  N   UNL     1      50.224   4.119  18.776  0.00  0.00    +0.000 NA
ATOM     13  C   UNL     1      49.956   3.505  17.604  0.00  0.00    +0.000 A 
ATOM     14  C   UNL     1      48.734   3.581  16.961  0.00  0.00    +0.000 A 
ATOM     15  C   UNL     1      47.727   4.341  17.549  0.00  0.00    +0.000 A 
ATOM     16  C   UNL     1      47.964   4.983  18.766  0.00  0.00    +0.000 A 
ATOM     17 CL   UNL     1      46.687   5.913  19.456  0.00  0.00    +0.000 Cl
ENDBRANCH  10  11
ENDBRANCH   9  10
ENDBRANCH   7   9
ENDBRANCH   1   7
BRANCH   4  18
ATOM     18  C   UNL     1      47.985   9.477  14.915  0.00  0.00    +0.000 C 
BRANCH  18  19
ATOM     19  N   UNL     1      47.110   8.477  14.356  0.00  0.00    +0.000 N 
ATOM     20  C   UNL     1      46.939   8.362  13.002  0.00  0.00    +0.000 C 
ATOM     21  O   UNL     1      47.554   9.069  12.207  0.00  0.00    +0.000 OA
ATOM     22  H   UNL     1      46.446   8.039  14.988  0.00  0.00    +0.000 HD
BRANCH  20  23
ATOM     23  C   UNL     1      46.027   7.307  12.541  0.00  0.00    +0.000 A 
ATOM     24  C   UNL     1      44.912   7.652  11.786  0.00  0.00    +0.000 A 
ATOM     25  S   UNL     1      43.981   6.313  11.293  0.00  0.00    +0.000 S 
ATOM     26  C   UNL     1      45.004   5.229  12.113  0.00  0.00    +0.000 A 
ATOM     27  N   UNL     1      44.747   3.896  12.113  0.00  0.00    +0.000 NA
ATOM     28  C   UNL     1      45.587   3.189  12.796  0.00  0.00    +0.000 A 
ATOM     29  N   UNL     1      46.663   3.703  13.474  0.00  0.00    +0.000 N 
ATOM     30  C   UNL     1      46.977   5.041  13.480  0.00  0.00    +0.000 A 
ATOM     31  O   UNL     1      47.971   5.458  14.066  0.00  0.00    +0.000 OA
ATOM     32  C   UNL     1      46.055   5.877  12.737  0.00  0.00    +0.000 A 
ATOM     33  H   UNL     1      47.290   3.094  13.982  0.00  0.00    +0.000 HD
ENDBRANCH  20  23
ENDBRANCH  18  19
ENDBRANCH   4  18
TORSDOF 7
ENDMDL
