MODEL 1
REMARK VINA RESULT:    -8.262      0.000      0.000
REMARK INTER + INTRA:         -12.895
REMARK INTER:                 -11.642
REMARK INTRA:                  -1.253
REMARK UNBOUND:                -1.253
REMARK  Name = 
REMARK  8 active torsions:
REMARK  status: ('A' for Active; 'I' for Inactive)
REMARK    1  A    between atoms: C_1  and  N_2
REMARK    2  A    between atoms: C_4  and  C_5
REMARK    3  A    between atoms: N_7  and  C_8
REMARK    4  A    between atoms: C_8  and  C_9
REMARK    5  A    between atoms: C_12  and  C_13
REMARK    6  A    between atoms: C_13  and  O_14
REMARK    7  A    between atoms: O_14  and  C_15
REMARK    8  A    between atoms: C_15  and  C_16
REMARK                            x       y       z     vdW  Elec       q    Type
REMARK                         _______ _______ _______ _____ _____    ______ ____
ROOT
ATOM      1  C   UNL     1      46.963   8.167  13.109  0.00  0.00    +0.000 C 
ENDROOT
BRANCH   1   2
ATOM      2  C   UNL     1      46.166   7.140  12.351  0.00  0.00    +0.000 A 
ATOM      3  C   UNL     1      46.608   6.671  11.107  0.00  0.00    +0.000 A 
ATOM      4  C   UNL     1      45.877   5.702  10.414  0.00  0.00    +0.000 A 
ATOM      5  C   UNL     1      44.686   5.189  10.944  0.00  0.00    +0.000 A 
ATOM      6  C   UNL     1      44.238   5.669  12.182  0.00  0.00    +0.000 A 
ATOM      7  C   UNL     1      44.969   6.638  12.876  0.00  0.00    +0.000 A 
BRANCH   5   8
ATOM      8  C   UNL     1      43.895   4.152  10.189  0.00  0.00    +0.000 C 
BRANCH   8   9
ATOM      9  O   UNL     1      44.538   2.889  10.320  0.00  0.00    +0.000 OA
BRANCH   9  10
ATOM     10  C   UNL     1      44.367   2.094   9.144  0.00  0.00    +0.000 C 
BRANCH  10  11
ATOM     11  C   UNL     1      45.571   2.187   8.233  0.00  0.00    +0.000 A 
ATOM     12  C   UNL     1      45.904   3.385   7.605  0.00  0.00    +0.000 A 
ATOM     13  C   UNL     1      47.036   3.434   6.796  0.00  0.00    +0.000 A 
ATOM     14  C   UNL     1      47.813   2.293   6.645  0.00  0.00    +0.000 A 
ATOM     15  C   UNL     1      47.426   1.146   7.317  0.00  0.00    +0.000 A 
ATOM     16  N   UNL     1      46.333   1.069   8.109  0.00  0.00    +0.000 NA
ENDBRANCH  10  11
ENDBRANCH   9  10
ENDBRANCH   8   9
ENDBRANCH   5   8
ENDBRANCH   1   2
BRANCH   1  19
ATOM     17  C   UNL     1      48.524   6.989  14.571  0.00  0.00    +0.000 C 
ATOM     18  O   UNL     1      49.304   6.813  13.643  0.00  0.00    +0.000 OA
ATOM     19  N   UNL     1      47.349   7.693  14.416  0.00  0.00    +0.000 N 
ATOM     20  H   UNL     1      46.678   7.733  15.169  0.00  0.00    +0.000 HD
BRANCH  17  24
ATOM     21  C   UNL     1      50.317   6.636  19.212  0.00  0.00    +0.000 C 
ATOM     22  N   UNL     1      49.596   6.336  17.996  0.00  0.00    +0.000 N 
ATOM     23  C   UNL     1      49.527   7.133  16.887  0.00  0.00    +0.000 A 
ATOM     24  C   UNL     1      48.769   6.482  15.918  0.00  0.00    +0.000 A 
ATOM     25  C   UNL     1      48.349   5.231  16.501  0.00  0.00    +0.000 A 
ATOM     26  C   UNL     1      47.586   4.111  16.174  0.00  0.00    +0.000 A 
ATOM     27 CL   UNL     1      46.756   4.002  14.702  0.00  0.00    +0.000 Cl
ATOM     28  N   UNL     1      47.400   3.092  17.033  0.00  0.00    +0.000 NA
ATOM     29  C   UNL     1      47.991   3.190  18.229  0.00  0.00    +0.000 A 
ATOM     30  N   UNL     1      48.744   4.200  18.688  0.00  0.00    +0.000 NA
ATOM     31  C   UNL     1      48.884   5.187  17.786  0.00  0.00    +0.000 A 
ENDBRANCH  17  24
ENDBRANCH   1  19
TORSDOF 7
ENDMDL
MODEL 2
REMARK VINA RESULT:    -7.957      2.085      2.785
REMARK INTER + INTRA:         -12.466
REMARK INTER:                 -11.537
REMARK INTRA:                  -0.929
REMARK UNBOUND:                -1.253
REMARK  Name = 
REMARK  8 active torsions:
REMARK  status: ('A' for Active; 'I' for Inactive)
REMARK    1  A    between atoms: C_1  and  N_2
REMARK    2  A    between atoms: C_4  and  C_5
REMARK    3  A    between atoms: N_7  and  C_8
REMARK    4  A    between atoms: C_8  and  C_9
REMARK    5  A    between atoms: C_12  and  C_13
REMARK    6  A    between atoms: C_13  and  O_14
REMARK    7  A    between atoms: O_14  and  C_15
REMARK    8  A    between atoms: C_15  and  C_16
REMARK                            x       y       z     vdW  Elec       q    Type
REMARK                         _______ _______ _______ _____ _____    ______ ____
ROOT
ATOM      1  C   UNL     1      48.273   6.628  13.674  0.00  0.00    +0.000 C 
ENDROOT
BRANCH   1   2
ATOM      2  C   UNL     1      47.092   6.026  12.962  0.00  0.00    +0.000 A 
ATOM      3  C   UNL     1      46.473   4.870  13.456  0.00  0.00    +0.000 A 
ATOM      4  C   UNL     1      45.364   4.325  12.805  0.00  0.00    +0.000 A 
ATOM      5  C   UNL     1      44.858   4.915  11.640  0.00  0.00    +0.000 A 
ATOM      6  C   UNL     1      45.485   6.062  11.138  0.00  0.00    +0.000 A 
ATOM      7  C   UNL     1      46.595   6.610  11.790  0.00  0.00    +0.000 A 
BRANCH   5   8
ATOM      8  C   UNL     1      43.668   4.317  10.933  0.00  0.00    +0.000 C 
BRANCH   8   9
ATOM      9  O   UNL     1      44.049   3.945   9.612  0.00  0.00    +0.000 OA
BRANCH   9  10
ATOM     10  C   UNL     1      44.568   2.613   9.578  0.00  0.00    +0.000 C 
BRANCH  10  11
ATOM     11  C   UNL     1      45.532   2.424   8.429  0.00  0.00    +0.000 A 
ATOM     12  C   UNL     1      45.788   3.457   7.530  0.00  0.00    +0.000 A 
ATOM     13  C   UNL     1      46.703   3.250   6.501  0.00  0.00    +0.000 A 
ATOM     14  C   UNL     1      47.349   2.024   6.404  0.00  0.00    +0.000 A 
ATOM     15  C   UNL     1      47.055   1.055   7.346  0.00  0.00    +0.000 A 
ATOM     16  N   UNL     1      46.171   1.227   8.355  0.00  0.00    +0.000 NA
ENDBRANCH  10  11
ENDBRANCH   9  10
ENDBRANCH   8   9
ENDBRANCH   5   8
ENDBRANCH   1   2
BRANCH   1  19
ATOM     17  C   UNL     1      49.226   6.559  15.921  0.00  0.00    +0.000 C 
ATOM     18  O   UNL     1      50.363   6.639  15.473  0.00  0.00    +0.000 OA
ATOM     19  N   UNL     1      48.114   6.591  15.108  0.00  0.00    +0.000 N 
ATOM     20  H   UNL     1      47.197   6.419  15.494  0.00  0.00    +0.000 HD
BRANCH  17  24
ATOM     21  C   UNL     1      48.767   4.556  20.466  0.00  0.00    +0.000 C 
ATOM     22  N   UNL     1      48.736   5.509  19.380  0.00  0.00    +0.000 N 
ATOM     23  C   UNL     1      49.179   5.287  18.106  0.00  0.00    +0.000 A 
ATOM     24  C   UNL     1      48.947   6.432  17.349  0.00  0.00    +0.000 A 
ATOM     25  C   UNL     1      48.348   7.396  18.239  0.00  0.00    +0.000 A 
ATOM     26  C   UNL     1      47.882   8.709  18.224  0.00  0.00    +0.000 A 
ATOM     27 CL   UNL     1      48.014   9.681  16.843  0.00  0.00    +0.000 Cl
ATOM     28  N   UNL     1      47.373   9.305  19.317  0.00  0.00    +0.000 NA
ATOM     29  C   UNL     1      47.323   8.576  20.439  0.00  0.00    +0.000 A 
ATOM     30  N   UNL     1      47.736   7.312  20.611  0.00  0.00    +0.000 NA
ATOM     31  C   UNL     1      48.239   6.779  19.483  0.00  0.00    +0.000 A 
ENDBRANCH  17  24
ENDBRANCH   1  19
TORSDOF 7
ENDMDL
MODEL 3
REMARK VINA RESULT:    -7.952      1.673      2.057
REMARK INTER + INTRA:         -12.459
REMARK INTER:                 -11.450
REMARK INTRA:                  -1.009
REMARK UNBOUND:                -1.253
REMARK  Name = 
REMARK  8 active torsions:
REMARK  status: ('A' for Active; 'I' for Inactive)
REMARK    1  A    between atoms: C_1  and  N_2
REMARK    2  A    between atoms: C_4  and  C_5
REMARK    3  A    between atoms: N_7  and  C_8
REMARK    4  A    between atoms: C_8  and  C_9
REMARK    5  A    between atoms: C_12  and  C_13
REMARK    6  A    between atoms: C_13  and  O_14
REMARK    7  A    between atoms: O_14  and  C_15
REMARK    8  A    between atoms: C_15  and  C_16
REMARK                            x       y       z     vdW  Elec       q    Type
REMARK                         _______ _______ _______ _____ _____    ______ ____
ROOT
ATOM      1  C   UNL     1      48.239   6.801  13.394  0.00  0.00    +0.000 C 
ENDROOT
BRANCH   1   2
ATOM      2  C   UNL     1      47.052   6.142  12.745  0.00  0.00    +0.000 A 
ATOM      3  C   UNL     1      46.322   5.158  13.424  0.00  0.00    +0.000 A 
ATOM      4  C   UNL     1      45.208   4.562  12.828  0.00  0.00    +0.000 A 
ATOM      5  C   UNL     1      44.807   4.928  11.536  0.00  0.00    +0.000 A 
ATOM      6  C   UNL     1      45.545   5.903  10.853  0.00  0.00    +0.000 A 
ATOM      7  C   UNL     1      46.659   6.500  11.449  0.00  0.00    +0.000 A 
BRANCH   5   8
ATOM      8  C   UNL     1      43.611   4.275  10.891  0.00  0.00    +0.000 C 
BRANCH   8   9
ATOM      9  O   UNL     1      43.977   3.808   9.597  0.00  0.00    +0.000 OA
BRANCH   9  10
ATOM     10  C   UNL     1      44.626   2.536   9.669  0.00  0.00    +0.000 C 
BRANCH  10  11
ATOM     11  C   UNL     1      45.582   2.336   8.514  0.00  0.00    +0.000 A 
ATOM     12  C   UNL     1      45.958   3.404   7.701  0.00  0.00    +0.000 A 
ATOM     13  C   UNL     1      46.861   3.181   6.665  0.00  0.00    +0.000 A 
ATOM     14  C   UNL     1      47.376   1.905   6.475  0.00  0.00    +0.000 A 
ATOM     15  C   UNL     1      46.968   0.902   7.337  0.00  0.00    +0.000 A 
ATOM     16  N   UNL     1      46.093   1.087   8.350  0.00  0.00    +0.000 NA
ENDBRANCH  10  11
ENDBRANCH   9  10
ENDBRANCH   8   9
ENDBRANCH   5   8
ENDBRANCH   1   2
BRANCH   1  19
ATOM     17  C   UNL     1      48.997   6.918  15.712  0.00  0.00    +0.000 C 
ATOM     18  O   UNL     1      50.128   6.576  15.390  0.00  0.00    +0.000 OA
ATOM     19  N   UNL     1      47.995   7.102  14.784  0.00  0.00    +0.000 N 
ATOM     20  H   UNL     1      47.049   7.282  15.087  0.00  0.00    +0.000 HD
BRANCH  17  24
ATOM     21  C   UNL     1      47.640   9.343  19.854  0.00  0.00    +0.000 C 
ATOM     22  N   UNL     1      48.014   8.279  18.951  0.00  0.00    +0.000 N 
ATOM     23  C   UNL     1      48.241   8.409  17.609  0.00  0.00    +0.000 A 
ATOM     24  C   UNL     1      48.612   7.168  17.099  0.00  0.00    +0.000 A 
ATOM     25  C   UNL     1      48.581   6.246  18.206  0.00  0.00    +0.000 A 
ATOM     26  C   UNL     1      48.794   4.893  18.468  0.00  0.00    +0.000 A 
ATOM     27 CL   UNL     1      49.155   3.797  17.228  0.00  0.00    +0.000 Cl
ATOM     28  N   UNL     1      48.649   4.366  19.697  0.00  0.00    +0.000 NA
ATOM     29  C   UNL     1      48.295   5.204  20.679  0.00  0.00    +0.000 A 
ATOM     30  N   UNL     1      48.051   6.519  20.584  0.00  0.00    +0.000 NA
ATOM     31  C   UNL     1      48.206   6.979  19.330  0.00  0.00    +0.000 A 
ENDBRANCH  17  24
ENDBRANCH   1  19
TORSDOF 7
ENDMDL
MODEL 4
REMARK VINA RESULT:    -7.229      2.773      4.874
REMARK INTER + INTRA:         -11.440
REMARK INTER:                 -10.300
REMARK INTRA:                  -1.140
REMARK UNBOUND:                -1.253
REMARK  Name = 
REMARK  8 active torsions:
REMARK  status: ('A' for Active; 'I' for Inactive)
REMARK    1  A    between atoms: C_1  and  N_2
REMARK    2  A    between atoms: C_4  and  C_5
REMARK    3  A    between atoms: N_7  and  C_8
REMARK    4  A    between atoms: C_8  and  C_9
REMARK    5  A    between atoms: C_12  and  C_13
REMARK    6  A    between atoms: C_13  and  O_14
REMARK    7  A    between atoms: O_14  and  C_15
REMARK    8  A    between atoms: C_15  and  C_16
REMARK                            x       y       z     vdW  Elec       q    Type
REMARK                         _______ _______ _______ _____ _____    ______ ____
ROOT
ATOM      1  C   UNL     1      47.522   5.570  14.605  0.00  0.00    +0.000 C 
ENDROOT
BRANCH   1   2
ATOM      2  C   UNL     1      46.432   4.948  13.774  0.00  0.00    +0.000 A 
ATOM      3  C   UNL     1      45.269   5.666  13.470  0.00  0.00    +0.000 A 
ATOM      4  C   UNL     1      44.268   5.093  12.681  0.00  0.00    +0.000 A 
ATOM      5  C   UNL     1      44.403   3.788  12.190  0.00  0.00    +0.000 A 
ATOM      6  C   UNL     1      45.561   3.066  12.507  0.00  0.00    +0.000 A 
ATOM      7  C   UNL     1      46.563   3.638  13.295  0.00  0.00    +0.000 A 
BRANCH   5   8
ATOM      8  C   UNL     1      43.316   3.169  11.348  0.00  0.00    +0.000 C 
BRANCH   8   9
ATOM      9  O   UNL     1      43.904   2.556  10.205  0.00  0.00    +0.000 OA
BRANCH   9  10
ATOM     10  C   UNL     1      44.260   3.530   9.220  0.00  0.00    +0.000 C 
BRANCH  10  11
ATOM     11  C   UNL     1      45.371   3.029   8.324  0.00  0.00    +0.000 A 
ATOM     12  C   UNL     1      45.858   1.729   8.444  0.00  0.00    +0.000 A 
ATOM     13  C   UNL     1      46.864   1.301   7.581  0.00  0.00    +0.000 A 
ATOM     14  C   UNL     1      47.347   2.173   6.614  0.00  0.00    +0.000 A 
ATOM     15  C   UNL     1      46.798   3.442   6.547  0.00  0.00    +0.000 A 
ATOM     16  N   UNL     1      45.822   3.886   7.371  0.00  0.00    +0.000 NA
ENDBRANCH  10  11
ENDBRANCH   9  10
ENDBRANCH   8   9
ENDBRANCH   5   8
ENDBRANCH   1   2
BRANCH   1  19
ATOM     17  C   UNL     1      48.565   7.385  13.348  0.00  0.00    +0.000 C 
ATOM     18  O   UNL     1      49.178   6.588  12.649  0.00  0.00    +0.000 OA
ATOM     19  N   UNL     1      47.679   6.977  14.322  0.00  0.00    +0.000 N 
ATOM     20  H   UNL     1      47.268   7.651  14.950  0.00  0.00    +0.000 HD
BRANCH  17  24
ATOM     21  C   UNL     1      50.455  11.985  13.733  0.00  0.00    +0.000 C 
ATOM     22  N   UNL     1      49.569  10.892  13.404  0.00  0.00    +0.000 N 
ATOM     23  C   UNL     1      49.812   9.567  13.635  0.00  0.00    +0.000 A 
ATOM     24  C   UNL     1      48.708   8.832  13.209  0.00  0.00    +0.000 A 
ATOM     25  C   UNL     1      47.765   9.785  12.677  0.00  0.00    +0.000 A 
ATOM     26  C   UNL     1      46.508   9.811  12.076  0.00  0.00    +0.000 A 
ATOM     27 CL   UNL     1      45.669   8.385  11.710  0.00  0.00    +0.000 Cl
ATOM     28  N   UNL     1      45.922  10.956  11.681  0.00  0.00    +0.000 NA
ATOM     29  C   UNL     1      46.600  12.090  11.898  0.00  0.00    +0.000 A 
ATOM     30  N   UNL     1      47.812  12.225  12.455  0.00  0.00    +0.000 NA
ATOM     31  C   UNL     1      48.342  11.044  12.819  0.00  0.00    +0.000 A 
ENDBRANCH  17  24
ENDBRANCH   1  19
TORSDOF 7
ENDMDL
MODEL 5
REMARK VINA RESULT:    -7.072      2.415      3.454
REMARK INTER + INTRA:         -11.219
REMARK INTER:                 -10.232
REMARK INTRA:                  -0.987
REMARK UNBOUND:                -1.253
REMARK  Name = 
REMARK  8 active torsions:
REMARK  status: ('A' for Active; 'I' for Inactive)
REMARK    1  A    between atoms: C_1  and  N_2
REMARK    2  A    between atoms: C_4  and  C_5
REMARK    3  A    between atoms: N_7  and  C_8
REMARK    4  A    between atoms: C_8  and  C_9
REMARK    5  A    between atoms: C_12  and  C_13
REMARK    6  A    between atoms: C_13  and  O_14
REMARK    7  A    between atoms: O_14  and  C_15
REMARK    8  A    between atoms: C_15  and  C_16
REMARK                            x       y       z     vdW  Elec       q    Type
REMARK                         _______ _______ _______ _____ _____    ______ ____
ROOT
ATOM      1  C   UNL     1      47.576   3.932  15.281  0.00  0.00    +0.000 C 
ENDROOT
BRANCH   1   2
ATOM      2  C   UNL     1      46.690   4.225  14.100  0.00  0.00    +0.000 A 
ATOM      3  C   UNL     1      46.207   3.186  13.295  0.00  0.00    +0.000 A 
ATOM      4  C   UNL     1      45.368   3.458  12.211  0.00  0.00    +0.000 A 
ATOM      5  C   UNL     1      45.005   4.776  11.902  0.00  0.00    +0.000 A 
ATOM      6  C   UNL     1      45.501   5.816  12.699  0.00  0.00    +0.000 A 
ATOM      7  C   UNL     1      46.339   5.544  13.784  0.00  0.00    +0.000 A 
BRANCH   5   8
ATOM      8  C   UNL     1      44.110   5.067  10.725  0.00  0.00    +0.000 C 
BRANCH   8   9
ATOM      9  O   UNL     1      44.236   4.017   9.772  0.00  0.00    +0.000 OA
BRANCH   9  10
ATOM     10  C   UNL     1      44.959   4.449   8.616  0.00  0.00    +0.000 C 
BRANCH  10  11
ATOM     11  C   UNL     1      45.759   3.318   8.009  0.00  0.00    +0.000 A 
ATOM     12  C   UNL     1      46.631   3.546   6.946  0.00  0.00    +0.000 A 
ATOM     13  C   UNL     1      47.368   2.482   6.434  0.00  0.00    +0.000 A 
ATOM     14  C   UNL     1      47.228   1.223   7.003  0.00  0.00    +0.000 A 
ATOM     15  C   UNL     1      46.355   1.081   8.068  0.00  0.00    +0.000 A 
ATOM     16  N   UNL     1      45.626   2.095   8.586  0.00  0.00    +0.000 NA
ENDBRANCH  10  11
ENDBRANCH   9  10
ENDBRANCH   8   9
ENDBRANCH   5   8
ENDBRANCH   1   2
BRANCH   1  19
ATOM     17  C   UNL     1      48.494   5.631  16.776  0.00  0.00    +0.000 C 
ATOM     18  O   UNL     1      49.596   5.539  16.250  0.00  0.00    +0.000 OA
ATOM     19  N   UNL     1      47.409   4.905  16.334  0.00  0.00    +0.000 N 
ATOM     20  H   UNL     1      46.541   4.923  16.850  0.00  0.00    +0.000 HD
BRANCH  17  24
ATOM     21  C   UNL     1      47.452   7.180  21.401  0.00  0.00    +0.000 C 
ATOM     22  N   UNL     1      47.747   7.194  19.986  0.00  0.00    +0.000 N 
ATOM     23  C   UNL     1      48.039   6.101  19.218  0.00  0.00    +0.000 A 
ATOM     24  C   UNL     1      48.227   6.519  17.904  0.00  0.00    +0.000 A 
ATOM     25  C   UNL     1      48.054   7.951  17.903  0.00  0.00    +0.000 A 
ATOM     26  C   UNL     1      48.108   9.026  17.017  0.00  0.00    +0.000 A 
ATOM     27 CL   UNL     1      48.553   8.818  15.396  0.00  0.00    +0.000 Cl
ATOM     28  N   UNL     1      47.888  10.294  17.410  0.00  0.00    +0.000 NA
ATOM     29  C   UNL     1      47.603  10.488  18.703  0.00  0.00    +0.000 A 
ATOM     30  N   UNL     1      47.522   9.563  19.670  0.00  0.00    +0.000 NA
ATOM     31  C   UNL     1      47.759   8.321  19.213  0.00  0.00    +0.000 A 
ENDBRANCH  17  24
ENDBRANCH   1  19
TORSDOF 7
ENDMDL
MODEL 6
REMARK VINA RESULT:    -7.017      2.317      3.236
REMARK INTER + INTRA:         -11.141
REMARK INTER:                 -10.336
REMARK INTRA:                  -0.805
REMARK UNBOUND:                -1.253
REMARK  Name = 
REMARK  8 active torsions:
REMARK  status: ('A' for Active; 'I' for Inactive)
REMARK    1  A    between atoms: C_1  and  N_2
REMARK    2  A    between atoms: C_4  and  C_5
REMARK    3  A    between atoms: N_7  and  C_8
REMARK    4  A    between atoms: C_8  and  C_9
REMARK    5  A    between atoms: C_12  and  C_13
REMARK    6  A    between atoms: C_13  and  O_14
REMARK    7  A    between atoms: O_14  and  C_15
REMARK    8  A    between atoms: C_15  and  C_16
REMARK                            x       y       z     vdW  Elec       q    Type
REMARK                         _______ _______ _______ _____ _____    ______ ____
ROOT
ATOM      1  C   UNL     1      47.333   4.394  15.215  0.00  0.00    +0.000 C 
ENDROOT
BRANCH   1   2
ATOM      2  C   UNL     1      46.467   4.463  13.986  0.00  0.00    +0.000 A 
ATOM      3  C   UNL     1      46.155   3.302  13.268  0.00  0.00    +0.000 A 
ATOM      4  C   UNL     1      45.334   3.365  12.139  0.00  0.00    +0.000 A 
ATOM      5  C   UNL     1      44.816   4.590  11.699  0.00  0.00    +0.000 A 
ATOM      6  C   UNL     1      45.139   5.752  12.411  0.00  0.00    +0.000 A 
ATOM      7  C   UNL     1      45.960   5.690  13.540  0.00  0.00    +0.000 A 
BRANCH   5   8
ATOM      8  C   UNL     1      43.939   4.656  10.474  0.00  0.00    +0.000 C 
BRANCH   8   9
ATOM      9  O   UNL     1      44.219   3.537   9.640  0.00  0.00    +0.000 OA
BRANCH   9  10
ATOM     10  C   UNL     1      44.565   3.950   8.316  0.00  0.00    +0.000 C 
BRANCH  10  11
ATOM     11  C   UNL     1      45.627   3.055   7.717  0.00  0.00    +0.000 A 
ATOM     12  C   UNL     1      46.418   3.492   6.656  0.00  0.00    +0.000 A 
ATOM     13  C   UNL     1      47.402   2.646   6.152  0.00  0.00    +0.000 A 
ATOM     14  C   UNL     1      47.583   1.394   6.727  0.00  0.00    +0.000 A 
ATOM     15  C   UNL     1      46.770   1.042   7.790  0.00  0.00    +0.000 A 
ATOM     16  N   UNL     1      45.806   1.841   8.300  0.00  0.00    +0.000 NA
ENDBRANCH  10  11
ENDBRANCH   9  10
ENDBRANCH   8   9
ENDBRANCH   5   8
ENDBRANCH   1   2
BRANCH   1  19
ATOM     17  C   UNL     1      48.855   5.877  16.418  0.00  0.00    +0.000 C 
ATOM     18  O   UNL     1      49.643   4.960  16.611  0.00  0.00    +0.000 OA
ATOM     19  N   UNL     1      47.695   5.707  15.693  0.00  0.00    +0.000 N 
ATOM     20  H   UNL     1      47.016   6.452  15.639  0.00  0.00    +0.000 HD
BRANCH  17  24
ATOM     21  C   UNL     1      50.607  10.531  16.811  0.00  0.00    +0.000 C 
ATOM     22  N   UNL     1      49.883   9.312  17.092  0.00  0.00    +0.000 N 
ATOM     23  C   UNL     1      49.849   8.199  16.298  0.00  0.00    +0.000 A 
ATOM     24  C   UNL     1      49.074   7.229  16.927  0.00  0.00    +0.000 A 
ATOM     25  C   UNL     1      48.607   7.814  18.160  0.00  0.00    +0.000 A 
ATOM     26  C   UNL     1      47.808   7.489  19.254  0.00  0.00    +0.000 A 
ATOM     27 CL   UNL     1      46.983   6.012  19.341  0.00  0.00    +0.000 Cl
ATOM     28  N   UNL     1      47.582   8.350  20.262  0.00  0.00    +0.000 NA
ATOM     29  C   UNL     1      48.168   9.550  20.179  0.00  0.00    +0.000 A 
ATOM     30  N   UNL     1      48.954  10.009  19.193  0.00  0.00    +0.000 NA
ATOM     31  C   UNL     1      49.133   9.103  18.216  0.00  0.00    +0.000 A 
ENDBRANCH  17  24
ENDBRANCH   1  19
TORSDOF 7
ENDMDL
MODEL 7
REMARK VINA RESULT:    -6.885      1.898      2.239
REMARK INTER + INTRA:         -10.956
REMARK INTER:                  -9.892
REMARK INTRA:                  -1.063
REMARK UNBOUND:                -1.253
REMARK  Name = 
REMARK  8 active torsions:
REMARK  status: ('A' for Active; 'I' for Inactive)
REMARK    1  A    between atoms: C_1  and  N_2
REMARK    2  A    between atoms: C_4  and  C_5
REMARK    3  A    between atoms: N_7  and  C_8
REMARK    4  A    between atoms: C_8  and  C_9
REMARK    5  A    between atoms: C_12  and  C_13
REMARK    6  A    between atoms: C_13  and  O_14
REMARK    7  A    between atoms: O_14  and  C_15
REMARK    8  A    between atoms: C_15  and  C_16
REMARK                            x       y       z     vdW  Elec       q    Type
REMARK                         _______ _______ _______ _____ _____    ______ ____
ROOT
ATOM      1  C   UNL     1      47.731   8.095  13.359  0.00  0.00    +0.000 C 
ENDROOT
BRANCH   1   2
ATOM      2  C   UNL     1      46.896   6.938  12.883  0.00  0.00    +0.000 A 
ATOM      3  C   UNL     1      46.030   7.084  11.792  0.00  0.00    +0.000 A 
ATOM      4  C   UNL     1      45.271   6.002  11.338  0.00  0.00    +0.000 A 
ATOM      5  C   UNL     1      45.353   4.755  11.972  0.00  0.00    +0.000 A 
ATOM      6  C   UNL     1      46.209   4.614  13.071  0.00  0.00    +0.000 A 
ATOM      7  C   UNL     1      46.970   5.695  13.525  0.00  0.00    +0.000 A 
BRANCH   5   8
ATOM      8  C   UNL     1      44.524   3.593  11.487  0.00  0.00    +0.000 C 
BRANCH   8   9
ATOM      9  O   UNL     1      44.395   3.672  10.071  0.00  0.00    +0.000 OA
BRANCH   9  10
ATOM     10  C   UNL     1      44.451   2.375   9.472  0.00  0.00    +0.000 C 
BRANCH  10  11
ATOM     11  C   UNL     1      45.537   2.297   8.422  0.00  0.00    +0.000 A 
ATOM     12  C   UNL     1      45.912   3.423   7.692  0.00  0.00    +0.000 A 
ATOM     13  C   UNL     1      46.935   3.313   6.754  0.00  0.00    +0.000 A 
ATOM     14  C   UNL     1      47.568   2.089   6.579  0.00  0.00    +0.000 A 
ATOM     15  C   UNL     1      47.151   1.022   7.357  0.00  0.00    +0.000 A 
ATOM     16  N   UNL     1      46.160   1.098   8.274  0.00  0.00    +0.000 NA
ENDBRANCH  10  11
ENDBRANCH   9  10
ENDBRANCH   8   9
ENDBRANCH   5   8
ENDBRANCH   1   2
BRANCH   1  19
ATOM     17  C   UNL     1      49.016   8.092  15.435  0.00  0.00    +0.000 C 
ATOM     18  O   UNL     1      48.173   8.783  15.993  0.00  0.00    +0.000 OA
ATOM     19  N   UNL     1      48.866   7.658  14.135  0.00  0.00    +0.000 N 
ATOM     20  H   UNL     1      49.622   7.179  13.670  0.00  0.00    +0.000 HD
BRANCH  17  24
ATOM     21  C   UNL     1      53.751   8.051  17.005  0.00  0.00    +0.000 C 
ATOM     22  N   UNL     1      52.380   7.655  16.779  0.00  0.00    +0.000 N 
ATOM     23  C   UNL     1      51.425   8.397  16.142  0.00  0.00    +0.000 A 
ATOM     24  C   UNL     1      50.246   7.659  16.095  0.00  0.00    +0.000 A 
ATOM     25  C   UNL     1      50.518   6.411  16.764  0.00  0.00    +0.000 A 
ATOM     26  C   UNL     1      49.865   5.233  17.121  0.00  0.00    +0.000 A 
ATOM     27 CL   UNL     1      48.213   5.009  16.820  0.00  0.00    +0.000 Cl
ATOM     28  N   UNL     1      50.481   4.242  17.791  0.00  0.00    +0.000 NA
ATOM     29  C   UNL     1      51.770   4.429  18.100  0.00  0.00    +0.000 A 
ATOM     30  N   UNL     1      52.528   5.502  17.833  0.00  0.00    +0.000 NA
ATOM     31  C   UNL     1      51.850   6.456  17.170  0.00  0.00    +0.000 A 
ENDBRANCH  17  24
ENDBRANCH   1  19
TORSDOF 7
ENDMDL
MODEL 8
REMARK VINA RESULT:    -6.698      3.599      5.826
REMARK INTER + INTRA:         -10.692
REMARK INTER:                 -10.091
REMARK INTRA:                  -0.601
REMARK UNBOUND:                -1.253
REMARK  Name = 
REMARK  8 active torsions:
REMARK  status: ('A' for Active; 'I' for Inactive)
REMARK    1  A    between atoms: C_1  and  N_2
REMARK    2  A    between atoms: C_4  and  C_5
REMARK    3  A    between atoms: N_7  and  C_8
REMARK    4  A    between atoms: C_8  and  C_9
REMARK    5  A    between atoms: C_12  and  C_13
REMARK    6  A    between atoms: C_13  and  O_14
REMARK    7  A    between atoms: O_14  and  C_15
REMARK    8  A    between atoms: C_15  and  C_16
REMARK                            x       y       z     vdW  Elec       q    Type
REMARK                         _______ _______ _______ _____ _____    ______ ____
ROOT
ATOM      1  C   UNL     1      47.490   6.825  13.738  0.00  0.00    +0.000 C 
ENDROOT
BRANCH   1   2
ATOM      2  C   UNL     1      46.469   5.964  13.043  0.00  0.00    +0.000 A 
ATOM      3  C   UNL     1      45.653   6.497  12.038  0.00  0.00    +0.000 A 
ATOM      4  C   UNL     1      44.720   5.691  11.379  0.00  0.00    +0.000 A 
ATOM      5  C   UNL     1      44.576   4.340  11.720  0.00  0.00    +0.000 A 
ATOM      6  C   UNL     1      45.384   3.812  12.735  0.00  0.00    +0.000 A 
ATOM      7  C   UNL     1      46.317   4.617  13.394  0.00  0.00    +0.000 A 
BRANCH   5   8
ATOM      8  C   UNL     1      43.561   3.476  11.015  0.00  0.00    +0.000 C 
BRANCH   8   9
ATOM      9  O   UNL     1      43.954   3.309   9.657  0.00  0.00    +0.000 OA
BRANCH   9  10
ATOM     10  C   UNL     1      44.679   2.090   9.473  0.00  0.00    +0.000 C 
BRANCH  10  11
ATOM     11  C   UNL     1      45.672   2.203   8.338  0.00  0.00    +0.000 A 
ATOM     12  C   UNL     1      45.813   3.391   7.624  0.00  0.00    +0.000 A 
ATOM     13  C   UNL     1      46.757   3.461   6.603  0.00  0.00    +0.000 A 
ATOM     14  C   UNL     1      47.546   2.350   6.331  0.00  0.00    +0.000 A 
ATOM     15  C   UNL     1      47.359   1.213   7.097  0.00  0.00    +0.000 A 
ATOM     16  N   UNL     1      46.450   1.116   8.093  0.00  0.00    +0.000 NA
ENDBRANCH  10  11
ENDBRANCH   9  10
ENDBRANCH   8   9
ENDBRANCH   5   8
ENDBRANCH   1   2
BRANCH   1  19
ATOM     17  C   UNL     1      48.864   8.166  12.230  0.00  0.00    +0.000 C 
ATOM     18  O   UNL     1      49.631   7.229  12.048  0.00  0.00    +0.000 OA
ATOM     19  N   UNL     1      47.740   8.051  13.020  0.00  0.00    +0.000 N 
ATOM     20  H   UNL     1      47.184   8.866  13.234  0.00  0.00    +0.000 HD
BRANCH  17  24
ATOM     21  C   UNL     1      47.880  12.696  10.388  0.00  0.00    +0.000 C 
ATOM     22  N   UNL     1      48.597  11.507  10.789  0.00  0.00    +0.000 N 
ATOM     23  C   UNL     1      48.064  10.434  11.448  0.00  0.00    +0.000 A 
ATOM     24  C   UNL     1      49.062   9.480  11.622  0.00  0.00    +0.000 A 
ATOM     25  C   UNL     1      50.263  10.035  11.048  0.00  0.00    +0.000 A 
ATOM     26  C   UNL     1      51.605   9.705  10.869  0.00  0.00    +0.000 A 
ATOM     27 CL   UNL     1      52.257   8.272  11.495  0.00  0.00    +0.000 Cl
ATOM     28  N   UNL     1      52.475  10.532  10.262  0.00  0.00    +0.000 NA
ATOM     29  C   UNL     1      51.995  11.701   9.821  0.00  0.00    +0.000 A 
ATOM     30  N   UNL     1      50.739  12.160   9.924  0.00  0.00    +0.000 NA
ATOM     31  C   UNL     1      49.924  11.289  10.546  0.00  0.00    +0.000 A 
ENDBRANCH  17  24
ENDBRANCH   1  19
TORSDOF 7
ENDMDL
MODEL 9
REMARK VINA RESULT:    -6.495      4.146      6.203
REMARK INTER + INTRA:         -10.406
REMARK INTER:                  -9.630
REMARK INTRA:                  -0.776
REMARK UNBOUND:                -1.253
REMARK  Name = 
REMARK  8 active torsions:
REMARK  status: ('A' for Active; 'I' for Inactive)
REMARK    1  A    between atoms: C_1  and  N_2
REMARK    2  A    between atoms: C_4  and  C_5
REMARK    3  A    between atoms: N_7  and  C_8
REMARK    4  A    between atoms: C_8  and  C_9
REMARK    5  A    between atoms: C_12  and  C_13
REMARK    6  A    between atoms: C_13  and  O_14
REMARK    7  A    between atoms: O_14  and  C_15
REMARK    8  A    between atoms: C_15  and  C_16
REMARK                            x       y       z     vdW  Elec       q    Type
REMARK                         _______ _______ _______ _____ _____    ______ ____
ROOT
ATOM      1  C   UNL     1      46.296   8.597  13.022  0.00  0.00    +0.000 C 
ENDROOT
BRANCH   1   2
ATOM      2  C   UNL     1      45.909   7.202  12.609  0.00  0.00    +0.000 A 
ATOM      3  C   UNL     1      44.967   6.994  11.593  0.00  0.00    +0.000 A 
ATOM      4  C   UNL     1      44.625   5.698  11.198  0.00  0.00    +0.000 A 
ATOM      5  C   UNL     1      45.208   4.584  11.816  0.00  0.00    +0.000 A 
ATOM      6  C   UNL     1      46.139   4.794  12.841  0.00  0.00    +0.000 A 
ATOM      7  C   UNL     1      46.483   6.089  13.237  0.00  0.00    +0.000 A 
BRANCH   5   8
ATOM      8  C   UNL     1      44.827   3.188  11.394  0.00  0.00    +0.000 C 
BRANCH   8   9
ATOM      9  O   UNL     1      44.140   3.248  10.149  0.00  0.00    +0.000 OA
BRANCH   9  10
ATOM     10  C   UNL     1      44.329   2.049   9.393  0.00  0.00    +0.000 C 
BRANCH  10  11
ATOM     11  C   UNL     1      45.443   2.201   8.382  0.00  0.00    +0.000 A 
ATOM     12  C   UNL     1      45.633   3.401   7.700  0.00  0.00    +0.000 A 
ATOM     13  C   UNL     1      46.687   3.507   6.796  0.00  0.00    +0.000 A 
ATOM     14  C   UNL     1      47.532   2.421   6.607  0.00  0.00    +0.000 A 
ATOM     15  C   UNL     1      47.288   1.270   7.337  0.00  0.00    +0.000 A 
ATOM     16  N   UNL     1      46.273   1.137   8.220  0.00  0.00    +0.000 NA
ENDBRANCH  10  11
ENDBRANCH   9  10
ENDBRANCH   8   9
ENDBRANCH   5   8
ENDBRANCH   1   2
BRANCH   1  19
ATOM     17  C   UNL     1      47.877  10.256  12.179  0.00  0.00    +0.000 C 
ATOM     18  O   UNL     1      47.053  11.152  12.315  0.00  0.00    +0.000 OA
ATOM     19  N   UNL     1      47.611   8.954  12.546  0.00  0.00    +0.000 N 
ATOM     20  H   UNL     1      48.269   8.221  12.327  0.00  0.00    +0.000 HD
BRANCH  17  24
ATOM     21  C   UNL     1      52.844  10.245  11.721  0.00  0.00    +0.000 C 
ATOM     22  N   UNL     1      51.444  10.479  11.448  0.00  0.00    +0.000 N 
ATOM     23  C   UNL     1      50.394  10.020  12.194  0.00  0.00    +0.000 A 
ATOM     24  C   UNL     1      49.210  10.485  11.629  0.00  0.00    +0.000 A 
ATOM     25  C   UNL     1      49.586  11.250  10.465  0.00  0.00    +0.000 A 
ATOM     26  C   UNL     1      48.992  11.968   9.429  0.00  0.00    +0.000 A 
ATOM     27 CL   UNL     1      47.308  12.050   9.259  0.00  0.00    +0.000 Cl
ATOM     28  N   UNL     1      49.711  12.569   8.464  0.00  0.00    +0.000 NA
ATOM     29  C   UNL     1      51.043  12.457   8.541  0.00  0.00    +0.000 A 
ATOM     30  N   UNL     1      51.756  11.800   9.467  0.00  0.00    +0.000 NA
ATOM     31  C   UNL     1      50.977  11.217  10.396  0.00  0.00    +0.000 A 
ENDBRANCH  17  24
ENDBRANCH   1  19
TORSDOF 7
ENDMDL
