MODEL 1
REMARK VINA RESULT:    -8.066      0.000      0.000
REMARK INTER + INTRA:         -11.973
REMARK INTER:                 -10.895
REMARK INTRA:                  -1.079
REMARK UNBOUND:                -1.079
REMARK  Name = 
REMARK  7 active torsions:
REMARK  status: ('A' for Active; 'I' for Inactive)
REMARK    1  A    between atoms: C_1  and  C_2
REMARK    2  A    between atoms: C_6  and  C_7
REMARK    3  A    between atoms: C_7  and  C_8
REMARK    4  A    between atoms: C_8  and  C_9
REMARK    5  A    between atoms: C_12  and  C_13
REMARK    6  A    between atoms: C_13  and  N_14
REMARK    7  A    between atoms: C_15  and  C_17
REMARK                            x       y       z     vdW  Elec       q    Type
REMARK                         _______ _______ _______ _____ _____    ______ ____
ROOT
ATOM      1  C   UNL     1      47.940   6.769  13.721  0.00  0.00    +0.000 C 
ENDROOT
BRANCH   1   5
ATOM      2  C   UNL     1      45.081   4.014  12.212  0.00  0.00    +0.000 A 
ATOM      3  C   UNL     1      45.017   5.332  11.774  0.00  0.00    +0.000 A 
ATOM      4  C   UNL     1      45.917   6.255  12.298  0.00  0.00    +0.000 A 
ATOM      5  C   UNL     1      46.847   5.852  13.258  0.00  0.00    +0.000 A 
ATOM      6  C   UNL     1      46.775   4.537  13.698  0.00  0.00    +0.000 A 
ATOM      7  N   UNL     1      45.914   3.617  13.205  0.00  0.00    +0.000 NA
BRANCH   2   8
ATOM      8  C   UNL     1      44.312   2.926  11.501  0.00  0.00    +0.000 C 
BRANCH   8   9
ATOM      9  C   UNL     1      43.983   3.264  10.034  0.00  0.00    +0.000 C 
BRANCH   9  15
ATOM     10  C   UNL     1      46.820   0.072   7.688  0.00  0.00    +0.000 C 
ATOM     11  C   UNL     1      46.357   1.491   7.829  0.00  0.00    +0.000 A 
ATOM     12  C   UNL     1      46.925   2.491   7.051  0.00  0.00    +0.000 A 
ATOM     13  C   UNL     1      46.592   3.811   7.320  0.00  0.00    +0.000 A 
ATOM     14  C   UNL     1      45.686   4.093   8.335  0.00  0.00    +0.000 A 
ATOM     15  C   UNL     1      45.077   3.042   9.012  0.00  0.00    +0.000 A 
ATOM     16  N   UNL     1      45.437   1.749   8.794  0.00  0.00    +0.000 NA
ENDBRANCH   9  15
ENDBRANCH   8   9
ENDBRANCH   2   8
ENDBRANCH   1   5
BRANCH   1  17
ATOM     17  N   UNL     1      48.139   6.667  15.151  0.00  0.00    +0.000 N 
ATOM     18  C   UNL     1      49.377   6.756  15.734  0.00  0.00    +0.000 C 
ATOM     19  O   UNL     1      50.387   6.968  15.064  0.00  0.00    +0.000 OA
ATOM     20  H   UNL     1      47.333   6.411  15.713  0.00  0.00    +0.000 HD
BRANCH  18  21
ATOM     21  C   UNL     1      49.457   6.608  17.198  0.00  0.00    +0.000 A 
ATOM     22  C   UNL     1      49.899   7.685  17.959  0.00  0.00    +0.000 A 
ATOM     23  S   UNL     1      49.918   7.391  19.636  0.00  0.00    +0.000 S 
ATOM     24  C   UNL     1      49.346   5.805  19.416  0.00  0.00    +0.000 A 
ATOM     25  N   UNL     1      49.138   4.992  20.487  0.00  0.00    +0.000 NA
ATOM     26  C   UNL     1      48.695   3.816  20.187  0.00  0.00    +0.000 A 
ATOM     27  N   UNL     1      48.444   3.380  18.913  0.00  0.00    +0.000 N 
ATOM     28  C   UNL     1      48.641   4.163  17.803  0.00  0.00    +0.000 A 
ATOM     29  O   UNL     1      48.414   3.735  16.672  0.00  0.00    +0.000 OA
ATOM     30  C   UNL     1      49.138   5.502  18.078  0.00  0.00    +0.000 A 
ATOM     31  H   UNL     1      48.097   2.449  18.744  0.00  0.00    +0.000 HD
ENDBRANCH  18  21
ENDBRANCH   1  17
TORSDOF 6
ENDMDL
MODEL 2
REMARK VINA RESULT:    -7.860      1.929      2.686
REMARK INTER + INTRA:         -11.695
REMARK INTER:                 -10.686
REMARK INTRA:                  -1.010
REMARK UNBOUND:                -1.079
REMARK  Name = 
REMARK  7 active torsions:
REMARK  status: ('A' for Active; 'I' for Inactive)
REMARK    1  A    between atoms: C_1  and  C_2
REMARK    2  A    between atoms: C_6  and  C_7
REMARK    3  A    between atoms: C_7  and  C_8
REMARK    4  A    between atoms: C_8  and  C_9
REMARK    5  A    between atoms: C_12  and  C_13
REMARK    6  A    between atoms: C_13  and  N_14
REMARK    7  A    between atoms: C_15  and  C_17
REMARK                            x       y       z     vdW  Elec       q    Type
REMARK                         _______ _______ _______ _____ _____    ______ ____
ROOT
ATOM      1  C   UNL     1      48.291   6.740  13.984  0.00  0.00    +0.000 C 
ENDROOT
BRANCH   1   5
ATOM      2  C   UNL     1      45.346   4.178  12.309  0.00  0.00    +0.000 A 
ATOM      3  C   UNL     1      45.457   5.469  11.805  0.00  0.00    +0.000 A 
ATOM      4  C   UNL     1      46.384   6.334  12.378  0.00  0.00    +0.000 A 
ATOM      5  C   UNL     1      47.167   5.902  13.450  0.00  0.00    +0.000 A 
ATOM      6  C   UNL     1      46.922   4.627  13.943  0.00  0.00    +0.000 A 
ATOM      7  N   UNL     1      46.030   3.763  13.404  0.00  0.00    +0.000 NA
BRANCH   2   8
ATOM      8  C   UNL     1      44.552   3.126  11.572  0.00  0.00    +0.000 C 
BRANCH   8   9
ATOM      9  C   UNL     1      44.165   3.540  10.139  0.00  0.00    +0.000 C 
BRANCH   9  15
ATOM     10  C   UNL     1      46.767   0.223   7.695  0.00  0.00    +0.000 C 
ATOM     11  C   UNL     1      46.337   1.654   7.821  0.00  0.00    +0.000 A 
ATOM     12  C   UNL     1      46.858   2.617   6.968  0.00  0.00    +0.000 A 
ATOM     13  C   UNL     1      46.565   3.951   7.216  0.00  0.00    +0.000 A 
ATOM     14  C   UNL     1      45.744   4.283   8.287  0.00  0.00    +0.000 A 
ATOM     15  C   UNL     1      45.174   3.265   9.044  0.00  0.00    +0.000 A 
ATOM     16  N   UNL     1      45.498   1.960   8.844  0.00  0.00    +0.000 NA
ENDBRANCH   9  15
ENDBRANCH   8   9
ENDBRANCH   2   8
ENDBRANCH   1   5
BRANCH   1  17
ATOM     17  N   UNL     1      48.087   7.061  15.381  0.00  0.00    +0.000 N 
ATOM     18  C   UNL     1      48.855   6.524  16.383  0.00  0.00    +0.000 C 
ATOM     19  O   UNL     1      49.789   5.763  16.136  0.00  0.00    +0.000 OA
ATOM     20  H   UNL     1      47.271   7.620  15.613  0.00  0.00    +0.000 HD
BRANCH  18  21
ATOM     21  C   UNL     1      48.533   6.903  17.770  0.00  0.00    +0.000 A 
ATOM     22  C   UNL     1      48.603   5.933  18.764  0.00  0.00    +0.000 A 
ATOM     23  S   UNL     1      48.234   6.509  20.324  0.00  0.00    +0.000 S 
ATOM     24  C   UNL     1      47.953   8.079  19.735  0.00  0.00    +0.000 A 
ATOM     25  N   UNL     1      47.590   9.079  20.583  0.00  0.00    +0.000 NA
ATOM     26  C   UNL     1      47.414  10.224  20.012  0.00  0.00    +0.000 A 
ATOM     27  N   UNL     1      47.566  10.459  18.672  0.00  0.00    +0.000 N 
ATOM     28  C   UNL     1      47.926   9.481  17.778  0.00  0.00    +0.000 A 
ATOM     29  O   UNL     1      48.044   9.725  16.578  0.00  0.00    +0.000 OA
ATOM     30  C   UNL     1      48.141   8.167  18.363  0.00  0.00    +0.000 A 
ATOM     31  H   UNL     1      47.415  11.377  18.286  0.00  0.00    +0.000 HD
ENDBRANCH  18  21
ENDBRANCH   1  17
TORSDOF 6
ENDMDL
MODEL 3
REMARK VINA RESULT:    -7.653      1.809      2.539
REMARK INTER + INTRA:         -11.416
REMARK INTER:                 -10.370
REMARK INTRA:                  -1.046
REMARK UNBOUND:                -1.079
REMARK  Name = 
REMARK  7 active torsions:
REMARK  status: ('A' for Active; 'I' for Inactive)
REMARK    1  A    between atoms: C_1  and  C_2
REMARK    2  A    between atoms: C_6  and  C_7
REMARK    3  A    between atoms: C_7  and  C_8
REMARK    4  A    between atoms: C_8  and  C_9
REMARK    5  A    between atoms: C_12  and  C_13
REMARK    6  A    between atoms: C_13  and  N_14
REMARK    7  A    between atoms: C_15  and  C_17
REMARK                            x       y       z     vdW  Elec       q    Type
REMARK                         _______ _______ _______ _____ _____    ______ ____
ROOT
ATOM      1  C   UNL     1      47.843   7.431  13.777  0.00  0.00    +0.000 C 
ENDROOT
BRANCH   1   5
ATOM      2  C   UNL     1      45.407   4.884  11.407  0.00  0.00    +0.000 A 
ATOM      3  C   UNL     1      45.721   4.477  12.699  0.00  0.00    +0.000 A 
ATOM      4  C   UNL     1      46.559   5.278  13.468  0.00  0.00    +0.000 A 
ATOM      5  C   UNL     1      47.079   6.457  12.931  0.00  0.00    +0.000 A 
ATOM      6  C   UNL     1      46.782   6.734  11.603  0.00  0.00    +0.000 A 
ATOM      7  N   UNL     1      45.969   5.976  10.832  0.00  0.00    +0.000 NA
BRANCH   2   8
ATOM      8  C   UNL     1      44.313   4.197  10.624  0.00  0.00    +0.000 C 
BRANCH   8   9
ATOM      9  C   UNL     1      44.465   4.343   9.098  0.00  0.00    +0.000 C 
BRANCH   9  15
ATOM     10  C   UNL     1      47.096   3.104   5.188  0.00  0.00    +0.000 C 
ATOM     11  C   UNL     1      46.580   2.719   6.543  0.00  0.00    +0.000 A 
ATOM     12  C   UNL     1      46.828   1.450   7.048  0.00  0.00    +0.000 A 
ATOM     13  C   UNL     1      46.201   1.072   8.227  0.00  0.00    +0.000 A 
ATOM     14  C   UNL     1      45.370   1.975   8.879  0.00  0.00    +0.000 A 
ATOM     15  C   UNL     1      45.241   3.264   8.374  0.00  0.00    +0.000 A 
ATOM     16  N   UNL     1      45.806   3.627   7.192  0.00  0.00    +0.000 NA
ENDBRANCH   9  15
ENDBRANCH   8   9
ENDBRANCH   2   8
ENDBRANCH   1   5
BRANCH   1  17
ATOM     17  N   UNL     1      47.869   7.014  15.163  0.00  0.00    +0.000 N 
ATOM     18  C   UNL     1      49.016   6.596  15.788  0.00  0.00    +0.000 C 
ATOM     19  O   UNL     1      50.099   6.591  15.204  0.00  0.00    +0.000 OA
ATOM     20  H   UNL     1      46.975   6.931  15.638  0.00  0.00    +0.000 HD
BRANCH  18  21
ATOM     21  C   UNL     1      48.912   6.166  17.194  0.00  0.00    +0.000 A 
ATOM     22  C   UNL     1      49.332   4.885  17.537  0.00  0.00    +0.000 A 
ATOM     23  S   UNL     1      49.184   4.526  19.194  0.00  0.00    +0.000 S 
ATOM     24  C   UNL     1      48.540   6.064  19.524  0.00  0.00    +0.000 A 
ATOM     25  N   UNL     1      48.190   6.408  20.792  0.00  0.00    +0.000 NA
ATOM     26  C   UNL     1      47.721   7.607  20.910  0.00  0.00    +0.000 A 
ATOM     27  N   UNL     1      47.569   8.489  19.874  0.00  0.00    +0.000 N 
ATOM     28  C   UNL     1      47.904   8.185  18.578  0.00  0.00    +0.000 A 
ATOM     29  O   UNL     1      47.745   9.000  17.670  0.00  0.00    +0.000 OA
ATOM     30  C   UNL     1      48.441   6.848  18.383  0.00  0.00    +0.000 A 
ATOM     31  H   UNL     1      47.197   9.412  20.031  0.00  0.00    +0.000 HD
ENDBRANCH  18  21
ENDBRANCH   1  17
TORSDOF 6
ENDMDL
MODEL 4
REMARK VINA RESULT:    -7.582      1.909      3.241
REMARK INTER + INTRA:         -11.320
REMARK INTER:                 -10.339
REMARK INTRA:                  -0.981
REMARK UNBOUND:                -1.079
REMARK  Name = 
REMARK  7 active torsions:
REMARK  status: ('A' for Active; 'I' for Inactive)
REMARK    1  A    between atoms: C_1  and  C_2
REMARK    2  A    between atoms: C_6  and  C_7
REMARK    3  A    between atoms: C_7  and  C_8
REMARK    4  A    between atoms: C_8  and  C_9
REMARK    5  A    between atoms: C_12  and  C_13
REMARK    6  A    between atoms: C_13  and  N_14
REMARK    7  A    between atoms: C_15  and  C_17
REMARK                            x       y       z     vdW  Elec       q    Type
REMARK                         _______ _______ _______ _____ _____    ______ ____
ROOT
ATOM      1  C   UNL     1      47.218   4.193  15.053  0.00  0.00    +0.000 C 
ENDROOT
BRANCH   1   5
ATOM      2  C   UNL     1      45.718   5.223  11.215  0.00  0.00    +0.000 A 
ATOM      3  C   UNL     1      46.453   6.177  11.910  0.00  0.00    +0.000 A 
ATOM      4  C   UNL     1      46.908   5.869  13.189  0.00  0.00    +0.000 A 
ATOM      5  C   UNL     1      46.607   4.629  13.754  0.00  0.00    +0.000 A 
ATOM      6  C   UNL     1      45.792   3.777  13.020  0.00  0.00    +0.000 A 
ATOM      7  N   UNL     1      45.338   4.048  11.774  0.00  0.00    +0.000 NA
BRANCH   2   8
ATOM      8  C   UNL     1      45.421   5.398   9.744  0.00  0.00    +0.000 C 
BRANCH   8   9
ATOM      9  C   UNL     1      44.603   4.239   9.141  0.00  0.00    +0.000 C 
BRANCH   9  15
ATOM     10  C   UNL     1      47.242   3.140   5.195  0.00  0.00    +0.000 C 
ATOM     11  C   UNL     1      46.709   2.701   6.525  0.00  0.00    +0.000 A 
ATOM     12  C   UNL     1      46.928   1.404   6.971  0.00  0.00    +0.000 A 
ATOM     13  C   UNL     1      46.286   0.982   8.126  0.00  0.00    +0.000 A 
ATOM     14  C   UNL     1      45.466   1.868   8.815  0.00  0.00    +0.000 A 
ATOM     15  C   UNL     1      45.365   3.182   8.372  0.00  0.00    +0.000 A 
ATOM     16  N   UNL     1      45.946   3.590   7.212  0.00  0.00    +0.000 NA
ENDBRANCH   9  15
ENDBRANCH   8   9
ENDBRANCH   2   8
ENDBRANCH   1   5
BRANCH   1  17
ATOM     17  N   UNL     1      47.394   5.315  15.952  0.00  0.00    +0.000 N 
ATOM     18  C   UNL     1      48.531   5.494  16.696  0.00  0.00    +0.000 C 
ATOM     19  O   UNL     1      49.484   4.721  16.606  0.00  0.00    +0.000 OA
ATOM     20  H   UNL     1      46.590   5.916  16.104  0.00  0.00    +0.000 HD
BRANCH  18  21
ATOM     21  C   UNL     1      48.583   6.657  17.599  0.00  0.00    +0.000 A 
ATOM     22  C   UNL     1      48.740   6.441  18.964  0.00  0.00    +0.000 A 
ATOM     23  S   UNL     1      48.812   7.868  19.890  0.00  0.00    +0.000 S 
ATOM     24  C   UNL     1      48.623   8.838  18.506  0.00  0.00    +0.000 A 
ATOM     25  N   UNL     1      48.599  10.194  18.611  0.00  0.00    +0.000 NA
ATOM     26  C   UNL     1      48.458  10.814  17.487  0.00  0.00    +0.000 A 
ATOM     27  N   UNL     1      48.337  10.201  16.269  0.00  0.00    +0.000 N 
ATOM     28  C   UNL     1      48.351   8.837  16.114  0.00  0.00    +0.000 A 
ATOM     29  O   UNL     1      48.230   8.320  15.004  0.00  0.00    +0.000 OA
ATOM     30  C   UNL     1      48.510   8.083  17.347  0.00  0.00    +0.000 A 
ATOM     31  H   UNL     1      48.230  10.742  15.425  0.00  0.00    +0.000 HD
ENDBRANCH  18  21
ENDBRANCH   1  17
TORSDOF 6
ENDMDL
MODEL 5
REMARK VINA RESULT:    -7.437      3.135      8.465
REMARK INTER + INTRA:         -11.125
REMARK INTER:                  -9.797
REMARK INTRA:                  -1.328
REMARK UNBOUND:                -1.079
REMARK  Name = 
REMARK  7 active torsions:
REMARK  status: ('A' for Active; 'I' for Inactive)
REMARK    1  A    between atoms: C_1  and  C_2
REMARK    2  A    between atoms: C_6  and  C_7
REMARK    3  A    between atoms: C_7  and  C_8
REMARK    4  A    between atoms: C_8  and  C_9
REMARK    5  A    between atoms: C_12  and  C_13
REMARK    6  A    between atoms: C_13  and  N_14
REMARK    7  A    between atoms: C_15  and  C_17
REMARK                            x       y       z     vdW  Elec       q    Type
REMARK                         _______ _______ _______ _____ _____    ______ ____
ROOT
ATOM      1  C   UNL     1      47.720   8.095  11.995  0.00  0.00    +0.000 C 
ENDROOT
BRANCH   1   5
ATOM      2  C   UNL     1      49.339   7.815  15.912  0.00  0.00    +0.000 A 
ATOM      3  C   UNL     1      48.492   8.881  15.626  0.00  0.00    +0.000 A 
ATOM      4  C   UNL     1      47.995   9.012  14.333  0.00  0.00    +0.000 A 
ATOM      5  C   UNL     1      48.363   8.092  13.350  0.00  0.00    +0.000 A 
ATOM      6  C   UNL     1      49.283   7.114  13.708  0.00  0.00    +0.000 A 
ATOM      7  N   UNL     1      49.781   6.961  14.957  0.00  0.00    +0.000 NA
BRANCH   2   8
ATOM      8  C   UNL     1      49.700   7.478  17.339  0.00  0.00    +0.000 C 
BRANCH   8   9
ATOM      9  C   UNL     1      48.626   6.644  18.064  0.00  0.00    +0.000 C 
BRANCH   9  15
ATOM     10  C   UNL     1      50.884   2.384  17.361  0.00  0.00    +0.000 C 
ATOM     11  C   UNL     1      49.587   3.133  17.441  0.00  0.00    +0.000 A 
ATOM     12  C   UNL     1      48.389   2.485  17.170  0.00  0.00    +0.000 A 
ATOM     13  C   UNL     1      47.228   3.242  17.093  0.00  0.00    +0.000 A 
ATOM     14  C   UNL     1      47.291   4.613  17.313  0.00  0.00    +0.000 A 
ATOM     15  C   UNL     1      48.504   5.186  17.677  0.00  0.00    +0.000 A 
ATOM     16  N   UNL     1      49.656   4.464  17.702  0.00  0.00    +0.000 NA
ENDBRANCH   9  15
ENDBRANCH   8   9
ENDBRANCH   2   8
ENDBRANCH   1   5
BRANCH   1  17
ATOM     17  N   UNL     1      46.992   6.867  11.757  0.00  0.00    +0.000 N 
ATOM     18  C   UNL     1      45.676   6.708  12.108  0.00  0.00    +0.000 C 
ATOM     19  O   UNL     1      45.032   7.626  12.613  0.00  0.00    +0.000 OA
ATOM     20  H   UNL     1      47.524   6.071  11.419  0.00  0.00    +0.000 HD
BRANCH  18  21
ATOM     21  C   UNL     1      45.050   5.401  11.843  0.00  0.00    +0.000 A 
ATOM     22  C   UNL     1      44.353   4.770  12.868  0.00  0.00    +0.000 A 
ATOM     23  S   UNL     1      43.656   3.282  12.422  0.00  0.00    +0.000 S 
ATOM     24  C   UNL     1      44.266   3.410  10.840  0.00  0.00    +0.000 A 
ATOM     25  N   UNL     1      44.022   2.435   9.925  0.00  0.00    +0.000 NA
ATOM     26  C   UNL     1      44.533   2.656   8.759  0.00  0.00    +0.000 A 
ATOM     27  N   UNL     1      45.269   3.762   8.429  0.00  0.00    +0.000 N 
ATOM     28  C   UNL     1      45.545   4.770   9.320  0.00  0.00    +0.000 A 
ATOM     29  O   UNL     1      46.218   5.746   8.991  0.00  0.00    +0.000 OA
ATOM     30  C   UNL     1      44.992   4.578  10.651  0.00  0.00    +0.000 A 
ATOM     31  H   UNL     1      45.642   3.877   7.500  0.00  0.00    +0.000 HD
ENDBRANCH  18  21
ENDBRANCH   1  17
TORSDOF 6
ENDMDL
MODEL 6
REMARK VINA RESULT:    -7.213      2.047      2.777
REMARK INTER + INTRA:         -10.821
REMARK INTER:                 -10.053
REMARK INTRA:                  -0.769
REMARK UNBOUND:                -1.079
REMARK  Name = 
REMARK  7 active torsions:
REMARK  status: ('A' for Active; 'I' for Inactive)
REMARK    1  A    between atoms: C_1  and  C_2
REMARK    2  A    between atoms: C_6  and  C_7
REMARK    3  A    between atoms: C_7  and  C_8
REMARK    4  A    between atoms: C_8  and  C_9
REMARK    5  A    between atoms: C_12  and  C_13
REMARK    6  A    between atoms: C_13  and  N_14
REMARK    7  A    between atoms: C_15  and  C_17
REMARK                            x       y       z     vdW  Elec       q    Type
REMARK                         _______ _______ _______ _____ _____    ______ ____
ROOT
ATOM      1  C   UNL     1      47.307   4.241  14.781  0.00  0.00    +0.000 C 
ENDROOT
BRANCH   1   5
ATOM      2  C   UNL     1      44.895   4.451  11.291  0.00  0.00    +0.000 A 
ATOM      3  C   UNL     1      45.300   5.643  11.883  0.00  0.00    +0.000 A 
ATOM      4  C   UNL     1      46.049   5.588  13.054  0.00  0.00    +0.000 A 
ATOM      5  C   UNL     1      46.363   4.351  13.621  0.00  0.00    +0.000 A 
ATOM      6  C   UNL     1      45.840   3.220  13.008  0.00  0.00    +0.000 A 
ATOM      7  N   UNL     1      45.112   3.243  11.867  0.00  0.00    +0.000 NA
BRANCH   2   8
ATOM      8  C   UNL     1      44.309   4.439   9.900  0.00  0.00    +0.000 C 
BRANCH   8   9
ATOM      9  C   UNL     1      45.365   4.587   8.787  0.00  0.00    +0.000 C 
BRANCH   9  15
ATOM     10  C   UNL     1      47.868   2.549   5.136  0.00  0.00    +0.000 C 
ATOM     11  C   UNL     1      47.162   2.365   6.446  0.00  0.00    +0.000 A 
ATOM     12  C   UNL     1      47.018   1.095   6.989  0.00  0.00    +0.000 A 
ATOM     13  C   UNL     1      46.221   0.941   8.115  0.00  0.00    +0.000 A 
ATOM     14  C   UNL     1      45.614   2.056   8.680  0.00  0.00    +0.000 A 
ATOM     15  C   UNL     1      45.877   3.314   8.148  0.00  0.00    +0.000 A 
ATOM     16  N   UNL     1      46.612   3.469   7.013  0.00  0.00    +0.000 NA
ENDBRANCH   9  15
ENDBRANCH   8   9
ENDBRANCH   2   8
ENDBRANCH   1   5
BRANCH   1  17
ATOM     17  N   UNL     1      47.573   5.538  15.366  0.00  0.00    +0.000 N 
ATOM     18  C   UNL     1      48.567   5.743  16.289  0.00  0.00    +0.000 C 
ATOM     19  O   UNL     1      49.313   4.831  16.640  0.00  0.00    +0.000 OA
ATOM     20  H   UNL     1      46.918   6.285  15.154  0.00  0.00    +0.000 HD
BRANCH  18  21
ATOM     21  C   UNL     1      48.723   7.103  16.836  0.00  0.00    +0.000 A 
ATOM     22  C   UNL     1      49.333   8.076  16.051  0.00  0.00    +0.000 A 
ATOM     23  S   UNL     1      49.425   9.607  16.789  0.00  0.00    +0.000 S 
ATOM     24  C   UNL     1      48.664   9.033  18.197  0.00  0.00    +0.000 A 
ATOM     25  N   UNL     1      48.435   9.866  19.246  0.00  0.00    +0.000 NA
ATOM     26  C   UNL     1      47.843   9.310  20.251  0.00  0.00    +0.000 A 
ATOM     27  N   UNL     1      47.462   7.995  20.300  0.00  0.00    +0.000 N 
ATOM     28  C   UNL     1      47.675   7.116  19.267  0.00  0.00    +0.000 A 
ATOM     29  O   UNL     1      47.329   5.939  19.350  0.00  0.00    +0.000 OA
ATOM     30  C   UNL     1      48.338   7.687  18.105  0.00  0.00    +0.000 A 
ATOM     31  H   UNL     1      47.002   7.620  21.114  0.00  0.00    +0.000 HD
ENDBRANCH  18  21
ENDBRANCH   1  17
TORSDOF 6
ENDMDL
MODEL 7
REMARK VINA RESULT:    -7.115      3.778      5.646
REMARK INTER + INTRA:         -10.690
REMARK INTER:                  -9.756
REMARK INTRA:                  -0.934
REMARK UNBOUND:                -1.079
REMARK  Name = 
REMARK  7 active torsions:
REMARK  status: ('A' for Active; 'I' for Inactive)
REMARK    1  A    between atoms: C_1  and  C_2
REMARK    2  A    between atoms: C_6  and  C_7
REMARK    3  A    between atoms: C_7  and  C_8
REMARK    4  A    between atoms: C_8  and  C_9
REMARK    5  A    between atoms: C_12  and  C_13
REMARK    6  A    between atoms: C_13  and  N_14
REMARK    7  A    between atoms: C_15  and  C_17
REMARK                            x       y       z     vdW  Elec       q    Type
REMARK                         _______ _______ _______ _____ _____    ______ ____
ROOT
ATOM      1  C   UNL     1      47.883   5.956  13.684  0.00  0.00    +0.000 C 
ENDROOT
BRANCH   1   5
ATOM      2  C   UNL     1      44.420   3.967  12.237  0.00  0.00    +0.000 A 
ATOM      3  C   UNL     1      44.473   5.353  12.134  0.00  0.00    +0.000 A 
ATOM      4  C   UNL     1      45.580   6.021  12.649  0.00  0.00    +0.000 A 
ATOM      5  C   UNL     1      46.600   5.299  13.270  0.00  0.00    +0.000 A 
ATOM      6  C   UNL     1      46.417   3.928  13.405  0.00  0.00    +0.000 A 
ATOM      7  N   UNL     1      45.353   3.252  12.912  0.00  0.00    +0.000 NA
BRANCH   2   8
ATOM      8  C   UNL     1      43.381   3.175  11.479  0.00  0.00    +0.000 C 
BRANCH   8   9
ATOM      9  C   UNL     1      43.984   2.108  10.545  0.00  0.00    +0.000 C 
BRANCH   9  15
ATOM     10  C   UNL     1      47.369   1.005   7.218  0.00  0.00    +0.000 C 
ATOM     11  C   UNL     1      46.419   2.026   7.770  0.00  0.00    +0.000 A 
ATOM     12  C   UNL     1      46.397   3.312   7.247  0.00  0.00    +0.000 A 
ATOM     13  C   UNL     1      45.627   4.275   7.885  0.00  0.00    +0.000 A 
ATOM     14  C   UNL     1      44.884   3.922   9.005  0.00  0.00    +0.000 A 
ATOM     15  C   UNL     1      44.871   2.595   9.420  0.00  0.00    +0.000 A 
ATOM     16  N   UNL     1      45.664   1.657   8.836  0.00  0.00    +0.000 NA
ENDBRANCH   9  15
ENDBRANCH   8   9
ENDBRANCH   2   8
ENDBRANCH   1   5
BRANCH   1  17
ATOM     17  N   UNL     1      48.147   7.137  12.889  0.00  0.00    +0.000 N 
ATOM     18  C   UNL     1      49.272   7.904  13.056  0.00  0.00    +0.000 C 
ATOM     19  O   UNL     1      50.139   7.601  13.873  0.00  0.00    +0.000 OA
ATOM     20  H   UNL     1      47.408   7.452  12.268  0.00  0.00    +0.000 HD
BRANCH  18  21
ATOM     21  C   UNL     1      49.416   9.100  12.207  0.00  0.00    +0.000 A 
ATOM     22  C   UNL     1      50.681   9.443  11.740  0.00  0.00    +0.000 A 
ATOM     23  S   UNL     1      50.705  10.827  10.750  0.00  0.00    +0.000 S 
ATOM     24  C   UNL     1      49.025  11.036  10.911  0.00  0.00    +0.000 A 
ATOM     25  N   UNL     1      48.395  12.070  10.291  0.00  0.00    +0.000 NA
ATOM     26  C   UNL     1      47.119  12.112  10.487  0.00  0.00    +0.000 A 
ATOM     27  N   UNL     1      46.417  11.215  11.247  0.00  0.00    +0.000 N 
ATOM     28  C   UNL     1      47.010  10.159  11.895  0.00  0.00    +0.000 A 
ATOM     29  O   UNL     1      46.350   9.378  12.578  0.00  0.00    +0.000 OA
ATOM     30  C   UNL     1      48.449  10.058  11.709  0.00  0.00    +0.000 A 
ATOM     31  H   UNL     1      45.420  11.302  11.361  0.00  0.00    +0.000 HD
ENDBRANCH  18  21
ENDBRANCH   1  17
TORSDOF 6
ENDMDL
MODEL 8
REMARK VINA RESULT:    -6.877      2.184      3.666
REMARK INTER + INTRA:         -10.368
REMARK INTER:                  -9.234
REMARK INTRA:                  -1.134
REMARK UNBOUND:                -1.079
REMARK  Name = 
REMARK  7 active torsions:
REMARK  status: ('A' for Active; 'I' for Inactive)
REMARK    1  A    between atoms: C_1  and  C_2
REMARK    2  A    between atoms: C_6  and  C_7
REMARK    3  A    between atoms: C_7  and  C_8
REMARK    4  A    between atoms: C_8  and  C_9
REMARK    5  A    between atoms: C_12  and  C_13
REMARK    6  A    between atoms: C_13  and  N_14
REMARK    7  A    between atoms: C_15  and  C_17
REMARK                            x       y       z     vdW  Elec       q    Type
REMARK                         _______ _______ _______ _____ _____    ______ ____
ROOT
ATOM      1  C   UNL     1      47.385   4.914  14.952  0.00  0.00    +0.000 C 
ENDROOT
BRANCH   1   5
ATOM      2  C   UNL     1      44.767   5.120  11.613  0.00  0.00    +0.000 A 
ATOM      3  C   UNL     1      45.999   5.760  11.523  0.00  0.00    +0.000 A 
ATOM      4  C   UNL     1      46.845   5.742  12.628  0.00  0.00    +0.000 A 
ATOM      5  C   UNL     1      46.441   5.104  13.802  0.00  0.00    +0.000 A 
ATOM      6  C   UNL     1      45.159   4.571  13.827  0.00  0.00    +0.000 A 
ATOM      7  N   UNL     1      44.316   4.571  12.768  0.00  0.00    +0.000 NA
BRANCH   2   8
ATOM      8  C   UNL     1      43.925   4.887  10.382  0.00  0.00    +0.000 C 
BRANCH   8   9
ATOM      9  C   UNL     1      44.033   3.454   9.826  0.00  0.00    +0.000 C 
BRANCH   9  15
ATOM     10  C   UNL     1      46.824   0.106   7.648  0.00  0.00    +0.000 C 
ATOM     11  C   UNL     1      46.422   1.547   7.754  0.00  0.00    +0.000 A 
ATOM     12  C   UNL     1      47.074   2.510   6.996  0.00  0.00    +0.000 A 
ATOM     13  C   UNL     1      46.792   3.847   7.237  0.00  0.00    +0.000 A 
ATOM     14  C   UNL     1      45.852   4.183   8.205  0.00  0.00    +0.000 A 
ATOM     15  C   UNL     1      45.162   3.170   8.860  0.00  0.00    +0.000 A 
ATOM     16  N   UNL     1      45.471   1.859   8.671  0.00  0.00    +0.000 NA
ENDBRANCH   9  15
ENDBRANCH   8   9
ENDBRANCH   2   8
ENDBRANCH   1   5
BRANCH   1  17
ATOM     17  N   UNL     1      48.192   6.097  15.169  0.00  0.00    +0.000 N 
ATOM     18  C   UNL     1      48.576   6.510  16.419  0.00  0.00    +0.000 C 
ATOM     19  O   UNL     1      48.283   5.867  17.425  0.00  0.00    +0.000 OA
ATOM     20  H   UNL     1      48.374   6.687  14.363  0.00  0.00    +0.000 HD
BRANCH  18  21
ATOM     21  C   UNL     1      49.371   7.747  16.516  0.00  0.00    +0.000 A 
ATOM     22  C   UNL     1      50.437   7.791  17.409  0.00  0.00    +0.000 A 
ATOM     23  S   UNL     1      51.288   9.266  17.403  0.00  0.00    +0.000 S 
ATOM     24  C   UNL     1      50.260   9.915  16.214  0.00  0.00    +0.000 A 
ATOM     25  N   UNL     1      50.451  11.180  15.754  0.00  0.00    +0.000 NA
ATOM     26  C   UNL     1      49.608  11.550  14.847  0.00  0.00    +0.000 A 
ATOM     27  N   UNL     1      48.592  10.770  14.363  0.00  0.00    +0.000 N 
ATOM     28  C   UNL     1      48.358   9.490  14.800  0.00  0.00    +0.000 A 
ATOM     29  O   UNL     1      47.429   8.822  14.350  0.00  0.00    +0.000 OA
ATOM     30  C   UNL     1      49.279   9.016  15.822  0.00  0.00    +0.000 A 
ATOM     31  H   UNL     1      47.966  11.118  13.653  0.00  0.00    +0.000 HD
ENDBRANCH  18  21
ENDBRANCH   1  17
TORSDOF 6
ENDMDL
MODEL 9
REMARK VINA RESULT:    -6.341      3.758      8.706
REMARK INTER + INTRA:          -9.644
REMARK INTER:                  -8.462
REMARK INTRA:                  -1.182
REMARK UNBOUND:                -1.079
REMARK  Name = 
REMARK  7 active torsions:
REMARK  status: ('A' for Active; 'I' for Inactive)
REMARK    1  A    between atoms: C_1  and  C_2
REMARK    2  A    between atoms: C_6  and  C_7
REMARK    3  A    between atoms: C_7  and  C_8
REMARK    4  A    between atoms: C_8  and  C_9
REMARK    5  A    between atoms: C_12  and  C_13
REMARK    6  A    between atoms: C_13  and  N_14
REMARK    7  A    between atoms: C_15  and  C_17
REMARK                            x       y       z     vdW  Elec       q    Type
REMARK                         _______ _______ _______ _____ _____    ______ ____
ROOT
ATOM      1  C   UNL     1      48.542   8.554  14.525  0.00  0.00    +0.000 C 
ENDROOT
BRANCH   1   5
ATOM      2  C   UNL     1      50.456   6.926  17.950  0.00  0.00    +0.000 A 
ATOM      3  C   UNL     1      49.113   7.273  18.050  0.00  0.00    +0.000 A 
ATOM      4  C   UNL     1      48.488   7.854  16.951  0.00  0.00    +0.000 A 
ATOM      5  C   UNL     1      49.215   8.091  15.783  0.00  0.00    +0.000 A 
ATOM      6  C   UNL     1      50.571   7.793  15.807  0.00  0.00    +0.000 A 
ATOM      7  N   UNL     1      51.205   7.226  16.860  0.00  0.00    +0.000 NA
BRANCH   2   8
ATOM      8  C   UNL     1      51.114   6.069  19.005  0.00  0.00    +0.000 C 
BRANCH   8   9
ATOM      9  C   UNL     1      52.312   5.256  18.478  0.00  0.00    +0.000 C 
BRANCH   9  15
ATOM     10  C   UNL     1      54.057   0.744  17.898  0.00  0.00    +0.000 C 
ATOM     11  C   UNL     1      52.868   1.657  17.865  0.00  0.00    +0.000 A 
ATOM     12  C   UNL     1      51.631   1.176  17.456  0.00  0.00    +0.000 A 
ATOM     13  C   UNL     1      50.593   2.080  17.280  0.00  0.00    +0.000 A 
ATOM     14  C   UNL     1      50.810   3.428  17.541  0.00  0.00    +0.000 A 
ATOM     15  C   UNL     1      52.043   3.832  18.043  0.00  0.00    +0.000 A 
ATOM     16  N   UNL     1      53.082   2.963  18.166  0.00  0.00    +0.000 NA
ENDBRANCH   9  15
ENDBRANCH   8   9
ENDBRANCH   2   8
ENDBRANCH   1   5
BRANCH   1  17
ATOM     17  N   UNL     1      47.507   7.629  14.113  0.00  0.00    +0.000 N 
ATOM     18  C   UNL     1      47.771   6.511  13.364  0.00  0.00    +0.000 C 
ATOM     19  O   UNL     1      48.919   6.216  13.034  0.00  0.00    +0.000 OA
ATOM     20  H   UNL     1      46.546   7.896  14.302  0.00  0.00    +0.000 HD
BRANCH  18  21
ATOM     21  C   UNL     1      46.631   5.660  12.979  0.00  0.00    +0.000 A 
ATOM     22  C   UNL     1      46.688   4.297  13.253  0.00  0.00    +0.000 A 
ATOM     23  S   UNL     1      45.297   3.435  12.784  0.00  0.00    +0.000 S 
ATOM     24  C   UNL     1      44.562   4.845  12.183  0.00  0.00    +0.000 A 
ATOM     25  N   UNL     1      43.321   4.794  11.629  0.00  0.00    +0.000 NA
ATOM     26  C   UNL     1      42.872   5.934  11.219  0.00  0.00    +0.000 A 
ATOM     27  N   UNL     1      43.552   7.118  11.312  0.00  0.00    +0.000 N 
ATOM     28  C   UNL     1      44.808   7.218  11.859  0.00  0.00    +0.000 A 
ATOM     29  O   UNL     1      45.394   8.298  11.917  0.00  0.00    +0.000 OA
ATOM     30  C   UNL     1      45.366   5.965  12.341  0.00  0.00    +0.000 A 
ATOM     31  H   UNL     1      43.147   7.976  10.973  0.00  0.00    +0.000 HD
ENDBRANCH  18  21
ENDBRANCH   1  17
TORSDOF 6
ENDMDL
