MODEL 1
REMARK VINA RESULT:    -8.072      0.000      0.000
REMARK INTER + INTRA:         -12.960
REMARK INTER:                 -11.847
REMARK INTRA:                  -1.112
REMARK UNBOUND:                -1.112
REMARK  Name = 
REMARK  10 active torsions:
REMARK  status: ('A' for Active; 'I' for Inactive)
REMARK    1  A    between atoms: C_1  and  C_2
REMARK    2  A    between atoms: C_2  and  C_3
REMARK    3  A    between atoms: C_3  and  C_4
REMARK    4  A    between atoms: C_3  and  C_15
REMARK    5  A    between atoms: C_4  and  O_5
REMARK    6  A    between atoms: O_5  and  C_6
REMARK    7  A    between atoms: C_9  and  C_10
REMARK    8  A    between atoms: C_19  and  C_20
REMARK    9  A    between atoms: C_25  and  O_26
REMARK   10  A    between atoms: O_26  and  C_27
REMARK                            x       y       z     vdW  Elec       q    Type
REMARK                         _______ _______ _______ _____ _____    ______ ____
ROOT
ATOM      1  C   UNL     1      44.475   4.839  11.866  0.00  0.00    +0.000 C 
ENDROOT
BRANCH   1   2
ATOM      2  C   UNL     1      45.751   5.249  12.590  0.00  0.00    +0.000 A 
ATOM      3  C   UNL     1      46.170   4.641  13.776  0.00  0.00    +0.000 A 
ATOM      4  C   UNL     1      47.306   5.105  14.432  0.00  0.00    +0.000 A 
ATOM      5  C   UNL     1      48.020   6.198  13.927  0.00  0.00    +0.000 A 
ATOM      6  C   UNL     1      47.653   6.830  12.729  0.00  0.00    +0.000 A 
ATOM      7  C   UNL     1      46.520   6.304  12.069  0.00  0.00    +0.000 A 
BRANCH   6   8
ATOM      8  C   UNL     1      48.350   8.047  12.206  0.00  0.00    +0.000 A 
ATOM      9  C   UNL     1      49.723   7.941  11.874  0.00  0.00    +0.000 A 
ATOM     10  C   UNL     1      50.454   9.005  11.343  0.00  0.00    +0.000 A 
ATOM     11  C   UNL     1      49.833  10.218  11.123  0.00  0.00    +0.000 A 
ATOM     12  C   UNL     1      48.485  10.371  11.442  0.00  0.00    +0.000 A 
ATOM     13  C   UNL     1      47.732   9.300  11.966  0.00  0.00    +0.000 A 
BRANCH  13  14
ATOM     14  O   UNL     1      46.408   9.461  12.297  0.00  0.00    +0.000 OA
ATOM     15  C   UNL     1      45.791  10.669  11.852  0.00  0.00    +0.000 C 
ENDBRANCH  13  14
ENDBRANCH   6   8
ENDBRANCH   1   2
BRANCH   1  17
ATOM     16  C   UNL     1      42.083   5.777  11.773  0.00  0.00    +0.000 C 
ATOM     17  C   UNL     1      43.211   5.250  12.657  0.00  0.00    +0.000 C 
ENDBRANCH   1  17
BRANCH   1  18
ATOM     18  C   UNL     1      44.469   3.330  11.555  0.00  0.00    +0.000 C 
BRANCH  18  19
ATOM     19  O   UNL     1      43.909   3.125  10.247  0.00  0.00    +0.000 OA
BRANCH  19  20
ATOM     20  C   UNL     1      44.867   2.932   9.276  0.00  0.00    +0.000 A 
ATOM     21  C   UNL     1      45.265   4.044   8.552  0.00  0.00    +0.000 A 
ATOM     22  C   UNL     1      46.199   3.878   7.531  0.00  0.00    +0.000 A 
ATOM     23  C   UNL     1      46.703   2.601   7.271  0.00  0.00    +0.000 A 
ATOM     24  C   UNL     1      46.246   1.550   8.054  0.00  0.00    +0.000 A 
ATOM     25  N   UNL     1      45.344   1.687   9.053  0.00  0.00    +0.000 NA
BRANCH  23  26
ATOM     26  C   UNL     1      47.655   2.304   6.181  0.00  0.00    +0.000 C 
ATOM     27  N   UNL     1      47.690   3.161   5.118  0.00  0.00    +0.000 N 
ATOM     28  O   UNL     1      48.403   1.337   6.238  0.00  0.00    +0.000 OA
ATOM     29  H   UNL     1      47.243   4.066   5.115  0.00  0.00    +0.000 HD
ATOM     30  H   UNL     1      48.399   2.982   4.417  0.00  0.00    +0.000 HD
ENDBRANCH  23  26
ENDBRANCH  19  20
ENDBRANCH  18  19
ENDBRANCH   1  18
TORSDOF 8
ENDMDL
MODEL 2
REMARK VINA RESULT:    -8.019      1.995      4.030
REMARK INTER + INTRA:         -12.881
REMARK INTER:                 -11.982
REMARK INTRA:                  -0.899
REMARK UNBOUND:                -1.112
REMARK  Name = 
REMARK  10 active torsions:
REMARK  status: ('A' for Active; 'I' for Inactive)
REMARK    1  A    between atoms: C_1  and  C_2
REMARK    2  A    between atoms: C_2  and  C_3
REMARK    3  A    between atoms: C_3  and  C_4
REMARK    4  A    between atoms: C_3  and  C_15
REMARK    5  A    between atoms: C_4  and  O_5
REMARK    6  A    between atoms: O_5  and  C_6
REMARK    7  A    between atoms: C_9  and  C_10
REMARK    8  A    between atoms: C_19  and  C_20
REMARK    9  A    between atoms: C_25  and  O_26
REMARK   10  A    between atoms: O_26  and  C_27
REMARK                            x       y       z     vdW  Elec       q    Type
REMARK                         _______ _______ _______ _____ _____    ______ ____
ROOT
ATOM      1  C   UNL     1      44.505   4.838  11.875  0.00  0.00    +0.000 C 
ENDROOT
BRANCH   1   2
ATOM      2  C   UNL     1      45.779   5.405  12.486  0.00  0.00    +0.000 A 
ATOM      3  C   UNL     1      46.627   6.269  11.788  0.00  0.00    +0.000 A 
ATOM      4  C   UNL     1      47.815   6.699  12.370  0.00  0.00    +0.000 A 
ATOM      5  C   UNL     1      48.183   6.252  13.644  0.00  0.00    +0.000 A 
ATOM      6  C   UNL     1      47.357   5.402  14.396  0.00  0.00    +0.000 A 
ATOM      7  C   UNL     1      46.139   5.019  13.789  0.00  0.00    +0.000 A 
BRANCH   6   8
ATOM      8  C   UNL     1      47.759   4.846  15.726  0.00  0.00    +0.000 A 
ATOM      9  C   UNL     1      47.540   3.467  15.969  0.00  0.00    +0.000 A 
ATOM     10  C   UNL     1      47.914   2.844  17.161  0.00  0.00    +0.000 A 
ATOM     11  C   UNL     1      48.525   3.582  18.155  0.00  0.00    +0.000 A 
ATOM     12  C   UNL     1      48.753   4.943  17.963  0.00  0.00    +0.000 A 
ATOM     13  C   UNL     1      48.392   5.582  16.759  0.00  0.00    +0.000 A 
BRANCH  13  14
ATOM     14  O   UNL     1      48.602   6.928  16.581  0.00  0.00    +0.000 OA
ATOM     15  C   UNL     1      48.940   7.671  17.752  0.00  0.00    +0.000 C 
ENDBRANCH  13  14
ENDBRANCH   6   8
ENDBRANCH   1   2
BRANCH   1  17
ATOM     16  C   UNL     1      42.117   5.790  11.828  0.00  0.00    +0.000 C 
ATOM     17  C   UNL     1      43.251   5.239  12.688  0.00  0.00    +0.000 C 
ENDBRANCH   1  17
BRANCH   1  18
ATOM     18  C   UNL     1      44.595   3.308  11.714  0.00  0.00    +0.000 C 
BRANCH  18  19
ATOM     19  O   UNL     1      43.984   2.933  10.468  0.00  0.00    +0.000 OA
BRANCH  19  20
ATOM     20  C   UNL     1      44.894   2.799   9.442  0.00  0.00    +0.000 A 
ATOM     21  C   UNL     1      45.254   3.951   8.763  0.00  0.00    +0.000 A 
ATOM     22  C   UNL     1      46.137   3.846   7.689  0.00  0.00    +0.000 A 
ATOM     23  C   UNL     1      46.631   2.588   7.334  0.00  0.00    +0.000 A 
ATOM     24  C   UNL     1      46.215   1.493   8.079  0.00  0.00    +0.000 A 
ATOM     25  N   UNL     1      45.362   1.570   9.127  0.00  0.00    +0.000 NA
BRANCH  23  26
ATOM     26  C   UNL     1      47.529   2.357   6.185  0.00  0.00    +0.000 C 
ATOM     27  N   UNL     1      47.316   3.094   5.055  0.00  0.00    +0.000 N 
ATOM     28  O   UNL     1      48.446   1.549   6.249  0.00  0.00    +0.000 OA
ATOM     29  H   UNL     1      46.710   3.899   5.020  0.00  0.00    +0.000 HD
ATOM     30  H   UNL     1      47.986   2.974   4.305  0.00  0.00    +0.000 HD
ENDBRANCH  23  26
ENDBRANCH  19  20
ENDBRANCH  18  19
ENDBRANCH   1  18
TORSDOF 8
ENDMDL
MODEL 3
REMARK VINA RESULT:    -7.921      1.114      1.891
REMARK INTER + INTRA:         -12.737
REMARK INTER:                 -12.019
REMARK INTRA:                  -0.718
REMARK UNBOUND:                -1.112
REMARK  Name = 
REMARK  10 active torsions:
REMARK  status: ('A' for Active; 'I' for Inactive)
REMARK    1  A    between atoms: C_1  and  C_2
REMARK    2  A    between atoms: C_2  and  C_3
REMARK    3  A    between atoms: C_3  and  C_4
REMARK    4  A    between atoms: C_3  and  C_15
REMARK    5  A    between atoms: C_4  and  O_5
REMARK    6  A    between atoms: O_5  and  C_6
REMARK    7  A    between atoms: C_9  and  C_10
REMARK    8  A    between atoms: C_19  and  C_20
REMARK    9  A    between atoms: C_25  and  O_26
REMARK   10  A    between atoms: O_26  and  C_27
REMARK                            x       y       z     vdW  Elec       q    Type
REMARK                         _______ _______ _______ _____ _____    ______ ____
ROOT
ATOM      1  C   UNL     1      44.627   5.194  11.137  0.00  0.00    +0.000 C 
ENDROOT
BRANCH   1   2
ATOM      2  C   UNL     1      45.868   5.556  11.942  0.00  0.00    +0.000 A 
ATOM      3  C   UNL     1      46.266   4.836  13.072  0.00  0.00    +0.000 A 
ATOM      4  C   UNL     1      47.367   5.256  13.811  0.00  0.00    +0.000 A 
ATOM      5  C   UNL     1      48.067   6.412  13.447  0.00  0.00    +0.000 A 
ATOM      6  C   UNL     1      47.721   7.158  12.310  0.00  0.00    +0.000 A 
ATOM      7  C   UNL     1      46.623   6.677  11.560  0.00  0.00    +0.000 A 
BRANCH   6   8
ATOM      8  C   UNL     1      48.401   8.439  11.940  0.00  0.00    +0.000 A 
ATOM      9  C   UNL     1      47.680   9.648  12.097  0.00  0.00    +0.000 A 
ATOM     10  C   UNL     1      48.236  10.898  11.818  0.00  0.00    +0.000 A 
ATOM     11  C   UNL     1      49.540  10.982  11.372  0.00  0.00    +0.000 A 
ATOM     12  C   UNL     1      50.285   9.817  11.196  0.00  0.00    +0.000 A 
ATOM     13  C   UNL     1      49.740   8.550  11.487  0.00  0.00    +0.000 A 
BRANCH  13  14
ATOM     14  O   UNL     1      50.472   7.403  11.294  0.00  0.00    +0.000 OA
ATOM     15  C   UNL     1      51.727   7.562  10.633  0.00  0.00    +0.000 C 
ENDBRANCH  13  14
ENDBRANCH   6   8
ENDBRANCH   1   2
BRANCH   1  17
ATOM     16  C   UNL     1      42.202   5.593  11.892  0.00  0.00    +0.000 C 
ATOM     17  C   UNL     1      43.486   6.217  11.351  0.00  0.00    +0.000 C 
ENDBRANCH   1  17
BRANCH   1  18
ATOM     18  C   UNL     1      44.153   3.762  11.451  0.00  0.00    +0.000 C 
BRANCH  18  19
ATOM     19  O   UNL     1      43.672   3.153  10.241  0.00  0.00    +0.000 OA
BRANCH  19  20
ATOM     20  C   UNL     1      44.663   2.965   9.302  0.00  0.00    +0.000 A 
ATOM     21  C   UNL     1      45.034   4.066   8.547  0.00  0.00    +0.000 A 
ATOM     22  C   UNL     1      46.000   3.901   7.556  0.00  0.00    +0.000 A 
ATOM     23  C   UNL     1      46.565   2.639   7.358  0.00  0.00    +0.000 A 
ATOM     24  C   UNL     1      46.131   1.599   8.170  0.00  0.00    +0.000 A 
ATOM     25  N   UNL     1      45.198   1.734   9.139  0.00  0.00    +0.000 NA
BRANCH  23  26
ATOM     26  C   UNL     1      47.557   2.343   6.305  0.00  0.00    +0.000 C 
ATOM     27  N   UNL     1      47.441   3.009   5.118  0.00  0.00    +0.000 N 
ATOM     28  O   UNL     1      48.465   1.545   6.496  0.00  0.00    +0.000 OA
ATOM     29  H   UNL     1      46.839   3.807   4.983  0.00  0.00    +0.000 HD
ATOM     30  H   UNL     1      48.172   2.847   4.436  0.00  0.00    +0.000 HD
ENDBRANCH  23  26
ENDBRANCH  19  20
ENDBRANCH  18  19
ENDBRANCH   1  18
TORSDOF 8
ENDMDL
MODEL 4
REMARK VINA RESULT:    -7.325      3.458      7.836
REMARK INTER + INTRA:         -11.864
REMARK INTER:                 -10.485
REMARK INTRA:                  -1.379
REMARK UNBOUND:                -1.112
REMARK  Name = 
REMARK  10 active torsions:
REMARK  status: ('A' for Active; 'I' for Inactive)
REMARK    1  A    between atoms: C_1  and  C_2
REMARK    2  A    between atoms: C_2  and  C_3
REMARK    3  A    between atoms: C_3  and  C_4
REMARK    4  A    between atoms: C_3  and  C_15
REMARK    5  A    between atoms: C_4  and  O_5
REMARK    6  A    between atoms: O_5  and  C_6
REMARK    7  A    between atoms: C_9  and  C_10
REMARK    8  A    between atoms: C_19  and  C_20
REMARK    9  A    between atoms: C_25  and  O_26
REMARK   10  A    between atoms: O_26  and  C_27
REMARK                            x       y       z     vdW  Elec       q    Type
REMARK                         _______ _______ _______ _____ _____    ______ ____
ROOT
ATOM      1  C   UNL     1      49.244   8.218  12.434  0.00  0.00    +0.000 C 
ENDROOT
BRANCH   1   2
ATOM      2  C   UNL     1      47.742   8.069  12.232  0.00  0.00    +0.000 A 
ATOM      3  C   UNL     1      46.818   8.969  12.771  0.00  0.00    +0.000 A 
ATOM      4  C   UNL     1      45.454   8.742  12.615  0.00  0.00    +0.000 A 
ATOM      5  C   UNL     1      44.996   7.603  11.944  0.00  0.00    +0.000 A 
ATOM      6  C   UNL     1      45.882   6.680  11.367  0.00  0.00    +0.000 A 
ATOM      7  C   UNL     1      47.259   6.965  11.509  0.00  0.00    +0.000 A 
BRANCH   6   8
ATOM      8  C   UNL     1      45.424   5.415  10.712  0.00  0.00    +0.000 A 
ATOM      9  C   UNL     1      45.676   5.248   9.328  0.00  0.00    +0.000 A 
ATOM     10  C   UNL     1      45.324   4.090   8.632  0.00  0.00    +0.000 A 
ATOM     11  C   UNL     1      44.707   3.053   9.301  0.00  0.00    +0.000 A 
ATOM     12  C   UNL     1      44.431   3.175  10.662  0.00  0.00    +0.000 A 
ATOM     13  C   UNL     1      44.794   4.334  11.378  0.00  0.00    +0.000 A 
BRANCH  13  14
ATOM     14  O   UNL     1      44.504   4.458  12.716  0.00  0.00    +0.000 OA
ATOM     15  C   UNL     1      43.119   4.527  13.055  0.00  0.00    +0.000 C 
ENDBRANCH  13  14
ENDBRANCH   6   8
ENDBRANCH   1   2
BRANCH   1  17
ATOM     16  C   UNL     1      51.502   8.365  11.214  0.00  0.00    +0.000 C 
ATOM     17  C   UNL     1      50.024   7.997  11.117  0.00  0.00    +0.000 C 
ENDBRANCH   1  17
BRANCH   1  18
ATOM     18  C   UNL     1      49.755   7.281  13.546  0.00  0.00    +0.000 C 
BRANCH  18  19
ATOM     19  O   UNL     1      49.222   7.718  14.807  0.00  0.00    +0.000 OA
BRANCH  19  20
ATOM     20  C   UNL     1      48.771   6.677  15.590  0.00  0.00    +0.000 A 
ATOM     21  C   UNL     1      49.151   6.679  16.922  0.00  0.00    +0.000 A 
ATOM     22  C   UNL     1      48.751   5.617  17.732  0.00  0.00    +0.000 A 
ATOM     23  C   UNL     1      47.982   4.590  17.179  0.00  0.00    +0.000 A 
ATOM     24  C   UNL     1      47.648   4.681  15.834  0.00  0.00    +0.000 A 
ATOM     25  N   UNL     1      48.021   5.702  15.029  0.00  0.00    +0.000 NA
BRANCH  23  26
ATOM     26  C   UNL     1      47.549   3.396  17.932  0.00  0.00    +0.000 C 
ATOM     27  N   UNL     1      48.238   3.078  19.067  0.00  0.00    +0.000 N 
ATOM     28  O   UNL     1      46.592   2.727  17.565  0.00  0.00    +0.000 OA
ATOM     29  H   UNL     1      48.898   3.698  19.513  0.00  0.00    +0.000 HD
ATOM     30  H   UNL     1      47.882   2.300  19.609  0.00  0.00    +0.000 HD
ENDBRANCH  23  26
ENDBRANCH  19  20
ENDBRANCH  18  19
ENDBRANCH   1  18
TORSDOF 8
ENDMDL
MODEL 5
REMARK VINA RESULT:    -7.164      2.800      4.324
REMARK INTER + INTRA:         -11.627
REMARK INTER:                 -10.807
REMARK INTRA:                  -0.820
REMARK UNBOUND:                -1.112
REMARK  Name = 
REMARK  10 active torsions:
REMARK  status: ('A' for Active; 'I' for Inactive)
REMARK    1  A    between atoms: C_1  and  C_2
REMARK    2  A    between atoms: C_2  and  C_3
REMARK    3  A    between atoms: C_3  and  C_4
REMARK    4  A    between atoms: C_3  and  C_15
REMARK    5  A    between atoms: C_4  and  O_5
REMARK    6  A    between atoms: O_5  and  C_6
REMARK    7  A    between atoms: C_9  and  C_10
REMARK    8  A    between atoms: C_19  and  C_20
REMARK    9  A    between atoms: C_25  and  O_26
REMARK   10  A    between atoms: O_26  and  C_27
REMARK                            x       y       z     vdW  Elec       q    Type
REMARK                         _______ _______ _______ _____ _____    ______ ____
ROOT
ATOM      1  C   UNL     1      43.472   5.551  11.981  0.00  0.00    +0.000 C 
ENDROOT
BRANCH   1   2
ATOM      2  C   UNL     1      44.138   6.917  11.885  0.00  0.00    +0.000 A 
ATOM      3  C   UNL     1      45.260   7.261  12.644  0.00  0.00    +0.000 A 
ATOM      4  C   UNL     1      45.782   8.549  12.570  0.00  0.00    +0.000 A 
ATOM      5  C   UNL     1      45.177   9.514  11.758  0.00  0.00    +0.000 A 
ATOM      6  C   UNL     1      44.061   9.214  10.960  0.00  0.00    +0.000 A 
ATOM      7  C   UNL     1      43.584   7.886  11.030  0.00  0.00    +0.000 A 
BRANCH   6   8
ATOM      8  C   UNL     1      43.346  10.244  10.143  0.00  0.00    +0.000 A 
ATOM      9  C   UNL     1      44.007  10.775   9.007  0.00  0.00    +0.000 A 
ATOM     10  C   UNL     1      43.413  11.710   8.159  0.00  0.00    +0.000 A 
ATOM     11  C   UNL     1      42.129  12.148   8.417  0.00  0.00    +0.000 A 
ATOM     12  C   UNL     1      41.443  11.659   9.527  0.00  0.00    +0.000 A 
ATOM     13  C   UNL     1      42.027  10.704  10.384  0.00  0.00    +0.000 A 
BRANCH  13  14
ATOM     14  O   UNL     1      41.354  10.238  11.489  0.00  0.00    +0.000 OA
ATOM     15  C   UNL     1      39.929  10.231  11.399  0.00  0.00    +0.000 C 
ENDBRANCH  13  14
ENDBRANCH   6   8
ENDBRANCH   1   2
BRANCH   1  17
ATOM     16  C   UNL     1      45.105   3.709  12.723  0.00  0.00    +0.000 C 
ATOM     17  C   UNL     1      44.042   4.717  13.152  0.00  0.00    +0.000 C 
ENDBRANCH   1  17
BRANCH   1  18
ATOM     18  C   UNL     1      43.579   4.782  10.650  0.00  0.00    +0.000 C 
BRANCH  18  19
ATOM     19  O   UNL     1      44.648   5.343   9.871  0.00  0.00    +0.000 OA
BRANCH  19  20
ATOM     20  C   UNL     1      45.281   4.412   9.076  0.00  0.00    +0.000 A 
ATOM     21  C   UNL     1      44.982   3.079   9.306  0.00  0.00    +0.000 A 
ATOM     22  C   UNL     1      45.638   2.108   8.552  0.00  0.00    +0.000 A 
ATOM     23  C   UNL     1      46.571   2.506   7.591  0.00  0.00    +0.000 A 
ATOM     24  C   UNL     1      46.798   3.867   7.431  0.00  0.00    +0.000 A 
ATOM     25  N   UNL     1      46.172   4.828   8.148  0.00  0.00    +0.000 NA
BRANCH  23  26
ATOM     26  C   UNL     1      47.359   1.561   6.775  0.00  0.00    +0.000 C 
ATOM     27  N   UNL     1      48.469   2.042   6.141  0.00  0.00    +0.000 N 
ATOM     28  O   UNL     1      47.042   0.382   6.688  0.00  0.00    +0.000 OA
ATOM     29  H   UNL     1      48.877   2.943   6.337  0.00  0.00    +0.000 HD
ATOM     30  H   UNL     1      49.036   1.364   5.647  0.00  0.00    +0.000 HD
ENDBRANCH  23  26
ENDBRANCH  19  20
ENDBRANCH  18  19
ENDBRANCH   1  18
TORSDOF 8
ENDMDL
MODEL 6
REMARK VINA RESULT:    -7.106      3.479      7.921
REMARK INTER + INTRA:         -11.541
REMARK INTER:                 -10.089
REMARK INTRA:                  -1.452
REMARK UNBOUND:                -1.112
REMARK  Name = 
REMARK  10 active torsions:
REMARK  status: ('A' for Active; 'I' for Inactive)
REMARK    1  A    between atoms: C_1  and  C_2
REMARK    2  A    between atoms: C_2  and  C_3
REMARK    3  A    between atoms: C_3  and  C_4
REMARK    4  A    between atoms: C_3  and  C_15
REMARK    5  A    between atoms: C_4  and  O_5
REMARK    6  A    between atoms: O_5  and  C_6
REMARK    7  A    between atoms: C_9  and  C_10
REMARK    8  A    between atoms: C_19  and  C_20
REMARK    9  A    between atoms: C_25  and  O_26
REMARK   10  A    between atoms: O_26  and  C_27
REMARK                            x       y       z     vdW  Elec       q    Type
REMARK                         _______ _______ _______ _____ _____    ______ ____
ROOT
ATOM      1  C   UNL     1      48.902   8.520  12.655  0.00  0.00    +0.000 C 
ENDROOT
BRANCH   1   2
ATOM      2  C   UNL     1      47.444   8.446  12.221  0.00  0.00    +0.000 A 
ATOM      3  C   UNL     1      46.655   9.585  12.043  0.00  0.00    +0.000 A 
ATOM      4  C   UNL     1      45.309   9.454  11.716  0.00  0.00    +0.000 A 
ATOM      5  C   UNL     1      44.729   8.186  11.590  0.00  0.00    +0.000 A 
ATOM      6  C   UNL     1      45.483   7.011  11.739  0.00  0.00    +0.000 A 
ATOM      7  C   UNL     1      46.855   7.184  12.029  0.00  0.00    +0.000 A 
BRANCH   6   8
ATOM      8  C   UNL     1      44.876   5.645  11.687  0.00  0.00    +0.000 A 
ATOM      9  C   UNL     1      44.213   5.163  12.843  0.00  0.00    +0.000 A 
ATOM     10  C   UNL     1      43.581   3.919  12.885  0.00  0.00    +0.000 A 
ATOM     11  C   UNL     1      43.588   3.111  11.766  0.00  0.00    +0.000 A 
ATOM     12  C   UNL     1      44.235   3.540  10.609  0.00  0.00    +0.000 A 
ATOM     13  C   UNL     1      44.866   4.800  10.549  0.00  0.00    +0.000 A 
BRANCH  13  14
ATOM     14  O   UNL     1      45.519   5.212   9.412  0.00  0.00    +0.000 OA
ATOM     15  C   UNL     1      45.776   4.202   8.435  0.00  0.00    +0.000 C 
ENDBRANCH  13  14
ENDBRANCH   6   8
ENDBRANCH   1   2
BRANCH   1  17
ATOM     16  C   UNL     1      50.870   7.938  11.106  0.00  0.00    +0.000 C 
ATOM     17  C   UNL     1      49.821   8.976  11.498  0.00  0.00    +0.000 C 
ENDBRANCH   1  17
BRANCH   1  18
ATOM     18  C   UNL     1      49.379   7.180  13.247  0.00  0.00    +0.000 C 
BRANCH  18  19
ATOM     19  O   UNL     1      49.716   7.374  14.630  0.00  0.00    +0.000 OA
BRANCH  19  20
ATOM     20  C   UNL     1      49.171   6.415  15.456  0.00  0.00    +0.000 A 
ATOM     21  C   UNL     1      49.798   6.197  16.672  0.00  0.00    +0.000 A 
ATOM     22  C   UNL     1      49.301   5.202  17.512  0.00  0.00    +0.000 A 
ATOM     23  C   UNL     1      48.189   4.461  17.106  0.00  0.00    +0.000 A 
ATOM     24  C   UNL     1      47.626   4.757  15.871  0.00  0.00    +0.000 A 
ATOM     25  N   UNL     1      48.088   5.719  15.040  0.00  0.00    +0.000 NA
BRANCH  23  26
ATOM     26  C   UNL     1      47.613   3.352  17.893  0.00  0.00    +0.000 C 
ATOM     27  N   UNL     1      48.220   3.030  19.074  0.00  0.00    +0.000 N 
ATOM     28  O   UNL     1      46.615   2.755  17.513  0.00  0.00    +0.000 OA
ATOM     29  H   UNL     1      48.914   3.610  19.521  0.00  0.00    +0.000 HD
ATOM     30  H   UNL     1      47.768   2.318  19.634  0.00  0.00    +0.000 HD
ENDBRANCH  23  26
ENDBRANCH  19  20
ENDBRANCH  18  19
ENDBRANCH   1  18
TORSDOF 8
ENDMDL
MODEL 7
REMARK VINA RESULT:    -6.547      3.196      6.231
REMARK INTER + INTRA:         -10.721
REMARK INTER:                  -9.203
REMARK INTRA:                  -1.518
REMARK UNBOUND:                -1.112
REMARK  Name = 
REMARK  10 active torsions:
REMARK  status: ('A' for Active; 'I' for Inactive)
REMARK    1  A    between atoms: C_1  and  C_2
REMARK    2  A    between atoms: C_2  and  C_3
REMARK    3  A    between atoms: C_3  and  C_4
REMARK    4  A    between atoms: C_3  and  C_15
REMARK    5  A    between atoms: C_4  and  O_5
REMARK    6  A    between atoms: O_5  and  C_6
REMARK    7  A    between atoms: C_9  and  C_10
REMARK    8  A    between atoms: C_19  and  C_20
REMARK    9  A    between atoms: C_25  and  O_26
REMARK   10  A    between atoms: O_26  and  C_27
REMARK                            x       y       z     vdW  Elec       q    Type
REMARK                         _______ _______ _______ _____ _____    ______ ____
ROOT
ATOM      1  C   UNL     1      48.163   7.896  12.600  0.00  0.00    +0.000 C 
ENDROOT
BRANCH   1   2
ATOM      2  C   UNL     1      48.388   8.007  14.102  0.00  0.00    +0.000 A 
ATOM      3  C   UNL     1      48.126   9.180  14.816  0.00  0.00    +0.000 A 
ATOM      4  C   UNL     1      48.418   9.247  16.174  0.00  0.00    +0.000 A 
ATOM      5  C   UNL     1      48.998   8.155  16.830  0.00  0.00    +0.000 A 
ATOM      6  C   UNL     1      49.262   6.948  16.164  0.00  0.00    +0.000 A 
ATOM      7  C   UNL     1      48.913   6.903  14.795  0.00  0.00    +0.000 A 
BRANCH   6   8
ATOM      8  C   UNL     1      49.952   5.792  16.818  0.00  0.00    +0.000 A 
ATOM      9  C   UNL     1      51.361   5.846  16.957  0.00  0.00    +0.000 A 
ATOM     10  C   UNL     1      52.095   4.839  17.587  0.00  0.00    +0.000 A 
ATOM     11  C   UNL     1      51.441   3.739  18.103  0.00  0.00    +0.000 A 
ATOM     12  C   UNL     1      50.055   3.639  17.982  0.00  0.00    +0.000 A 
ATOM     13  C   UNL     1      49.302   4.656  17.361  0.00  0.00    +0.000 A 
BRANCH  13  14
ATOM     14  O   UNL     1      47.938   4.545  17.227  0.00  0.00    +0.000 OA
ATOM     15  C   UNL     1      47.477   3.690  16.180  0.00  0.00    +0.000 C 
ENDBRANCH  13  14
ENDBRANCH   6   8
ENDBRANCH   1   2
BRANCH   1  17
ATOM     16  C   UNL     1      50.344   7.811  11.240  0.00  0.00    +0.000 C 
ATOM     17  C   UNL     1      49.227   8.687  11.802  0.00  0.00    +0.000 C 
ENDBRANCH   1  17
BRANCH   1  18
ATOM     18  C   UNL     1      46.739   8.337  12.212  0.00  0.00    +0.000 C 
BRANCH  18  19
ATOM     19  O   UNL     1      45.800   7.728  13.114  0.00  0.00    +0.000 OA
BRANCH  19  20
ATOM     20  C   UNL     1      45.310   6.526  12.650  0.00  0.00    +0.000 A 
ATOM     21  C   UNL     1      45.744   5.378  13.292  0.00  0.00    +0.000 A 
ATOM     22  C   UNL     1      45.305   4.142  12.820  0.00  0.00    +0.000 A 
ATOM     23  C   UNL     1      44.443   4.100  11.721  0.00  0.00    +0.000 A 
ATOM     24  C   UNL     1      44.061   5.306  11.148  0.00  0.00    +0.000 A 
ATOM     25  N   UNL     1      44.471   6.517  11.590  0.00  0.00    +0.000 NA
BRANCH  23  26
ATOM     26  C   UNL     1      43.960   2.846  11.109  0.00  0.00    +0.000 C 
ATOM     27  N   UNL     1      44.668   2.339  10.057  0.00  0.00    +0.000 N 
ATOM     28  O   UNL     1      42.972   2.269  11.542  0.00  0.00    +0.000 OA
ATOM     29  H   UNL     1      45.586   2.664   9.793  0.00  0.00    +0.000 HD
ATOM     30  H   UNL     1      44.364   1.442   9.698  0.00  0.00    +0.000 HD
ENDBRANCH  23  26
ENDBRANCH  19  20
ENDBRANCH  18  19
ENDBRANCH   1  18
TORSDOF 8
ENDMDL
MODEL 8
REMARK VINA RESULT:    -6.469      3.157      6.403
REMARK INTER + INTRA:         -10.607
REMARK INTER:                  -9.188
REMARK INTRA:                  -1.420
REMARK UNBOUND:                -1.112
REMARK  Name = 
REMARK  10 active torsions:
REMARK  status: ('A' for Active; 'I' for Inactive)
REMARK    1  A    between atoms: C_1  and  C_2
REMARK    2  A    between atoms: C_2  and  C_3
REMARK    3  A    between atoms: C_3  and  C_4
REMARK    4  A    between atoms: C_3  and  C_15
REMARK    5  A    between atoms: C_4  and  O_5
REMARK    6  A    between atoms: O_5  and  C_6
REMARK    7  A    between atoms: C_9  and  C_10
REMARK    8  A    between atoms: C_19  and  C_20
REMARK    9  A    between atoms: C_25  and  O_26
REMARK   10  A    between atoms: O_26  and  C_27
REMARK                            x       y       z     vdW  Elec       q    Type
REMARK                         _______ _______ _______ _____ _____    ______ ____
ROOT
ATOM      1  C   UNL     1      47.978   7.965  12.530  0.00  0.00    +0.000 C 
ENDROOT
BRANCH   1   2
ATOM      2  C   UNL     1      48.202   7.979  14.036  0.00  0.00    +0.000 A 
ATOM      3  C   UNL     1      48.239   9.162  14.779  0.00  0.00    +0.000 A 
ATOM      4  C   UNL     1      48.519   9.120  16.141  0.00  0.00    +0.000 A 
ATOM      5  C   UNL     1      48.790   7.900  16.772  0.00  0.00    +0.000 A 
ATOM      6  C   UNL     1      48.744   6.682  16.076  0.00  0.00    +0.000 A 
ATOM      7  C   UNL     1      48.416   6.761  14.704  0.00  0.00    +0.000 A 
BRANCH   6   8
ATOM      8  C   UNL     1      49.105   5.373  16.705  0.00  0.00    +0.000 A 
ATOM      9  C   UNL     1      48.085   4.403  16.864  0.00  0.00    +0.000 A 
ATOM     10  C   UNL     1      48.325   3.138  17.403  0.00  0.00    +0.000 A 
ATOM     11  C   UNL     1      49.602   2.797  17.802  0.00  0.00    +0.000 A 
ATOM     12  C   UNL     1      50.636   3.723  17.672  0.00  0.00    +0.000 A 
ATOM     13  C   UNL     1      50.409   4.999  17.117  0.00  0.00    +0.000 A 
BRANCH  13  14
ATOM     14  O   UNL     1      51.428   5.915  17.008  0.00  0.00    +0.000 OA
ATOM     15  C   UNL     1      52.743   5.427  17.274  0.00  0.00    +0.000 C 
ENDBRANCH  13  14
ENDBRANCH   6   8
ENDBRANCH   1   2
BRANCH   1  17
ATOM     16  C   UNL     1      50.297   8.022  11.421  0.00  0.00    +0.000 C 
ATOM     17  C   UNL     1      49.040   8.808  11.786  0.00  0.00    +0.000 C 
ENDBRANCH   1  17
BRANCH   1  18
ATOM     18  C   UNL     1      46.553   8.426  12.171  0.00  0.00    +0.000 C 
BRANCH  18  19
ATOM     19  O   UNL     1      45.620   7.802  13.069  0.00  0.00    +0.000 OA
BRANCH  19  20
ATOM     20  C   UNL     1      45.154   6.591  12.606  0.00  0.00    +0.000 A 
ATOM     21  C   UNL     1      45.523   5.460  13.314  0.00  0.00    +0.000 A 
ATOM     22  C   UNL     1      45.108   4.214  12.847  0.00  0.00    +0.000 A 
ATOM     23  C   UNL     1      44.335   4.145  11.686  0.00  0.00    +0.000 A 
ATOM     24  C   UNL     1      44.012   5.336  11.048  0.00  0.00    +0.000 A 
ATOM     25  N   UNL     1      44.400   6.556  11.484  0.00  0.00    +0.000 NA
BRANCH  23  26
ATOM     26  C   UNL     1      43.886   2.877  11.076  0.00  0.00    +0.000 C 
ATOM     27  N   UNL     1      44.647   2.351  10.072  0.00  0.00    +0.000 N 
ATOM     28  O   UNL     1      42.879   2.304  11.472  0.00  0.00    +0.000 OA
ATOM     29  H   UNL     1      45.576   2.675   9.847  0.00  0.00    +0.000 HD
ATOM     30  H   UNL     1      44.363   1.446   9.717  0.00  0.00    +0.000 HD
ENDBRANCH  23  26
ENDBRANCH  19  20
ENDBRANCH  18  19
ENDBRANCH   1  18
TORSDOF 8
ENDMDL
MODEL 9
REMARK VINA RESULT:    -6.382      3.892      6.591
REMARK INTER + INTRA:         -10.479
REMARK INTER:                  -9.079
REMARK INTRA:                  -1.401
REMARK UNBOUND:                -1.112
REMARK  Name = 
REMARK  10 active torsions:
REMARK  status: ('A' for Active; 'I' for Inactive)
REMARK    1  A    between atoms: C_1  and  C_2
REMARK    2  A    between atoms: C_2  and  C_3
REMARK    3  A    between atoms: C_3  and  C_4
REMARK    4  A    between atoms: C_3  and  C_15
REMARK    5  A    between atoms: C_4  and  O_5
REMARK    6  A    between atoms: O_5  and  C_6
REMARK    7  A    between atoms: C_9  and  C_10
REMARK    8  A    between atoms: C_19  and  C_20
REMARK    9  A    between atoms: C_25  and  O_26
REMARK   10  A    between atoms: O_26  and  C_27
REMARK                            x       y       z     vdW  Elec       q    Type
REMARK                         _______ _______ _______ _____ _____    ______ ____
ROOT
ATOM      1  C   UNL     1      45.899   4.329  12.182  0.00  0.00    +0.000 C 
ENDROOT
BRANCH   1   2
ATOM      2  C   UNL     1      46.041   5.843  12.263  0.00  0.00    +0.000 A 
ATOM      3  C   UNL     1      44.947   6.706  12.160  0.00  0.00    +0.000 A 
ATOM      4  C   UNL     1      45.145   8.084  12.168  0.00  0.00    +0.000 A 
ATOM      5  C   UNL     1      46.438   8.614  12.251  0.00  0.00    +0.000 A 
ATOM      6  C   UNL     1      47.568   7.791  12.377  0.00  0.00    +0.000 A 
ATOM      7  C   UNL     1      47.323   6.399  12.408  0.00  0.00    +0.000 A 
BRANCH   6   8
ATOM      8  C   UNL     1      48.965   8.325  12.390  0.00  0.00    +0.000 A 
ATOM      9  C   UNL     1      49.310   9.321  11.443  0.00  0.00    +0.000 A 
ATOM     10  C   UNL     1      50.573   9.912  11.396  0.00  0.00    +0.000 A 
ATOM     11  C   UNL     1      51.541   9.526  12.302  0.00  0.00    +0.000 A 
ATOM     12  C   UNL     1      51.250   8.544  13.248  0.00  0.00    +0.000 A 
ATOM     13  C   UNL     1      49.973   7.949  13.313  0.00  0.00    +0.000 A 
BRANCH  13  14
ATOM     14  O   UNL     1      49.696   6.968  14.235  0.00  0.00    +0.000 OA
ATOM     15  C   UNL     1      50.174   7.198  15.560  0.00  0.00    +0.000 C 
ENDBRANCH  13  14
ENDBRANCH   6   8
ENDBRANCH   1   2
BRANCH   1  17
ATOM     16  C   UNL     1      43.582   3.216  12.269  0.00  0.00    +0.000 C 
ATOM     17  C   UNL     1      44.629   3.914  11.403  0.00  0.00    +0.000 C 
ENDBRANCH   1  17
BRANCH   1  18
ATOM     18  C   UNL     1      45.923   3.689  13.584  0.00  0.00    +0.000 C 
BRANCH  18  19
ATOM     19  O   UNL     1      47.248   3.199  13.850  0.00  0.00    +0.000 OA
BRANCH  19  20
ATOM     20  C   UNL     1      47.644   3.402  15.154  0.00  0.00    +0.000 A 
ATOM     21  C   UNL     1      47.206   4.560  15.774  0.00  0.00    +0.000 A 
ATOM     22  C   UNL     1      47.626   4.820  17.078  0.00  0.00    +0.000 A 
ATOM     23  C   UNL     1      48.469   3.908  17.716  0.00  0.00    +0.000 A 
ATOM     24  C   UNL     1      48.850   2.773  17.013  0.00  0.00    +0.000 A 
ATOM     25  N   UNL     1      48.453   2.497  15.750  0.00  0.00    +0.000 NA
BRANCH  23  26
ATOM     26  C   UNL     1      49.013   4.110  19.074  0.00  0.00    +0.000 C 
ATOM     27  N   UNL     1      48.465   3.384  20.093  0.00  0.00    +0.000 N 
ATOM     28  O   UNL     1      49.939   4.885  19.278  0.00  0.00    +0.000 OA
ATOM     29  H   UNL     1      47.846   2.600  19.949  0.00  0.00    +0.000 HD
ATOM     30  H   UNL     1      48.900   3.482  21.002  0.00  0.00    +0.000 HD
ENDBRANCH  23  26
ENDBRANCH  19  20
ENDBRANCH  18  19
ENDBRANCH   1  18
TORSDOF 8
ENDMDL
