MODEL 1
REMARK VINA RESULT:    -7.797      0.000      0.000
REMARK INTER + INTRA:         -11.666
REMARK INTER:                 -10.988
REMARK INTRA:                  -0.678
REMARK UNBOUND:                -0.678
REMARK  Name = 
REMARK  8 active torsions:
REMARK  status: ('A' for Active; 'I' for Inactive)
REMARK    1  A    between atoms: C_1  and  N_2
REMARK    2  A    between atoms: C_6  and  C_7
REMARK    3  A    between atoms: N_9  and  C_10
REMARK    4  A    between atoms: C_10  and  C_11
REMARK    5  A    between atoms: C_14  and  C_15
REMARK    6  A    between atoms: C_15  and  S_16
REMARK    7  A    between atoms: S_16  and  C_17
REMARK    8  A    between atoms: C_17  and  C_18
REMARK                            x       y       z     vdW  Elec       q    Type
REMARK                         _______ _______ _______ _____ _____    ______ ____
ROOT
ATOM      1  C   UNL     1      47.337   5.922  13.437  0.00  0.00    +0.000 A 
ATOM      2  C   UNL     1      46.804   4.729  13.947  0.00  0.00    +0.000 A 
ATOM      3  C   UNL     1      45.793   4.041  13.261  0.00  0.00    +0.000 A 
ATOM      4  C   UNL     1      45.282   4.528  12.051  0.00  0.00    +0.000 A 
ATOM      5  C   UNL     1      45.856   5.689  11.512  0.00  0.00    +0.000 A 
ATOM      6  C   UNL     1      46.869   6.378  12.198  0.00  0.00    +0.000 A 
ENDROOT
BRANCH   1   7
ATOM      7  C   UNL     1      48.390   6.686  14.209  0.00  0.00    +0.000 C 
BRANCH   7  10
ATOM      8  C   UNL     1      48.983   6.300  16.575  0.00  0.00    +0.000 C 
ATOM      9  O   UNL     1      50.074   5.815  16.292  0.00  0.00    +0.000 OA
ATOM     10  N   UNL     1      48.097   6.754  15.625  0.00  0.00    +0.000 N 
ATOM     11  H   UNL     1      47.326   7.341  15.922  0.00  0.00    +0.000 HD
BRANCH   8  17
ATOM     12  C   UNL     1      46.952   8.882  21.815  0.00  0.00    +0.000 C 
ATOM     13  N   UNL     1      47.391   8.644  20.462  0.00  0.00    +0.000 N 
ATOM     14  C   UNL     1      47.481   9.592  19.457  0.00  0.00    +0.000 A 
ATOM     15  C   UNL     1      47.929   8.968  18.296  0.00  0.00    +0.000 A 
ATOM     16  C   UNL     1      48.121   7.635  18.648  0.00  0.00    +0.000 A 
ATOM     17  C   UNL     1      48.547   6.478  17.961  0.00  0.00    +0.000 A 
ATOM     18  C   UNL     1      48.465   5.416  18.872  0.00  0.00    +0.000 A 
ATOM     19  S   UNL     1      47.928   5.889  20.463  0.00  0.00    +0.000 S 
ATOM     20  C   UNL     1      47.782   7.457  19.936  0.00  0.00    +0.000 A 
ENDBRANCH   8  17
ENDBRANCH   7  10
ENDBRANCH   1   7
BRANCH   4  21
ATOM     21  C   UNL     1      44.178   3.802  11.315  0.00  0.00    +0.000 C 
BRANCH  21  22
ATOM     22  S   UNL     1      44.327   3.801   9.494  0.00  0.00    +0.000 S 
BRANCH  22  23
ATOM     23  C   UNL     1      45.119   2.183   9.197  0.00  0.00    +0.000 C 
BRANCH  23  24
ATOM     24  C   UNL     1      46.037   2.241   7.999  0.00  0.00    +0.000 A 
ATOM     25  C   UNL     1      46.045   3.334   7.125  0.00  0.00    +0.000 A 
ATOM     26  C   UNL     1      46.899   3.339   6.023  0.00  0.00    +0.000 A 
ATOM     27  C   UNL     1      47.722   2.243   5.822  0.00  0.00    +0.000 A 
ATOM     28  N   UNL     1      47.743   1.168   6.638  0.00  0.00    +0.000 NA
ATOM     29  C   UNL     1      46.899   1.188   7.697  0.00  0.00    +0.000 A 
ENDBRANCH  23  24
ENDBRANCH  22  23
ENDBRANCH  21  22
ENDBRANCH   4  21
TORSDOF 7
ENDMDL
MODEL 2
REMARK VINA RESULT:    -7.714      1.130      1.774
REMARK INTER + INTRA:         -11.549
REMARK INTER:                 -10.836
REMARK INTRA:                  -0.713
REMARK UNBOUND:                -0.678
REMARK  Name = 
REMARK  8 active torsions:
REMARK  status: ('A' for Active; 'I' for Inactive)
REMARK    1  A    between atoms: C_1  and  N_2
REMARK    2  A    between atoms: C_6  and  C_7
REMARK    3  A    between atoms: N_9  and  C_10
REMARK    4  A    between atoms: C_10  and  C_11
REMARK    5  A    between atoms: C_14  and  C_15
REMARK    6  A    between atoms: C_15  and  S_16
REMARK    7  A    between atoms: S_16  and  C_17
REMARK    8  A    between atoms: C_17  and  C_18
REMARK                            x       y       z     vdW  Elec       q    Type
REMARK                         _______ _______ _______ _____ _____    ______ ____
ROOT
ATOM      1  C   UNL     1      47.304   6.301  13.145  0.00  0.00    +0.000 A 
ATOM      2  C   UNL     1      46.964   5.027  13.621  0.00  0.00    +0.000 A 
ATOM      3  C   UNL     1      45.973   4.263  12.988  0.00  0.00    +0.000 A 
ATOM      4  C   UNL     1      45.289   4.754  11.868  0.00  0.00    +0.000 A 
ATOM      5  C   UNL     1      45.670   6.004  11.357  0.00  0.00    +0.000 A 
ATOM      6  C   UNL     1      46.664   6.768  11.989  0.00  0.00    +0.000 A 
ENDROOT
BRANCH   1   7
ATOM      7  C   UNL     1      48.338   7.141  13.864  0.00  0.00    +0.000 C 
BRANCH   7  10
ATOM      8  C   UNL     1      48.977   6.772  16.220  0.00  0.00    +0.000 C 
ATOM      9  O   UNL     1      50.047   6.254  15.919  0.00  0.00    +0.000 OA
ATOM     10  N   UNL     1      48.080   7.237  15.285  0.00  0.00    +0.000 N 
ATOM     11  H   UNL     1      47.333   7.848  15.591  0.00  0.00    +0.000 HD
BRANCH   8  17
ATOM     12  C   UNL     1      47.819   5.791  22.217  0.00  0.00    +0.000 C 
ATOM     13  N   UNL     1      48.195   5.647  20.831  0.00  0.00    +0.000 N 
ATOM     14  C   UNL     1      48.689   4.497  20.238  0.00  0.00    +0.000 A 
ATOM     15  C   UNL     1      48.947   4.764  18.897  0.00  0.00    +0.000 A 
ATOM     16  C   UNL     1      48.572   6.092  18.710  0.00  0.00    +0.000 A 
ATOM     17  C   UNL     1      48.579   6.981  17.613  0.00  0.00    +0.000 A 
ATOM     18  C   UNL     1      48.129   8.218  18.096  0.00  0.00    +0.000 A 
ATOM     19  S   UNL     1      47.707   8.207  19.789  0.00  0.00    +0.000 S 
ATOM     20  C   UNL     1      48.142   6.605  19.875  0.00  0.00    +0.000 A 
ENDBRANCH   8  17
ENDBRANCH   7  10
ENDBRANCH   1   7
BRANCH   4  21
ATOM     21  C   UNL     1      44.205   3.945  11.192  0.00  0.00    +0.000 C 
BRANCH  21  22
ATOM     22  S   UNL     1      44.318   3.860   9.371  0.00  0.00    +0.000 S 
BRANCH  22  23
ATOM     23  C   UNL     1      45.139   2.246   9.135  0.00  0.00    +0.000 C 
BRANCH  23  24
ATOM     24  C   UNL     1      46.065   2.278   7.943  0.00  0.00    +0.000 A 
ATOM     25  C   UNL     1      46.059   3.338   7.028  0.00  0.00    +0.000 A 
ATOM     26  C   UNL     1      46.921   3.319   5.933  0.00  0.00    +0.000 A 
ATOM     27  C   UNL     1      47.768   2.235   5.780  0.00  0.00    +0.000 A 
ATOM     28  N   UNL     1      47.805   1.191   6.635  0.00  0.00    +0.000 NA
ATOM     29  C   UNL     1      46.952   1.233   7.686  0.00  0.00    +0.000 A 
ENDBRANCH  23  24
ENDBRANCH  22  23
ENDBRANCH  21  22
ENDBRANCH   4  21
TORSDOF 7
ENDMDL
MODEL 3
REMARK VINA RESULT:    -7.237      2.105      2.957
REMARK INTER + INTRA:         -10.877
REMARK INTER:                 -10.269
REMARK INTRA:                  -0.608
REMARK UNBOUND:                -0.678
REMARK  Name = 
REMARK  8 active torsions:
REMARK  status: ('A' for Active; 'I' for Inactive)
REMARK    1  A    between atoms: C_1  and  N_2
REMARK    2  A    between atoms: C_6  and  C_7
REMARK    3  A    between atoms: N_9  and  C_10
REMARK    4  A    between atoms: C_10  and  C_11
REMARK    5  A    between atoms: C_14  and  C_15
REMARK    6  A    between atoms: C_15  and  S_16
REMARK    7  A    between atoms: S_16  and  C_17
REMARK    8  A    between atoms: C_17  and  C_18
REMARK                            x       y       z     vdW  Elec       q    Type
REMARK                         _______ _______ _______ _____ _____    ______ ____
ROOT
ATOM      1  C   UNL     1      47.047   6.102  13.360  0.00  0.00    +0.000 A 
ATOM      2  C   UNL     1      46.800   4.821  13.874  0.00  0.00    +0.000 A 
ATOM      3  C   UNL     1      45.938   3.933  13.213  0.00  0.00    +0.000 A 
ATOM      4  C   UNL     1      45.293   4.304  12.026  0.00  0.00    +0.000 A 
ATOM      5  C   UNL     1      45.586   5.563  11.482  0.00  0.00    +0.000 A 
ATOM      6  C   UNL     1      46.450   6.452  12.142  0.00  0.00    +0.000 A 
ENDROOT
BRANCH   1   7
ATOM      7  C   UNL     1      47.937   7.072  14.107  0.00  0.00    +0.000 C 
BRANCH   7  10
ATOM      8  C   UNL     1      49.728   6.722  15.770  0.00  0.00    +0.000 C 
ATOM      9  O   UNL     1      50.543   7.377  15.128  0.00  0.00    +0.000 OA
ATOM     10  N   UNL     1      48.433   6.522  15.351  0.00  0.00    +0.000 N 
ATOM     11  H   UNL     1      47.755   6.172  16.018  0.00  0.00    +0.000 HD
BRANCH   8  17
ATOM     12  C   UNL     1      52.862   4.121  20.426  0.00  0.00    +0.000 C 
ATOM     13  N   UNL     1      52.478   4.712  19.166  0.00  0.00    +0.000 N 
ATOM     14  C   UNL     1      53.315   4.946  18.089  0.00  0.00    +0.000 A 
ATOM     15  C   UNL     1      52.575   5.541  17.071  0.00  0.00    +0.000 A 
ATOM     16  C   UNL     1      51.278   5.631  17.568  0.00  0.00    +0.000 A 
ATOM     17  C   UNL     1      50.055   6.130  17.068  0.00  0.00    +0.000 A 
ATOM     18  C   UNL     1      49.113   5.986  18.095  0.00  0.00    +0.000 A 
ATOM     19  S   UNL     1      49.747   5.243  19.540  0.00  0.00    +0.000 S 
ATOM     20  C   UNL     1      51.242   5.148  18.821  0.00  0.00    +0.000 A 
ENDBRANCH   8  17
ENDBRANCH   7  10
ENDBRANCH   1   7
BRANCH   4  21
ATOM     21  C   UNL     1      44.347   3.360  11.318  0.00  0.00    +0.000 C 
BRANCH  21  22
ATOM     22  S   UNL     1      44.330   3.497   9.496  0.00  0.00    +0.000 S 
BRANCH  22  23
ATOM     23  C   UNL     1      45.096   1.913   9.008  0.00  0.00    +0.000 C 
BRANCH  23  24
ATOM     24  C   UNL     1      46.056   2.107   7.859  0.00  0.00    +0.000 A 
ATOM     25  C   UNL     1      46.015   3.243   7.042  0.00  0.00    +0.000 A 
ATOM     26  C   UNL     1      46.912   3.374   5.983  0.00  0.00    +0.000 A 
ATOM     27  C   UNL     1      47.827   2.358   5.766  0.00  0.00    +0.000 A 
ATOM     28  N   UNL     1      47.899   1.244   6.525  0.00  0.00    +0.000 NA
ATOM     29  C   UNL     1      47.012   1.142   7.543  0.00  0.00    +0.000 A 
ENDBRANCH  23  24
ENDBRANCH  22  23
ENDBRANCH  21  22
ENDBRANCH   4  21
TORSDOF 7
ENDMDL
MODEL 4
REMARK VINA RESULT:    -6.841      4.125      6.434
REMARK INTER + INTRA:         -10.318
REMARK INTER:                  -9.608
REMARK INTRA:                  -0.711
REMARK UNBOUND:                -0.678
REMARK  Name = 
REMARK  8 active torsions:
REMARK  status: ('A' for Active; 'I' for Inactive)
REMARK    1  A    between atoms: C_1  and  N_2
REMARK    2  A    between atoms: C_6  and  C_7
REMARK    3  A    between atoms: N_9  and  C_10
REMARK    4  A    between atoms: C_10  and  C_11
REMARK    5  A    between atoms: C_14  and  C_15
REMARK    6  A    between atoms: C_15  and  S_16
REMARK    7  A    between atoms: S_16  and  C_17
REMARK    8  A    between atoms: C_17  and  C_18
REMARK                            x       y       z     vdW  Elec       q    Type
REMARK                         _______ _______ _______ _____ _____    ______ ____
ROOT
ATOM      1  C   UNL     1      46.965   6.669  13.242  0.00  0.00    +0.000 A 
ATOM      2  C   UNL     1      45.943   7.436  12.665  0.00  0.00    +0.000 A 
ATOM      3  C   UNL     1      44.846   6.823  12.044  0.00  0.00    +0.000 A 
ATOM      4  C   UNL     1      44.743   5.427  11.975  0.00  0.00    +0.000 A 
ATOM      5  C   UNL     1      45.737   4.661  12.602  0.00  0.00    +0.000 A 
ATOM      6  C   UNL     1      46.835   5.274  13.226  0.00  0.00    +0.000 A 
ENDROOT
BRANCH   1   7
ATOM      7  C   UNL     1      48.172   7.338  13.864  0.00  0.00    +0.000 C 
BRANCH   7  10
ATOM      8  C   UNL     1      50.315   8.303  13.105  0.00  0.00    +0.000 C 
ATOM      9  O   UNL     1      50.903   7.969  14.128  0.00  0.00    +0.000 OA
ATOM     10  N   UNL     1      48.982   8.035  12.888  0.00  0.00    +0.000 N 
ATOM     11  H   UNL     1      48.615   8.131  11.948  0.00  0.00    +0.000 HD
BRANCH   8  17
ATOM     12  C   UNL     1      53.498   9.329   7.902  0.00  0.00    +0.000 C 
ATOM     13  N   UNL     1      52.812   8.719   9.015  0.00  0.00    +0.000 N 
ATOM     14  C   UNL     1      52.653   7.359   9.227  0.00  0.00    +0.000 A 
ATOM     15  C   UNL     1      51.924   7.174  10.397  0.00  0.00    +0.000 A 
ATOM     16  C   UNL     1      51.676   8.456  10.881  0.00  0.00    +0.000 A 
ATOM     17  C   UNL     1      50.996   8.981  12.001  0.00  0.00    +0.000 A 
ATOM     18  C   UNL     1      51.049  10.376  11.885  0.00  0.00    +0.000 A 
ATOM     19  S   UNL     1      51.927  10.939  10.487  0.00  0.00    +0.000 S 
ATOM     20  C   UNL     1      52.198   9.362  10.038  0.00  0.00    +0.000 A 
ENDBRANCH   8  17
ENDBRANCH   7  10
ENDBRANCH   1   7
BRANCH   4  21
ATOM     21  C   UNL     1      43.573   4.758  11.289  0.00  0.00    +0.000 C 
BRANCH  21  22
ATOM     22  S   UNL     1      43.996   3.292  10.284  0.00  0.00    +0.000 S 
BRANCH  22  23
ATOM     23  C   UNL     1      44.785   4.065   8.831  0.00  0.00    +0.000 C 
BRANCH  23  24
ATOM     24  C   UNL     1      45.699   3.090   8.127  0.00  0.00    +0.000 A 
ATOM     25  C   UNL     1      46.467   3.463   7.018  0.00  0.00    +0.000 A 
ATOM     26  C   UNL     1      47.287   2.527   6.390  0.00  0.00    +0.000 A 
ATOM     27  C   UNL     1      47.313   1.235   6.889  0.00  0.00    +0.000 A 
ATOM     28  N   UNL     1      46.586   0.832   7.953  0.00  0.00    +0.000 NA
ATOM     29  C   UNL     1      45.795   1.762   8.539  0.00  0.00    +0.000 A 
ENDBRANCH  23  24
ENDBRANCH  22  23
ENDBRANCH  21  22
ENDBRANCH   4  21
TORSDOF 7
ENDMDL
MODEL 5
REMARK VINA RESULT:    -6.750      3.147      8.990
REMARK INTER + INTRA:         -10.191
REMARK INTER:                  -8.572
REMARK INTRA:                  -1.618
REMARK UNBOUND:                -0.678
REMARK  Name = 
REMARK  8 active torsions:
REMARK  status: ('A' for Active; 'I' for Inactive)
REMARK    1  A    between atoms: C_1  and  N_2
REMARK    2  A    between atoms: C_6  and  C_7
REMARK    3  A    between atoms: N_9  and  C_10
REMARK    4  A    between atoms: C_10  and  C_11
REMARK    5  A    between atoms: C_14  and  C_15
REMARK    6  A    between atoms: C_15  and  S_16
REMARK    7  A    between atoms: S_16  and  C_17
REMARK    8  A    between atoms: C_17  and  C_18
REMARK                            x       y       z     vdW  Elec       q    Type
REMARK                         _______ _______ _______ _____ _____    ______ ____
ROOT
ATOM      1  C   UNL     1      48.640   8.117  15.220  0.00  0.00    +0.000 A 
ATOM      2  C   UNL     1      48.488   8.683  16.493  0.00  0.00    +0.000 A 
ATOM      3  C   UNL     1      49.389   8.387  17.526  0.00  0.00    +0.000 A 
ATOM      4  C   UNL     1      50.463   7.510  17.317  0.00  0.00    +0.000 A 
ATOM      5  C   UNL     1      50.648   6.990  16.028  0.00  0.00    +0.000 A 
ATOM      6  C   UNL     1      49.747   7.288  14.993  0.00  0.00    +0.000 A 
ENDROOT
BRANCH   1   7
ATOM      7  C   UNL     1      47.633   8.400  14.126  0.00  0.00    +0.000 C 
BRANCH   7  10
ATOM      8  C   UNL     1      45.886   7.239  12.824  0.00  0.00    +0.000 C 
ATOM      9  O   UNL     1      45.365   8.289  12.462  0.00  0.00    +0.000 OA
ATOM     10  N   UNL     1      46.997   7.196  13.634  0.00  0.00    +0.000 N 
ATOM     11  H   UNL     1      47.508   6.325  13.712  0.00  0.00    +0.000 HD
BRANCH   8  17
ATOM     12  C   UNL     1      44.451   2.384   9.270  0.00  0.00    +0.000 C 
ATOM     13  N   UNL     1      44.919   3.658   9.763  0.00  0.00    +0.000 N 
ATOM     14  C   UNL     1      45.531   4.645   9.010  0.00  0.00    +0.000 A 
ATOM     15  C   UNL     1      45.847   5.711   9.848  0.00  0.00    +0.000 A 
ATOM     16  C   UNL     1      45.387   5.335  11.107  0.00  0.00    +0.000 A 
ATOM     17  C   UNL     1      45.392   5.933  12.386  0.00  0.00    +0.000 A 
ATOM     18  C   UNL     1      44.823   5.003  13.266  0.00  0.00    +0.000 A 
ATOM     19  S   UNL     1      44.303   3.525  12.498  0.00  0.00    +0.000 S 
ATOM     20  C   UNL     1      44.851   4.104  11.040  0.00  0.00    +0.000 A 
ENDBRANCH   8  17
ENDBRANCH   7  10
ENDBRANCH   1   7
BRANCH   4  21
ATOM     21  C   UNL     1      51.427   7.170  18.431  0.00  0.00    +0.000 C 
BRANCH  21  22
ATOM     22  S   UNL     1      51.817   5.394  18.607  0.00  0.00    +0.000 S 
BRANCH  22  23
ATOM     23  C   UNL     1      50.250   4.746  19.285  0.00  0.00    +0.000 C 
BRANCH  23  24
ATOM     24  C   UNL     1      49.355   4.230  18.183  0.00  0.00    +0.000 A 
ATOM     25  C   UNL     1      48.145   4.853  17.858  0.00  0.00    +0.000 A 
ATOM     26  C   UNL     1      47.343   4.334  16.843  0.00  0.00    +0.000 A 
ATOM     27  C   UNL     1      47.773   3.197  16.180  0.00  0.00    +0.000 A 
ATOM     28  N   UNL     1      48.931   2.563  16.463  0.00  0.00    +0.000 NA
ATOM     29  C   UNL     1      49.686   3.086  17.457  0.00  0.00    +0.000 A 
ENDBRANCH  23  24
ENDBRANCH  22  23
ENDBRANCH  21  22
ENDBRANCH   4  21
TORSDOF 7
ENDMDL
MODEL 6
REMARK VINA RESULT:    -6.654      3.215      9.676
REMARK INTER + INTRA:         -10.055
REMARK INTER:                  -9.133
REMARK INTRA:                  -0.923
REMARK UNBOUND:                -0.678
REMARK  Name = 
REMARK  8 active torsions:
REMARK  status: ('A' for Active; 'I' for Inactive)
REMARK    1  A    between atoms: C_1  and  N_2
REMARK    2  A    between atoms: C_6  and  C_7
REMARK    3  A    between atoms: N_9  and  C_10
REMARK    4  A    between atoms: C_10  and  C_11
REMARK    5  A    between atoms: C_14  and  C_15
REMARK    6  A    between atoms: C_15  and  S_16
REMARK    7  A    between atoms: S_16  and  C_17
REMARK    8  A    between atoms: C_17  and  C_18
REMARK                            x       y       z     vdW  Elec       q    Type
REMARK                         _______ _______ _______ _____ _____    ______ ____
ROOT
ATOM      1  C   UNL     1      46.540   7.518  12.548  0.00  0.00    +0.000 A 
ATOM      2  C   UNL     1      46.569   8.669  13.348  0.00  0.00    +0.000 A 
ATOM      3  C   UNL     1      47.707   8.996  14.099  0.00  0.00    +0.000 A 
ATOM      4  C   UNL     1      48.845   8.179  14.077  0.00  0.00    +0.000 A 
ATOM      5  C   UNL     1      48.837   7.059  13.232  0.00  0.00    +0.000 A 
ATOM      6  C   UNL     1      47.698   6.732  12.479  0.00  0.00    +0.000 A 
ENDROOT
BRANCH   1   7
ATOM      7  C   UNL     1      45.290   7.144  11.782  0.00  0.00    +0.000 C 
BRANCH   7  10
ATOM      8  C   UNL     1      44.388   5.157  10.625  0.00  0.00    +0.000 C 
ATOM      9  O   UNL     1      43.229   5.433  10.913  0.00  0.00    +0.000 OA
ATOM     10  N   UNL     1      45.459   5.935  11.004  0.00  0.00    +0.000 N 
ATOM     11  H   UNL     1      46.353   5.783  10.552  0.00  0.00    +0.000 HD
BRANCH   8  17
ATOM     12  C   UNL     1      46.960   1.547   6.311  0.00  0.00    +0.000 C 
ATOM     13  N   UNL     1      46.581   2.660   7.148  0.00  0.00    +0.000 N 
ATOM     14  C   UNL     1      47.062   3.955   7.047  0.00  0.00    +0.000 A 
ATOM     15  C   UNL     1      46.469   4.728   8.040  0.00  0.00    +0.000 A 
ATOM     16  C   UNL     1      45.612   3.862   8.714  0.00  0.00    +0.000 A 
ATOM     17  C   UNL     1      44.731   3.991   9.811  0.00  0.00    +0.000 A 
ATOM     18  C   UNL     1      44.197   2.717  10.047  0.00  0.00    +0.000 A 
ATOM     19  S   UNL     1      44.755   1.496   8.933  0.00  0.00    +0.000 S 
ATOM     20  C   UNL     1      45.703   2.633   8.180  0.00  0.00    +0.000 A 
ENDBRANCH   8  17
ENDBRANCH   7  10
ENDBRANCH   1   7
BRANCH   4  21
ATOM     21  C   UNL     1      50.069   8.514  14.899  0.00  0.00    +0.000 C 
BRANCH  21  22
ATOM     22  S   UNL     1      50.506   7.285  16.179  0.00  0.00    +0.000 S 
BRANCH  22  23
ATOM     23  C   UNL     1      48.856   6.788  16.781  0.00  0.00    +0.000 C 
BRANCH  23  24
ATOM     24  C   UNL     1      48.693   5.287  16.739  0.00  0.00    +0.000 A 
ATOM     25  C   UNL     1      49.517   4.432  17.480  0.00  0.00    +0.000 A 
ATOM     26  C   UNL     1      49.341   3.051  17.400  0.00  0.00    +0.000 A 
ATOM     27  C   UNL     1      48.344   2.561  16.574  0.00  0.00    +0.000 A 
ATOM     28  N   UNL     1      47.530   3.349  15.839  0.00  0.00    +0.000 NA
ATOM     29  C   UNL     1      47.728   4.686  15.932  0.00  0.00    +0.000 A 
ENDBRANCH  23  24
ENDBRANCH  22  23
ENDBRANCH  21  22
ENDBRANCH   4  21
TORSDOF 7
ENDMDL
MODEL 7
REMARK VINA RESULT:    -6.499      1.684      2.270
REMARK INTER + INTRA:          -9.836
REMARK INTER:                  -9.105
REMARK INTRA:                  -0.731
REMARK UNBOUND:                -0.678
REMARK  Name = 
REMARK  8 active torsions:
REMARK  status: ('A' for Active; 'I' for Inactive)
REMARK    1  A    between atoms: C_1  and  N_2
REMARK    2  A    between atoms: C_6  and  C_7
REMARK    3  A    between atoms: N_9  and  C_10
REMARK    4  A    between atoms: C_10  and  C_11
REMARK    5  A    between atoms: C_14  and  C_15
REMARK    6  A    between atoms: C_15  and  S_16
REMARK    7  A    between atoms: S_16  and  C_17
REMARK    8  A    between atoms: C_17  and  C_18
REMARK                            x       y       z     vdW  Elec       q    Type
REMARK                         _______ _______ _______ _____ _____    ______ ____
ROOT
ATOM      1  C   UNL     1      47.826   5.101  15.321  0.00  0.00    +0.000 A 
ATOM      2  C   UNL     1      46.962   4.168  14.730  0.00  0.00    +0.000 A 
ATOM      3  C   UNL     1      46.304   4.458  13.527  0.00  0.00    +0.000 A 
ATOM      4  C   UNL     1      46.483   5.690  12.884  0.00  0.00    +0.000 A 
ATOM      5  C   UNL     1      47.392   6.600  13.445  0.00  0.00    +0.000 A 
ATOM      6  C   UNL     1      48.053   6.310  14.649  0.00  0.00    +0.000 A 
ENDROOT
BRANCH   1   7
ATOM      7  C   UNL     1      48.492   4.802  16.646  0.00  0.00    +0.000 C 
BRANCH   7  10
ATOM      8  C   UNL     1      47.440   6.045  18.502  0.00  0.00    +0.000 C 
ATOM      9  O   UNL     1      46.544   5.219  18.636  0.00  0.00    +0.000 OA
ATOM     10  N   UNL     1      48.435   5.924  17.560  0.00  0.00    +0.000 N 
ATOM     11  H   UNL     1      49.259   6.507  17.646  0.00  0.00    +0.000 HD
BRANCH   8  17
ATOM     12  C   UNL     1      47.952  11.895  20.445  0.00  0.00    +0.000 C 
ATOM     13  N   UNL     1      47.840  10.701  19.643  0.00  0.00    +0.000 N 
ATOM     14  C   UNL     1      47.798  10.651  18.260  0.00  0.00    +0.000 A 
ATOM     15  C   UNL     1      47.671   9.322  17.867  0.00  0.00    +0.000 A 
ATOM     16  C   UNL     1      47.661   8.590  19.051  0.00  0.00    +0.000 A 
ATOM     17  C   UNL     1      47.552   7.219  19.370  0.00  0.00    +0.000 A 
ATOM     18  C   UNL     1      47.543   7.132  20.768  0.00  0.00    +0.000 A 
ATOM     19  S   UNL     1      47.699   8.670  21.576  0.00  0.00    +0.000 S 
ATOM     20  C   UNL     1      47.747   9.428  20.098  0.00  0.00    +0.000 A 
ENDBRANCH   8  17
ENDBRANCH   7  10
ENDBRANCH   1   7
BRANCH   4  21
ATOM     21  C   UNL     1      45.761   6.018  11.597  0.00  0.00    +0.000 C 
BRANCH  21  22
ATOM     22  S   UNL     1      44.899   4.613  10.809  0.00  0.00    +0.000 S 
BRANCH  22  23
ATOM     23  C   UNL     1      45.318   4.871   9.051  0.00  0.00    +0.000 C 
BRANCH  23  24
ATOM     24  C   UNL     1      45.865   3.607   8.433  0.00  0.00    +0.000 A 
ATOM     25  C   UNL     1      46.678   3.631   7.294  0.00  0.00    +0.000 A 
ATOM     26  C   UNL     1      47.149   2.438   6.747  0.00  0.00    +0.000 A 
ATOM     27  C   UNL     1      46.789   1.248   7.356  0.00  0.00    +0.000 A 
ATOM     28  N   UNL     1      46.005   1.178   8.452  0.00  0.00    +0.000 NA
ATOM     29  C   UNL     1      45.557   2.352   8.958  0.00  0.00    +0.000 A 
ENDBRANCH  23  24
ENDBRANCH  22  23
ENDBRANCH  21  22
ENDBRANCH   4  21
TORSDOF 7
ENDMDL
MODEL 8
REMARK VINA RESULT:    -6.499      4.113      9.718
REMARK INTER + INTRA:          -9.836
REMARK INTER:                  -8.083
REMARK INTRA:                  -1.753
REMARK UNBOUND:                -0.678
REMARK  Name = 
REMARK  8 active torsions:
REMARK  status: ('A' for Active; 'I' for Inactive)
REMARK    1  A    between atoms: C_1  and  N_2
REMARK    2  A    between atoms: C_6  and  C_7
REMARK    3  A    between atoms: N_9  and  C_10
REMARK    4  A    between atoms: C_10  and  C_11
REMARK    5  A    between atoms: C_14  and  C_15
REMARK    6  A    between atoms: C_15  and  S_16
REMARK    7  A    between atoms: S_16  and  C_17
REMARK    8  A    between atoms: C_17  and  C_18
REMARK                            x       y       z     vdW  Elec       q    Type
REMARK                         _______ _______ _______ _____ _____    ______ ____
ROOT
ATOM      1  C   UNL     1      48.756   4.011  17.053  0.00  0.00    +0.000 A 
ATOM      2  C   UNL     1      49.088   5.358  16.851  0.00  0.00    +0.000 A 
ATOM      3  C   UNL     1      50.377   5.832  17.130  0.00  0.00    +0.000 A 
ATOM      4  C   UNL     1      51.369   4.975  17.627  0.00  0.00    +0.000 A 
ATOM      5  C   UNL     1      51.053   3.617  17.773  0.00  0.00    +0.000 A 
ATOM      6  C   UNL     1      49.762   3.141  17.493  0.00  0.00    +0.000 A 
ENDROOT
BRANCH   1   7
ATOM      7  C   UNL     1      47.347   3.519  16.799  0.00  0.00    +0.000 C 
BRANCH   7  10
ATOM      8  C   UNL     1      46.725   4.086  14.477  0.00  0.00    +0.000 C 
ATOM      9  O   UNL     1      47.387   3.168  14.005  0.00  0.00    +0.000 OA
ATOM     10  N   UNL     1      46.644   4.332  15.829  0.00  0.00    +0.000 N 
ATOM     11  H   UNL     1      45.916   4.950  16.167  0.00  0.00    +0.000 HD
BRANCH   8  17
ATOM     12  C   UNL     1      44.788   9.068  11.366  0.00  0.00    +0.000 C 
ATOM     13  N   UNL     1      45.534   8.142  12.183  0.00  0.00    +0.000 N 
ATOM     14  C   UNL     1      46.738   8.403  12.814  0.00  0.00    +0.000 A 
ATOM     15  C   UNL     1      47.143   7.256  13.491  0.00  0.00    +0.000 A 
ATOM     16  C   UNL     1      46.137   6.321  13.260  0.00  0.00    +0.000 A 
ATOM     17  C   UNL     1      45.923   4.978  13.639  0.00  0.00    +0.000 A 
ATOM     18  C   UNL     1      44.732   4.572  13.022  0.00  0.00    +0.000 A 
ATOM     19  S   UNL     1      43.958   5.822  12.083  0.00  0.00    +0.000 S 
ATOM     20  C   UNL     1      45.196   6.861  12.467  0.00  0.00    +0.000 A 
ENDBRANCH   8  17
ENDBRANCH   7  10
ENDBRANCH   1   7
BRANCH   4  21
ATOM     21  C   UNL     1      52.757   5.483  17.949  0.00  0.00    +0.000 C 
BRANCH  21  22
ATOM     22  S   UNL     1      52.828   6.799  19.214  0.00  0.00    +0.000 S 
BRANCH  22  23
ATOM     23  C   UNL     1      52.154   5.934  20.674  0.00  0.00    +0.000 C 
BRANCH  23  24
ATOM     24  C   UNL     1      50.648   6.039  20.718  0.00  0.00    +0.000 A 
ATOM     25  C   UNL     1      49.836   4.929  20.980  0.00  0.00    +0.000 A 
ATOM     26  C   UNL     1      48.449   5.068  20.997  0.00  0.00    +0.000 A 
ATOM     27  C   UNL     1      47.909   6.318  20.746  0.00  0.00    +0.000 A 
ATOM     28  N   UNL     1      48.654   7.413  20.485  0.00  0.00    +0.000 NA
ATOM     29  C   UNL     1      49.999   7.247  20.469  0.00  0.00    +0.000 A 
ENDBRANCH  23  24
ENDBRANCH  22  23
ENDBRANCH  21  22
ENDBRANCH   4  21
TORSDOF 7
ENDMDL
MODEL 9
REMARK VINA RESULT:    -6.350      3.419      8.598
REMARK INTER + INTRA:          -9.627
REMARK INTER:                  -8.008
REMARK INTRA:                  -1.618
REMARK UNBOUND:                -0.678
REMARK  Name = 
REMARK  8 active torsions:
REMARK  status: ('A' for Active; 'I' for Inactive)
REMARK    1  A    between atoms: C_1  and  N_2
REMARK    2  A    between atoms: C_6  and  C_7
REMARK    3  A    between atoms: N_9  and  C_10
REMARK    4  A    between atoms: C_10  and  C_11
REMARK    5  A    between atoms: C_14  and  C_15
REMARK    6  A    between atoms: C_15  and  S_16
REMARK    7  A    between atoms: S_16  and  C_17
REMARK    8  A    between atoms: C_17  and  C_18
REMARK                            x       y       z     vdW  Elec       q    Type
REMARK                         _______ _______ _______ _____ _____    ______ ____
ROOT
ATOM      1  C   UNL     1      48.792   8.839  16.766  0.00  0.00    +0.000 A 
ATOM      2  C   UNL     1      49.977   8.103  16.635  0.00  0.00    +0.000 A 
ATOM      3  C   UNL     1      50.549   7.454  17.739  0.00  0.00    +0.000 A 
ATOM      4  C   UNL     1      49.956   7.530  19.006  0.00  0.00    +0.000 A 
ATOM      5  C   UNL     1      48.739   8.218  19.125  0.00  0.00    +0.000 A 
ATOM      6  C   UNL     1      48.166   8.866  18.020  0.00  0.00    +0.000 A 
ENDROOT
BRANCH   1   7
ATOM      7  C   UNL     1      48.210   9.579  15.581  0.00  0.00    +0.000 C 
BRANCH   7  10
ATOM      8  C   UNL     1      47.718   8.130  13.643  0.00  0.00    +0.000 C 
ATOM      9  O   UNL     1      48.857   8.225  13.198  0.00  0.00    +0.000 OA
ATOM     10  N   UNL     1      47.312   8.754  14.801  0.00  0.00    +0.000 N 
ATOM     11  H   UNL     1      46.443   8.460  15.231  0.00  0.00    +0.000 HD
BRANCH   8  17
ATOM     12  C   UNL     1      44.364   3.246  11.869  0.00  0.00    +0.000 C 
ATOM     13  N   UNL     1      45.344   4.113  12.477  0.00  0.00    +0.000 N 
ATOM     14  C   UNL     1      46.361   3.719  13.329  0.00  0.00    +0.000 A 
ATOM     15  C   UNL     1      47.082   4.846  13.712  0.00  0.00    +0.000 A 
ATOM     16  C   UNL     1      46.477   5.910  13.048  0.00  0.00    +0.000 A 
ATOM     17  C   UNL     1      46.697   7.303  12.997  0.00  0.00    +0.000 A 
ATOM     18  C   UNL     1      45.691   7.839  12.182  0.00  0.00    +0.000 A 
ATOM     19  S   UNL     1      44.602   6.646  11.523  0.00  0.00    +0.000 S 
ATOM     20  C   UNL     1      45.436   5.457  12.330  0.00  0.00    +0.000 A 
ENDBRANCH   8  17
ENDBRANCH   7  10
ENDBRANCH   1   7
BRANCH   4  21
ATOM     21  C   UNL     1      50.577   6.850  20.206  0.00  0.00    +0.000 C 
BRANCH  21  22
ATOM     22  S   UNL     1      50.119   5.095  20.429  0.00  0.00    +0.000 S 
BRANCH  22  23
ATOM     23  C   UNL     1      51.028   4.308  19.054  0.00  0.00    +0.000 C 
BRANCH  23  24
ATOM     24  C   UNL     1      50.077   3.657  18.079  0.00  0.00    +0.000 A 
ATOM     25  C   UNL     1      48.731   4.031  17.995  0.00  0.00    +0.000 A 
ATOM     26  C   UNL     1      47.884   3.393  17.090  0.00  0.00    +0.000 A 
ATOM     27  C   UNL     1      48.409   2.391  16.291  0.00  0.00    +0.000 A 
ATOM     28  N   UNL     1      49.699   1.997  16.341  0.00  0.00    +0.000 NA
ATOM     29  C   UNL     1      50.497   2.630  17.234  0.00  0.00    +0.000 A 
ENDBRANCH  23  24
ENDBRANCH  22  23
ENDBRANCH  21  22
ENDBRANCH   4  21
TORSDOF 7
ENDMDL
