MODEL 1
REMARK VINA RESULT:    -9.163      0.000      0.000
REMARK INTER + INTRA:         -13.098
REMARK INTER:                 -12.378
REMARK INTRA:                  -0.720
REMARK UNBOUND:                -0.720
REMARK  Name = 
REMARK  8 active torsions:
REMARK  status: ('A' for Active; 'I' for Inactive)
REMARK    1  A    between atoms: C_1  and  C_2
REMARK    2  A    between atoms: C_5  and  N_6
REMARK    3  A    between atoms: N_6  and  C_7
REMARK    4  A    between atoms: C_7  and  C_8
REMARK    5  A    between atoms: C_11  and  C_12
REMARK    6  A    between atoms: C_12  and  N_13
REMARK    7  A    between atoms: C_14  and  C_16
REMARK    8  A    between atoms: C_29  and  C_30
REMARK                            x       y       z     vdW  Elec       q    Type
REMARK                         _______ _______ _______ _____ _____    ______ ____
ROOT
ATOM      1  C   UNL     1      44.536   5.660  11.298  0.00  0.00    +0.000 A 
ATOM      2  C   UNL     1      44.322   7.037  11.338  0.00  0.00    +0.000 A 
ATOM      3  C   UNL     1      45.217   7.844  12.045  0.00  0.00    +0.000 A 
ATOM      4  C   UNL     1      46.305   7.267  12.704  0.00  0.00    +0.000 A 
ATOM      5  C   UNL     1      46.415   5.883  12.642  0.00  0.00    +0.000 A 
ATOM      6  N   UNL     1      45.572   5.079  11.954  0.00  0.00    +0.000 NA
ENDROOT
BRANCH   1   7
ATOM      7  C   UNL     1      43.605   4.750  10.506  0.00  0.00    +0.000 C 
BRANCH   7   8
ATOM      8  N   UNL     1      44.199   3.432  10.287  0.00  0.00    +0.000 N 
ATOM      9  H   UNL     1      43.554   2.673  10.482  0.00  0.00    +0.000 HD
BRANCH   8  14
ATOM     10  C   UNL     1      47.730   2.306   5.892  0.00  0.00    +0.000 C 
ATOM     11  C   UNL     1      46.790   2.590   7.033  0.00  0.00    +0.000 A 
ATOM     12  C   UNL     1      46.388   3.905   7.292  0.00  0.00    +0.000 A 
ATOM     13  C   UNL     1      45.517   4.202   8.350  0.00  0.00    +0.000 A 
ATOM     14  C   UNL     1      45.003   3.195   9.169  0.00  0.00    +0.000 A 
ATOM     15  C   UNL     1      45.447   1.885   8.928  0.00  0.00    +0.000 A 
ATOM     16  C   UNL     1      46.317   1.564   7.867  0.00  0.00    +0.000 A 
ATOM     17  C   UNL     1      46.732   0.132   7.665  0.00  0.00    +0.000 C 
ENDBRANCH   8  14
ENDBRANCH   7   8
ENDBRANCH   1   7
BRANCH   4  18
ATOM     18  C   UNL     1      47.290   8.082  13.492  0.00  0.00    +0.000 C 
BRANCH  18  19
ATOM     19  N   UNL     1      47.666   7.408  14.708  0.00  0.00    +0.000 N 
ATOM     20  C   UNL     1      48.913   6.858  14.872  0.00  0.00    +0.000 C 
ATOM     21  O   UNL     1      49.787   6.959  14.014  0.00  0.00    +0.000 OA
ATOM     22  H   UNL     1      46.913   7.105  15.316  0.00  0.00    +0.000 HD
BRANCH  20  23
ATOM     23  C   UNL     1      49.168   6.192  16.156  0.00  0.00    +0.000 A 
ATOM     24  C   UNL     1      50.158   6.676  16.999  0.00  0.00    +0.000 A 
ATOM     25  S   UNL     1      50.281   5.823  18.472  0.00  0.00    +0.000 S 
ATOM     26  C   UNL     1      49.051   4.742  18.010  0.00  0.00    +0.000 A 
ATOM     27  N   UNL     1      48.672   3.723  18.828  0.00  0.00    +0.000 NA
ATOM     28  C   UNL     1      47.750   2.962  18.340  0.00  0.00    +0.000 A 
ATOM     29  N   UNL     1      47.169   3.130  17.110  0.00  0.00    +0.000 N 
ATOM     30  C   UNL     1      47.497   4.162  16.266  0.00  0.00    +0.000 A 
ATOM     31  O   UNL     1      46.926   4.314  15.189  0.00  0.00    +0.000 OA
ATOM     32  C   UNL     1      48.540   5.040  16.760  0.00  0.00    +0.000 A 
ATOM     33  H   UNL     1      46.444   2.503  16.789  0.00  0.00    +0.000 HD
ENDBRANCH  20  23
ENDBRANCH  18  19
ENDBRANCH   4  18
TORSDOF 6
ENDMDL
MODEL 2
REMARK VINA RESULT:    -9.144      1.796      2.102
REMARK INTER + INTRA:         -13.071
REMARK INTER:                 -12.301
REMARK INTRA:                  -0.770
REMARK UNBOUND:                -0.720
REMARK  Name = 
REMARK  8 active torsions:
REMARK  status: ('A' for Active; 'I' for Inactive)
REMARK    1  A    between atoms: C_1  and  C_2
REMARK    2  A    between atoms: C_5  and  N_6
REMARK    3  A    between atoms: N_6  and  C_7
REMARK    4  A    between atoms: C_7  and  C_8
REMARK    5  A    between atoms: C_11  and  C_12
REMARK    6  A    between atoms: C_12  and  N_13
REMARK    7  A    between atoms: C_14  and  C_16
REMARK    8  A    between atoms: C_29  and  C_30
REMARK                            x       y       z     vdW  Elec       q    Type
REMARK                         _______ _______ _______ _____ _____    ______ ____
ROOT
ATOM      1  C   UNL     1      45.393   4.022  12.198  0.00  0.00    +0.000 A 
ATOM      2  C   UNL     1      45.481   5.334  11.734  0.00  0.00    +0.000 A 
ATOM      3  C   UNL     1      46.443   6.186  12.283  0.00  0.00    +0.000 A 
ATOM      4  C   UNL     1      47.296   5.721  13.286  0.00  0.00    +0.000 A 
ATOM      5  C   UNL     1      47.109   4.412  13.713  0.00  0.00    +0.000 A 
ATOM      6  N   UNL     1      46.196   3.561  13.191  0.00  0.00    +0.000 NA
ENDROOT
BRANCH   1   7
ATOM      7  C   UNL     1      44.384   3.050  11.599  0.00  0.00    +0.000 C 
BRANCH   7   8
ATOM      8  N   UNL     1      44.021   3.426  10.233  0.00  0.00    +0.000 N 
ATOM      9  H   UNL     1      43.572   4.335  10.181  0.00  0.00    +0.000 HD
BRANCH   8  14
ATOM     10  C   UNL     1      47.857   2.291   6.104  0.00  0.00    +0.000 C 
ATOM     11  C   UNL     1      46.838   2.578   7.174  0.00  0.00    +0.000 A 
ATOM     12  C   UNL     1      46.444   3.898   7.423  0.00  0.00    +0.000 A 
ATOM     13  C   UNL     1      45.500   4.197   8.416  0.00  0.00    +0.000 A 
ATOM     14  C   UNL     1      44.904   3.189   9.176  0.00  0.00    +0.000 A 
ATOM     15  C   UNL     1      45.339   1.874   8.948  0.00  0.00    +0.000 A 
ATOM     16  C   UNL     1      46.281   1.550   7.952  0.00  0.00    +0.000 A 
ATOM     17  C   UNL     1      46.681   0.112   7.758  0.00  0.00    +0.000 C 
ENDBRANCH   8  14
ENDBRANCH   7   8
ENDBRANCH   1   7
BRANCH   4  18
ATOM     18  C   UNL     1      48.337   6.596  13.923  0.00  0.00    +0.000 C 
BRANCH  18  19
ATOM     19  N   UNL     1      48.070   6.783  15.325  0.00  0.00    +0.000 N 
ATOM     20  C   UNL     1      49.035   6.570  16.279  0.00  0.00    +0.000 C 
ATOM     21  O   UNL     1      50.186   6.261  15.981  0.00  0.00    +0.000 OA
ATOM     22  H   UNL     1      47.096   6.798  15.609  0.00  0.00    +0.000 HD
BRANCH  20  23
ATOM     23  C   UNL     1      48.632   6.789  17.674  0.00  0.00    +0.000 A 
ATOM     24  C   UNL     1      48.234   8.052  18.086  0.00  0.00    +0.000 A 
ATOM     25  S   UNL     1      47.745   8.117  19.720  0.00  0.00    +0.000 S 
ATOM     26  C   UNL     1      48.099   6.468  19.948  0.00  0.00    +0.000 A 
ATOM     27  N   UNL     1      47.925   5.876  21.160  0.00  0.00    +0.000 NA
ATOM     28  C   UNL     1      48.262   4.630  21.198  0.00  0.00    +0.000 A 
ATOM     29  N   UNL     1      48.753   3.921  20.133  0.00  0.00    +0.000 N 
ATOM     30  C   UNL     1      48.916   4.469  18.884  0.00  0.00    +0.000 A 
ATOM     31  O   UNL     1      49.315   3.797  17.937  0.00  0.00    +0.000 OA
ATOM     32  C   UNL     1      48.565   5.873  18.789  0.00  0.00    +0.000 A 
ATOM     33  H   UNL     1      48.990   2.943  20.226  0.00  0.00    +0.000 HD
ENDBRANCH  20  23
ENDBRANCH  18  19
ENDBRANCH   4  18
TORSDOF 6
ENDMDL
MODEL 3
REMARK VINA RESULT:    -9.119      2.260      2.733
REMARK INTER + INTRA:         -13.038
REMARK INTER:                 -12.024
REMARK INTRA:                  -1.014
REMARK UNBOUND:                -0.720
REMARK  Name = 
REMARK  8 active torsions:
REMARK  status: ('A' for Active; 'I' for Inactive)
REMARK    1  A    between atoms: C_1  and  C_2
REMARK    2  A    between atoms: C_5  and  N_6
REMARK    3  A    between atoms: N_6  and  C_7
REMARK    4  A    between atoms: C_7  and  C_8
REMARK    5  A    between atoms: C_11  and  C_12
REMARK    6  A    between atoms: C_12  and  N_13
REMARK    7  A    between atoms: C_14  and  C_16
REMARK    8  A    between atoms: C_29  and  C_30
REMARK                            x       y       z     vdW  Elec       q    Type
REMARK                         _______ _______ _______ _____ _____    ______ ____
ROOT
ATOM      1  C   UNL     1      45.317   3.946  12.274  0.00  0.00    +0.000 A 
ATOM      2  C   UNL     1      45.417   5.296  11.936  0.00  0.00    +0.000 A 
ATOM      3  C   UNL     1      46.349   6.096  12.601  0.00  0.00    +0.000 A 
ATOM      4  C   UNL     1      47.161   5.543  13.593  0.00  0.00    +0.000 A 
ATOM      5  C   UNL     1      46.964   4.201  13.891  0.00  0.00    +0.000 A 
ATOM      6  N   UNL     1      46.080   3.399  13.255  0.00  0.00    +0.000 NA
ENDROOT
BRANCH   1   7
ATOM      7  C   UNL     1      44.340   3.031  11.546  0.00  0.00    +0.000 C 
BRANCH   7   8
ATOM      8  N   UNL     1      44.057   3.514  10.195  0.00  0.00    +0.000 N 
ATOM      9  H   UNL     1      43.701   4.464  10.183  0.00  0.00    +0.000 HD
BRANCH   8  14
ATOM     10  C   UNL     1      47.900   2.252   6.110  0.00  0.00    +0.000 C 
ATOM     11  C   UNL     1      46.879   2.572   7.168  0.00  0.00    +0.000 A 
ATOM     12  C   UNL     1      46.511   3.903   7.400  0.00  0.00    +0.000 A 
ATOM     13  C   UNL     1      45.566   4.233   8.381  0.00  0.00    +0.000 A 
ATOM     14  C   UNL     1      44.943   3.247   9.148  0.00  0.00    +0.000 A 
ATOM     15  C   UNL     1      45.351   1.920   8.938  0.00  0.00    +0.000 A 
ATOM     16  C   UNL     1      46.294   1.565   7.953  0.00  0.00    +0.000 A 
ATOM     17  C   UNL     1      46.665   0.117   7.778  0.00  0.00    +0.000 C 
ENDBRANCH   8  14
ENDBRANCH   7   8
ENDBRANCH   1   7
BRANCH   4  18
ATOM     18  C   UNL     1      48.169   6.359  14.352  0.00  0.00    +0.000 C 
BRANCH  18  19
ATOM     19  N   UNL     1      48.022   6.175  15.772  0.00  0.00    +0.000 N 
ATOM     20  C   UNL     1      49.105   5.962  16.589  0.00  0.00    +0.000 C 
ATOM     21  O   UNL     1      50.256   5.970  16.157  0.00  0.00    +0.000 OA
ATOM     22  H   UNL     1      47.098   5.926  16.109  0.00  0.00    +0.000 HD
BRANCH  20  23
ATOM     23  C   UNL     1      48.819   5.782  18.017  0.00  0.00    +0.000 A 
ATOM     24  C   UNL     1      49.040   4.549  18.615  0.00  0.00    +0.000 A 
ATOM     25  S   UNL     1      48.713   4.532  20.289  0.00  0.00    +0.000 S 
ATOM     26  C   UNL     1      48.212   6.158  20.264  0.00  0.00    +0.000 A 
ATOM     27  N   UNL     1      47.771   6.772  21.395  0.00  0.00    +0.000 NA
ATOM     28  C   UNL     1      47.394   7.995  21.225  0.00  0.00    +0.000 A 
ATOM     29  N   UNL     1      47.423   8.662  20.028  0.00  0.00    +0.000 N 
ATOM     30  C   UNL     1      47.889   8.092  18.868  0.00  0.00    +0.000 A 
ATOM     31  O   UNL     1      47.946   8.729  17.820  0.00  0.00    +0.000 OA
ATOM     32  C   UNL     1      48.313   6.711  19.001  0.00  0.00    +0.000 A 
ATOM     33  H   UNL     1      47.122   9.624  19.963  0.00  0.00    +0.000 HD
ENDBRANCH  20  23
ENDBRANCH  18  19
ENDBRANCH   4  18
TORSDOF 6
ENDMDL
MODEL 4
REMARK VINA RESULT:    -8.281      3.754      4.967
REMARK INTER + INTRA:         -11.905
REMARK INTER:                 -10.680
REMARK INTRA:                  -1.225
REMARK UNBOUND:                -0.720
REMARK  Name = 
REMARK  8 active torsions:
REMARK  status: ('A' for Active; 'I' for Inactive)
REMARK    1  A    between atoms: C_1  and  C_2
REMARK    2  A    between atoms: C_5  and  N_6
REMARK    3  A    between atoms: N_6  and  C_7
REMARK    4  A    between atoms: C_7  and  C_8
REMARK    5  A    between atoms: C_11  and  C_12
REMARK    6  A    between atoms: C_12  and  N_13
REMARK    7  A    between atoms: C_14  and  C_16
REMARK    8  A    between atoms: C_29  and  C_30
REMARK                            x       y       z     vdW  Elec       q    Type
REMARK                         _______ _______ _______ _____ _____    ______ ____
ROOT
ATOM      1  C   UNL     1      45.003   4.917  11.904  0.00  0.00    +0.000 A 
ATOM      2  C   UNL     1      46.064   5.173  12.773  0.00  0.00    +0.000 A 
ATOM      3  C   UNL     1      46.371   6.497  13.099  0.00  0.00    +0.000 A 
ATOM      4  C   UNL     1      45.622   7.541  12.552  0.00  0.00    +0.000 A 
ATOM      5  C   UNL     1      44.611   7.193  11.666  0.00  0.00    +0.000 A 
ATOM      6  N   UNL     1      44.282   5.921  11.343  0.00  0.00    +0.000 NA
ENDROOT
BRANCH   1   7
ATOM      7  C   UNL     1      44.612   3.487  11.553  0.00  0.00    +0.000 C 
BRANCH   7   8
ATOM      8  N   UNL     1      44.086   3.391  10.191  0.00  0.00    +0.000 N 
ATOM      9  H   UNL     1      43.369   4.082   9.998  0.00  0.00    +0.000 HD
BRANCH   8  14
ATOM     10  C   UNL     1      47.851   2.366   5.970  0.00  0.00    +0.000 C 
ATOM     11  C   UNL     1      46.851   2.624   7.065  0.00  0.00    +0.000 A 
ATOM     12  C   UNL     1      46.420   3.931   7.319  0.00  0.00    +0.000 A 
ATOM     13  C   UNL     1      45.492   4.203   8.335  0.00  0.00    +0.000 A 
ATOM     14  C   UNL     1      44.949   3.179   9.113  0.00  0.00    +0.000 A 
ATOM     15  C   UNL     1      45.422   1.878   8.879  0.00  0.00    +0.000 A 
ATOM     16  C   UNL     1      46.349   1.581   7.860  0.00  0.00    +0.000 A 
ATOM     17  C   UNL     1      46.791   0.157   7.661  0.00  0.00    +0.000 C 
ENDBRANCH   8  14
ENDBRANCH   7   8
ENDBRANCH   1   7
BRANCH   4  18
ATOM     18  C   UNL     1      45.917   8.983  12.854  0.00  0.00    +0.000 C 
BRANCH  18  19
ATOM     19  N   UNL     1      47.320   9.269  12.702  0.00  0.00    +0.000 N 
ATOM     20  C   UNL     1      47.773  10.198  11.799  0.00  0.00    +0.000 C 
ATOM     21  O   UNL     1      47.003  10.869  11.115  0.00  0.00    +0.000 OA
ATOM     22  H   UNL     1      47.970   8.580  13.064  0.00  0.00    +0.000 HD
BRANCH  20  23
ATOM     23  C   UNL     1      49.227  10.391  11.736  0.00  0.00    +0.000 A 
ATOM     24  C   UNL     1      49.761  11.664  11.880  0.00  0.00    +0.000 A 
ATOM     25  S   UNL     1      51.466  11.699  11.840  0.00  0.00    +0.000 S 
ATOM     26  C   UNL     1      51.550  10.021  11.575  0.00  0.00    +0.000 A 
ATOM     27  N   UNL     1      52.748   9.395  11.421  0.00  0.00    +0.000 NA
ATOM     28  C   UNL     1      52.662   8.127  11.197  0.00  0.00    +0.000 A 
ATOM     29  N   UNL     1      51.487   7.425  11.117  0.00  0.00    +0.000 N 
ATOM     30  C   UNL     1      50.257   8.009  11.296  0.00  0.00    +0.000 A 
ATOM     31  O   UNL     1      49.223   7.347  11.264  0.00  0.00    +0.000 OA
ATOM     32  C   UNL     1      50.295   9.439  11.538  0.00  0.00    +0.000 A 
ATOM     33  H   UNL     1      51.488   6.429  10.947  0.00  0.00    +0.000 HD
ENDBRANCH  20  23
ENDBRANCH  18  19
ENDBRANCH   4  18
TORSDOF 6
ENDMDL
MODEL 5
REMARK VINA RESULT:    -8.233      1.661      2.305
REMARK INTER + INTRA:         -11.841
REMARK INTER:                 -11.094
REMARK INTRA:                  -0.747
REMARK UNBOUND:                -0.720
REMARK  Name = 
REMARK  8 active torsions:
REMARK  status: ('A' for Active; 'I' for Inactive)
REMARK    1  A    between atoms: C_1  and  C_2
REMARK    2  A    between atoms: C_5  and  N_6
REMARK    3  A    between atoms: N_6  and  C_7
REMARK    4  A    between atoms: C_7  and  C_8
REMARK    5  A    between atoms: C_11  and  C_12
REMARK    6  A    between atoms: C_12  and  N_13
REMARK    7  A    between atoms: C_14  and  C_16
REMARK    8  A    between atoms: C_29  and  C_30
REMARK                            x       y       z     vdW  Elec       q    Type
REMARK                         _______ _______ _______ _____ _____    ______ ____
ROOT
ATOM      1  C   UNL     1      44.805   5.605  11.489  0.00  0.00    +0.000 A 
ATOM      2  C   UNL     1      44.973   6.986  11.397  0.00  0.00    +0.000 A 
ATOM      3  C   UNL     1      45.954   7.605  12.177  0.00  0.00    +0.000 A 
ATOM      4  C   UNL     1      46.745   6.840  13.037  0.00  0.00    +0.000 A 
ATOM      5  C   UNL     1      46.480   5.478  13.092  0.00  0.00    +0.000 A 
ATOM      6  N   UNL     1      45.547   4.850  12.339  0.00  0.00    +0.000 NA
ENDROOT
BRANCH   1   7
ATOM      7  C   UNL     1      43.773   4.888  10.627  0.00  0.00    +0.000 C 
BRANCH   7   8
ATOM      8  N   UNL     1      44.192   3.522  10.312  0.00  0.00    +0.000 N 
ATOM      9  H   UNL     1      43.439   2.848  10.407  0.00  0.00    +0.000 HD
BRANCH   8  14
ATOM     10  C   UNL     1      47.799   2.331   5.997  0.00  0.00    +0.000 C 
ATOM     11  C   UNL     1      46.840   2.632   7.117  0.00  0.00    +0.000 A 
ATOM     12  C   UNL     1      46.465   3.956   7.374  0.00  0.00    +0.000 A 
ATOM     13  C   UNL     1      45.576   4.269   8.412  0.00  0.00    +0.000 A 
ATOM     14  C   UNL     1      45.017   3.271   9.212  0.00  0.00    +0.000 A 
ATOM     15  C   UNL     1      45.433   1.951   8.974  0.00  0.00    +0.000 A 
ATOM     16  C   UNL     1      46.320   1.614   7.932  0.00  0.00    +0.000 A 
ATOM     17  C   UNL     1      46.703   0.173   7.731  0.00  0.00    +0.000 C 
ENDBRANCH   8  14
ENDBRANCH   7   8
ENDBRANCH   1   7
BRANCH   4  18
ATOM     18  C   UNL     1      47.803   7.452  13.911  0.00  0.00    +0.000 C 
BRANCH  18  19
ATOM     19  N   UNL     1      48.300   6.500  14.869  0.00  0.00    +0.000 N 
ATOM     20  C   UNL     1      48.633   6.870  16.149  0.00  0.00    +0.000 C 
ATOM     21  O   UNL     1      48.474   8.018  16.555  0.00  0.00    +0.000 OA
ATOM     22  H   UNL     1      48.662   5.626  14.502  0.00  0.00    +0.000 HD
BRANCH  20  23
ATOM     23  C   UNL     1      49.135   5.805  17.025  0.00  0.00    +0.000 A 
ATOM     24  C   UNL     1      48.245   5.059  17.784  0.00  0.00    +0.000 A 
ATOM     25  S   UNL     1      48.990   3.827  18.700  0.00  0.00    +0.000 S 
ATOM     26  C   UNL     1      50.536   4.282  18.155  0.00  0.00    +0.000 A 
ATOM     27  N   UNL     1      51.650   3.631  18.587  0.00  0.00    +0.000 NA
ATOM     28  C   UNL     1      52.757   4.100  18.117  0.00  0.00    +0.000 A 
ATOM     29  N   UNL     1      52.853   5.156  17.250  0.00  0.00    +0.000 N 
ATOM     30  C   UNL     1      51.754   5.823  16.764  0.00  0.00    +0.000 A 
ATOM     31  O   UNL     1      51.868   6.737  15.952  0.00  0.00    +0.000 OA
ATOM     32  C   UNL     1      50.482   5.344  17.272  0.00  0.00    +0.000 A 
ATOM     33  H   UNL     1      53.751   5.470  16.911  0.00  0.00    +0.000 HD
ENDBRANCH  20  23
ENDBRANCH  18  19
ENDBRANCH   4  18
TORSDOF 6
ENDMDL
MODEL 6
REMARK VINA RESULT:    -7.805      2.802      4.040
REMARK INTER + INTRA:         -11.262
REMARK INTER:                 -10.467
REMARK INTRA:                  -0.795
REMARK UNBOUND:                -0.720
REMARK  Name = 
REMARK  8 active torsions:
REMARK  status: ('A' for Active; 'I' for Inactive)
REMARK    1  A    between atoms: C_1  and  C_2
REMARK    2  A    between atoms: C_5  and  N_6
REMARK    3  A    between atoms: N_6  and  C_7
REMARK    4  A    between atoms: C_7  and  C_8
REMARK    5  A    between atoms: C_11  and  C_12
REMARK    6  A    between atoms: C_12  and  N_13
REMARK    7  A    between atoms: C_14  and  C_16
REMARK    8  A    between atoms: C_29  and  C_30
REMARK                            x       y       z     vdW  Elec       q    Type
REMARK                         _______ _______ _______ _____ _____    ______ ____
ROOT
ATOM      1  C   UNL     1      44.942   4.669  11.875  0.00  0.00    +0.000 A 
ATOM      2  C   UNL     1      45.854   4.881  12.910  0.00  0.00    +0.000 A 
ATOM      3  C   UNL     1      46.159   6.190  13.290  0.00  0.00    +0.000 A 
ATOM      4  C   UNL     1      45.557   7.265  12.633  0.00  0.00    +0.000 A 
ATOM      5  C   UNL     1      44.693   6.960  11.589  0.00  0.00    +0.000 A 
ATOM      6  N   UNL     1      44.369   5.703  11.208  0.00  0.00    +0.000 NA
ENDROOT
BRANCH   1   7
ATOM      7  C   UNL     1      44.554   3.257  11.457  0.00  0.00    +0.000 C 
BRANCH   7   8
ATOM      8  N   UNL     1      44.062   3.220  10.079  0.00  0.00    +0.000 N 
ATOM      9  H   UNL     1      43.372   3.940   9.889  0.00  0.00    +0.000 HD
BRANCH   8  14
ATOM     10  C   UNL     1      47.913   2.221   5.929  0.00  0.00    +0.000 C 
ATOM     11  C   UNL     1      46.890   2.471   7.005  0.00  0.00    +0.000 A 
ATOM     12  C   UNL     1      46.440   3.774   7.246  0.00  0.00    +0.000 A 
ATOM     13  C   UNL     1      45.491   4.040   8.244  0.00  0.00    +0.000 A 
ATOM     14  C   UNL     1      44.947   3.014   9.017  0.00  0.00    +0.000 A 
ATOM     15  C   UNL     1      45.438   1.717   8.797  0.00  0.00    +0.000 A 
ATOM     16  C   UNL     1      46.386   1.426   7.796  0.00  0.00    +0.000 A 
ATOM     17  C   UNL     1      46.848   0.006   7.611  0.00  0.00    +0.000 C 
ENDBRANCH   8  14
ENDBRANCH   7   8
ENDBRANCH   1   7
BRANCH   4  18
ATOM     18  C   UNL     1      45.858   8.693  12.988  0.00  0.00    +0.000 C 
BRANCH  18  19
ATOM     19  N   UNL     1      46.740   8.771  14.124  0.00  0.00    +0.000 N 
ATOM     20  C   UNL     1      48.075   9.060  13.983  0.00  0.00    +0.000 C 
ATOM     21  O   UNL     1      48.572   9.320  12.889  0.00  0.00    +0.000 OA
ATOM     22  H   UNL     1      46.421   8.334  14.983  0.00  0.00    +0.000 HD
BRANCH  20  23
ATOM     23  C   UNL     1      48.867   9.102  15.218  0.00  0.00    +0.000 A 
ATOM     24  C   UNL     1      49.125   7.928  15.912  0.00  0.00    +0.000 A 
ATOM     25  S   UNL     1      50.107   8.149  17.290  0.00  0.00    +0.000 S 
ATOM     26  C   UNL     1      50.178   9.830  17.038  0.00  0.00    +0.000 A 
ATOM     27  N   UNL     1      50.857  10.638  17.895  0.00  0.00    +0.000 NA
ATOM     28  C   UNL     1      50.803  11.894  17.600  0.00  0.00    +0.000 A 
ATOM     29  N   UNL     1      50.135  12.415  16.523  0.00  0.00    +0.000 N 
ATOM     30  C   UNL     1      49.461  11.635  15.615  0.00  0.00    +0.000 A 
ATOM     31  O   UNL     1      48.910  12.126  14.634  0.00  0.00    +0.000 OA
ATOM     32  C   UNL     1      49.479  10.214  15.907  0.00  0.00    +0.000 A 
ATOM     33  H   UNL     1      50.137  13.409  16.342  0.00  0.00    +0.000 HD
ENDBRANCH  20  23
ENDBRANCH  18  19
ENDBRANCH   4  18
TORSDOF 6
ENDMDL
MODEL 7
REMARK VINA RESULT:    -7.541      2.997      8.236
REMARK INTER + INTRA:         -10.906
REMARK INTER:                  -9.625
REMARK INTRA:                  -1.281
REMARK UNBOUND:                -0.720
REMARK  Name = 
REMARK  8 active torsions:
REMARK  status: ('A' for Active; 'I' for Inactive)
REMARK    1  A    between atoms: C_1  and  C_2
REMARK    2  A    between atoms: C_5  and  N_6
REMARK    3  A    between atoms: N_6  and  C_7
REMARK    4  A    between atoms: C_7  and  C_8
REMARK    5  A    between atoms: C_11  and  C_12
REMARK    6  A    between atoms: C_12  and  N_13
REMARK    7  A    between atoms: C_14  and  C_16
REMARK    8  A    between atoms: C_29  and  C_30
REMARK                            x       y       z     vdW  Elec       q    Type
REMARK                         _______ _______ _______ _____ _____    ______ ____
ROOT
ATOM      1  C   UNL     1      49.605   8.342  15.696  0.00  0.00    +0.000 A 
ATOM      2  C   UNL     1      48.308   8.811  15.494  0.00  0.00    +0.000 A 
ATOM      3  C   UNL     1      47.728   8.684  14.228  0.00  0.00    +0.000 A 
ATOM      4  C   UNL     1      48.450   8.097  13.187  0.00  0.00    +0.000 A 
ATOM      5  C   UNL     1      49.749   7.695  13.471  0.00  0.00    +0.000 A 
ATOM      6  N   UNL     1      50.331   7.793  14.689  0.00  0.00    +0.000 NA
ENDROOT
BRANCH   1   7
ATOM      7  C   UNL     1      50.258   8.427  17.070  0.00  0.00    +0.000 C 
BRANCH   7   8
ATOM      8  N   UNL     1      49.729   7.412  17.981  0.00  0.00    +0.000 N 
ATOM      9  H   UNL     1      48.783   7.613  18.287  0.00  0.00    +0.000 HD
BRANCH   8  14
ATOM     10  C   UNL     1      50.448   1.758  17.231  0.00  0.00    +0.000 C 
ATOM     11  C   UNL     1      50.251   3.240  17.408  0.00  0.00    +0.000 A 
ATOM     12  C   UNL     1      51.364   4.080  17.526  0.00  0.00    +0.000 A 
ATOM     13  C   UNL     1      51.214   5.464  17.696  0.00  0.00    +0.000 A 
ATOM     14  C   UNL     1      49.950   6.055  17.733  0.00  0.00    +0.000 A 
ATOM     15  C   UNL     1      48.839   5.198  17.658  0.00  0.00    +0.000 A 
ATOM     16  C   UNL     1      48.968   3.807  17.481  0.00  0.00    +0.000 A 
ATOM     17  C   UNL     1      47.728   2.960  17.391  0.00  0.00    +0.000 C 
ENDBRANCH   8  14
ENDBRANCH   7   8
ENDBRANCH   1   7
BRANCH   4  18
ATOM     18  C   UNL     1      47.885   7.948  11.803  0.00  0.00    +0.000 C 
BRANCH  18  19
ATOM     19  N   UNL     1      47.118   6.735  11.684  0.00  0.00    +0.000 N 
ATOM     20  C   UNL     1      45.748   6.736  11.773  0.00  0.00    +0.000 C 
ATOM     21  O   UNL     1      45.105   7.776  11.906  0.00  0.00    +0.000 OA
ATOM     22  H   UNL     1      47.617   5.861  11.816  0.00  0.00    +0.000 HD
BRANCH  20  23
ATOM     23  C   UNL     1      45.085   5.432  11.642  0.00  0.00    +0.000 A 
ATOM     24  C   UNL     1      44.405   4.892  12.724  0.00  0.00    +0.000 A 
ATOM     25  S   UNL     1      43.645   3.403  12.382  0.00  0.00    +0.000 S 
ATOM     26  C   UNL     1      44.243   3.402  10.789  0.00  0.00    +0.000 A 
ATOM     27  N   UNL     1      43.976   2.372   9.941  0.00  0.00    +0.000 NA
ATOM     28  C   UNL     1      44.517   2.487   8.775  0.00  0.00    +0.000 A 
ATOM     29  N   UNL     1      45.297   3.541   8.376  0.00  0.00    +0.000 N 
ATOM     30  C   UNL     1      45.568   4.616   9.187  0.00  0.00    +0.000 A 
ATOM     31  O   UNL     1      46.233   5.568   8.786  0.00  0.00    +0.000 OA
ATOM     32  C   UNL     1      44.994   4.531  10.516  0.00  0.00    +0.000 A 
ATOM     33  H   UNL     1      45.685   3.576   7.444  0.00  0.00    +0.000 HD
ENDBRANCH  20  23
ENDBRANCH  18  19
ENDBRANCH   4  18
TORSDOF 6
ENDMDL
MODEL 8
REMARK VINA RESULT:    -7.527      3.443      8.398
REMARK INTER + INTRA:         -10.888
REMARK INTER:                 -10.035
REMARK INTRA:                  -0.854
REMARK UNBOUND:                -0.720
REMARK  Name = 
REMARK  8 active torsions:
REMARK  status: ('A' for Active; 'I' for Inactive)
REMARK    1  A    between atoms: C_1  and  C_2
REMARK    2  A    between atoms: C_5  and  N_6
REMARK    3  A    between atoms: N_6  and  C_7
REMARK    4  A    between atoms: C_7  and  C_8
REMARK    5  A    between atoms: C_11  and  C_12
REMARK    6  A    between atoms: C_12  and  N_13
REMARK    7  A    between atoms: C_14  and  C_16
REMARK    8  A    between atoms: C_29  and  C_30
REMARK                            x       y       z     vdW  Elec       q    Type
REMARK                         _______ _______ _______ _____ _____    ______ ____
ROOT
ATOM      1  C   UNL     1      49.802   6.533  16.089  0.00  0.00    +0.000 A 
ATOM      2  C   UNL     1      50.577   7.476  15.415  0.00  0.00    +0.000 A 
ATOM      3  C   UNL     1      50.157   7.931  14.162  0.00  0.00    +0.000 A 
ATOM      4  C   UNL     1      48.978   7.436  13.600  0.00  0.00    +0.000 A 
ATOM      5  C   UNL     1      48.292   6.471  14.326  0.00  0.00    +0.000 A 
ATOM      6  N   UNL     1      48.668   6.022  15.546  0.00  0.00    +0.000 NA
ENDROOT
BRANCH   1   7
ATOM      7  C   UNL     1      50.205   6.040  17.473  0.00  0.00    +0.000 C 
BRANCH   7   8
ATOM      8  N   UNL     1      49.725   4.681  17.721  0.00  0.00    +0.000 N 
ATOM      9  H   UNL     1      48.870   4.468  17.219  0.00  0.00    +0.000 HD
BRANCH   8  14
ATOM     10  C   UNL     1      53.611   0.445  17.655  0.00  0.00    +0.000 C 
ATOM     11  C   UNL     1      52.596   1.556  17.693  0.00  0.00    +0.000 A 
ATOM     12  C   UNL     1      51.263   1.291  17.359  0.00  0.00    +0.000 A 
ATOM     13  C   UNL     1      50.295   2.306  17.382  0.00  0.00    +0.000 A 
ATOM     14  C   UNL     1      50.622   3.610  17.758  0.00  0.00    +0.000 A 
ATOM     15  C   UNL     1      51.970   3.873  18.048  0.00  0.00    +0.000 A 
ATOM     16  C   UNL     1      52.957   2.868  18.038  0.00  0.00    +0.000 A 
ATOM     17  C   UNL     1      54.377   3.229  18.379  0.00  0.00    +0.000 C 
ENDBRANCH   8  14
ENDBRANCH   7   8
ENDBRANCH   1   7
BRANCH   4  18
ATOM     18  C   UNL     1      48.486   7.877  12.251  0.00  0.00    +0.000 C 
BRANCH  18  19
ATOM     19  N   UNL     1      47.735   6.831  11.606  0.00  0.00    +0.000 N 
ATOM     20  C   UNL     1      46.364   6.865  11.536  0.00  0.00    +0.000 C 
ATOM     21  O   UNL     1      45.714   7.812  11.972  0.00  0.00    +0.000 OA
ATOM     22  H   UNL     1      48.212   5.947  11.459  0.00  0.00    +0.000 HD
BRANCH  20  23
ATOM     23  C   UNL     1      45.718   5.734  10.858  0.00  0.00    +0.000 A 
ATOM     24  C   UNL     1      45.860   5.580   9.486  0.00  0.00    +0.000 A 
ATOM     25  S   UNL     1      45.095   4.185   8.871  0.00  0.00    +0.000 S 
ATOM     26  C   UNL     1      44.502   3.765  10.409  0.00  0.00    +0.000 A 
ATOM     27  N   UNL     1      43.729   2.659  10.584  0.00  0.00    +0.000 NA
ATOM     28  C   UNL     1      43.324   2.478  11.796  0.00  0.00    +0.000 A 
ATOM     29  N   UNL     1      43.625   3.298  12.851  0.00  0.00    +0.000 N 
ATOM     30  C   UNL     1      44.427   4.407  12.728  0.00  0.00    +0.000 A 
ATOM     31  O   UNL     1      44.718   5.098  13.701  0.00  0.00    +0.000 OA
ATOM     32  C   UNL     1      44.899   4.665  11.381  0.00  0.00    +0.000 A 
ATOM     33  H   UNL     1      43.283   3.096  13.780  0.00  0.00    +0.000 HD
ENDBRANCH  20  23
ENDBRANCH  18  19
ENDBRANCH   4  18
TORSDOF 6
ENDMDL
MODEL 9
REMARK VINA RESULT:    -6.972      3.796     10.057
REMARK INTER + INTRA:         -10.137
REMARK INTER:                  -9.165
REMARK INTRA:                  -0.972
REMARK UNBOUND:                -0.720
REMARK  Name = 
REMARK  8 active torsions:
REMARK  status: ('A' for Active; 'I' for Inactive)
REMARK    1  A    between atoms: C_1  and  C_2
REMARK    2  A    between atoms: C_5  and  N_6
REMARK    3  A    between atoms: N_6  and  C_7
REMARK    4  A    between atoms: C_7  and  C_8
REMARK    5  A    between atoms: C_11  and  C_12
REMARK    6  A    between atoms: C_12  and  N_13
REMARK    7  A    between atoms: C_14  and  C_16
REMARK    8  A    between atoms: C_29  and  C_30
REMARK                            x       y       z     vdW  Elec       q    Type
REMARK                         _______ _______ _______ _____ _____    ______ ____
ROOT
ATOM      1  C   UNL     1      50.150   5.542  19.245  0.00  0.00    +0.000 A 
ATOM      2  C   UNL     1      50.092   5.998  17.929  0.00  0.00    +0.000 A 
ATOM      3  C   UNL     1      49.218   5.377  17.032  0.00  0.00    +0.000 A 
ATOM      4  C   UNL     1      48.422   4.313  17.459  0.00  0.00    +0.000 A 
ATOM      5  C   UNL     1      48.576   3.901  18.777  0.00  0.00    +0.000 A 
ATOM      6  N   UNL     1      49.403   4.491  19.670  0.00  0.00    +0.000 NA
ENDROOT
BRANCH   1   7
ATOM      7  C   UNL     1      51.062   6.216  20.263  0.00  0.00    +0.000 C 
BRANCH   7   8
ATOM      8  N   UNL     1      50.298   6.793  21.370  0.00  0.00    +0.000 N 
ATOM      9  H   UNL     1      50.887   7.080  22.145  0.00  0.00    +0.000 HD
BRANCH   8  14
ATOM     10  C   UNL     1      46.166  10.688  20.480  0.00  0.00    +0.000 C 
ATOM     11  C   UNL     1      47.249   9.665  20.692  0.00  0.00    +0.000 A 
ATOM     12  C   UNL     1      46.966   8.490  21.398  0.00  0.00    +0.000 A 
ATOM     13  C   UNL     1      47.954   7.519  21.615  0.00  0.00    +0.000 A 
ATOM     14  C   UNL     1      49.249   7.681  21.118  0.00  0.00    +0.000 A 
ATOM     15  C   UNL     1      49.533   8.883  20.450  0.00  0.00    +0.000 A 
ATOM     16  C   UNL     1      48.554   9.868  20.215  0.00  0.00    +0.000 A 
ATOM     17  C   UNL     1      48.935  11.121  19.475  0.00  0.00    +0.000 C 
ENDBRANCH   8  14
ENDBRANCH   7   8
ENDBRANCH   1   7
BRANCH   4  18
ATOM     18  C   UNL     1      47.476   3.598  16.536  0.00  0.00    +0.000 C 
BRANCH  18  19
ATOM     19  N   UNL     1      46.848   4.517  15.623  0.00  0.00    +0.000 N 
ATOM     20  C   UNL     1      46.779   4.262  14.276  0.00  0.00    +0.000 C 
ATOM     21  O   UNL     1      47.201   3.216  13.790  0.00  0.00    +0.000 OA
ATOM     22  H   UNL     1      46.714   5.468  15.950  0.00  0.00    +0.000 HD
BRANCH  20  23
ATOM     23  C   UNL     1      46.118   5.283  13.452  0.00  0.00    +0.000 A 
ATOM     24  C   UNL     1      46.756   6.491  13.208  0.00  0.00    +0.000 A 
ATOM     25  S   UNL     1      45.876   7.536  12.187  0.00  0.00    +0.000 S 
ATOM     26  C   UNL     1      44.586   6.432  12.078  0.00  0.00    +0.000 A 
ATOM     27  N   UNL     1      43.471   6.726  11.356  0.00  0.00    +0.000 NA
ATOM     28  C   UNL     1      42.560   5.812  11.385  0.00  0.00    +0.000 A 
ATOM     29  N   UNL     1      42.663   4.627  12.066  0.00  0.00    +0.000 N 
ATOM     30  C   UNL     1      43.782   4.275  12.782  0.00  0.00    +0.000 A 
ATOM     31  O   UNL     1      43.864   3.186  13.345  0.00  0.00    +0.000 OA
ATOM     32  C   UNL     1      44.833   5.274  12.794  0.00  0.00    +0.000 A 
ATOM     33  H   UNL     1      41.916   3.947  12.042  0.00  0.00    +0.000 HD
ENDBRANCH  20  23
ENDBRANCH  18  19
ENDBRANCH   4  18
TORSDOF 6
ENDMDL
