MODEL 1
REMARK VINA RESULT:    -7.266      0.000      0.000
REMARK INTER + INTRA:         -11.493
REMARK INTER:                 -10.239
REMARK INTRA:                  -1.254
REMARK UNBOUND:                -1.254
REMARK  Name = 
REMARK  8 active torsions:
REMARK  status: ('A' for Active; 'I' for Inactive)
REMARK    1  A    between atoms: C_1  and  O_2
REMARK    2  A    between atoms: O_2  and  C_3
REMARK    3  A    between atoms: C_8  and  C_9
REMARK    4  A    between atoms: N_11  and  C_12
REMARK    5  A    between atoms: C_12  and  C_13
REMARK    6  A    between atoms: C_16  and  C_17
REMARK    7  A    between atoms: C_17  and  N_18
REMARK    8  A    between atoms: C_19  and  C_21
REMARK                            x       y       z     vdW  Elec       q    Type
REMARK                         _______ _______ _______ _____ _____    ______ ____
ROOT
ATOM      1  C   UNL     1      50.348   7.487  15.299  0.00  0.00    +0.000 A 
ATOM      2  C   UNL     1      50.775   8.044  14.085  0.00  0.00    +0.000 A 
ATOM      3  C   UNL     1      49.895   8.156  13.001  0.00  0.00    +0.000 A 
ATOM      4  C   UNL     1      48.563   7.734  13.117  0.00  0.00    +0.000 A 
ATOM      5  C   UNL     1      48.138   7.181  14.332  0.00  0.00    +0.000 A 
ATOM      6  C   UNL     1      49.016   7.069  15.413  0.00  0.00    +0.000 A 
ENDROOT
BRANCH   1   7
ATOM      7  C   UNL     1      51.297   7.334  16.460  0.00  0.00    +0.000 C 
BRANCH   7  10
ATOM      8  C   UNL     1      51.232   5.171  17.625  0.00  0.00    +0.000 C 
ATOM      9  O   UNL     1      50.411   5.590  18.437  0.00  0.00    +0.000 OA
ATOM     10  N   UNL     1      51.742   5.972  16.631  0.00  0.00    +0.000 N 
ATOM     11  H   UNL     1      52.440   5.592  16.001  0.00  0.00    +0.000 HD
BRANCH   8  17
ATOM     12  C   UNL     1      50.915   2.636  17.239  0.00  0.00    +0.000 A 
ATOM     13  C   UNL     1      51.425   1.338  17.405  0.00  0.00    +0.000 A 
ATOM     14  C   UNL     1      52.672   1.125  17.996  0.00  0.00    +0.000 A 
ATOM     15  C   UNL     1      53.438   2.206  18.413  0.00  0.00    +0.000 A 
ATOM     16  C   UNL     1      52.946   3.502  18.252  0.00  0.00    +0.000 A 
ATOM     17  C   UNL     1      51.681   3.737  17.675  0.00  0.00    +0.000 A 
BRANCH  12  19
ATOM     18  C   UNL     1      48.540   2.737  17.412  0.00  0.00    +0.000 C 
ATOM     19  O   UNL     1      49.715   2.884  16.622  0.00  0.00    +0.000 OA
ENDBRANCH  12  19
ENDBRANCH   8  17
ENDBRANCH   7  10
ENDBRANCH   1   7
BRANCH   4  20
ATOM     20  C   UNL     1      47.610   7.826  11.951  0.00  0.00    +0.000 C 
BRANCH  20  21
ATOM     21  N   UNL     1      46.904   6.584  11.752  0.00  0.00    +0.000 N 
ATOM     22  C   UNL     1      45.534   6.526  11.783  0.00  0.00    +0.000 C 
ATOM     23  O   UNL     1      44.842   7.531  11.931  0.00  0.00    +0.000 OA
ATOM     24  H   UNL     1      47.438   5.730  11.877  0.00  0.00    +0.000 HD
BRANCH  22  25
ATOM     25  C   UNL     1      44.929   5.205  11.566  0.00  0.00    +0.000 A 
ATOM     26  C   UNL     1      44.235   4.585  12.597  0.00  0.00    +0.000 A 
ATOM     27  S   UNL     1      43.554   3.085  12.158  0.00  0.00    +0.000 S 
ATOM     28  C   UNL     1      44.210   3.183  10.591  0.00  0.00    +0.000 A 
ATOM     29  N   UNL     1      44.023   2.183   9.690  0.00  0.00    +0.000 NA
ATOM     30  C   UNL     1      44.604   2.374   8.553  0.00  0.00    +0.000 A 
ATOM     31  N   UNL     1      45.349   3.477   8.233  0.00  0.00    +0.000 N 
ATOM     32  C   UNL     1      45.543   4.527   9.099  0.00  0.00    +0.000 A 
ATOM     33  O   UNL     1      46.181   5.519   8.767  0.00  0.00    +0.000 OA
ATOM     34  C   UNL     1      44.922   4.356  10.400  0.00  0.00    +0.000 A 
ATOM     35  H   UNL     1      45.771   3.572   7.319  0.00  0.00    +0.000 HD
ENDBRANCH  22  25
ENDBRANCH  20  21
ENDBRANCH   4  20
TORSDOF 7
ENDMDL
MODEL 2
REMARK VINA RESULT:    -6.901      2.873      8.850
REMARK INTER + INTRA:         -10.979
REMARK INTER:                  -9.873
REMARK INTRA:                  -1.106
REMARK UNBOUND:                -1.254
REMARK  Name = 
REMARK  8 active torsions:
REMARK  status: ('A' for Active; 'I' for Inactive)
REMARK    1  A    between atoms: C_1  and  O_2
REMARK    2  A    between atoms: O_2  and  C_3
REMARK    3  A    between atoms: C_8  and  C_9
REMARK    4  A    between atoms: N_11  and  C_12
REMARK    5  A    between atoms: C_12  and  C_13
REMARK    6  A    between atoms: C_16  and  C_17
REMARK    7  A    between atoms: C_17  and  N_18
REMARK    8  A    between atoms: C_19  and  C_21
REMARK                            x       y       z     vdW  Elec       q    Type
REMARK                         _______ _______ _______ _____ _____    ______ ____
ROOT
ATOM      1  C   UNL     1      48.054   7.851  13.316  0.00  0.00    +0.000 A 
ATOM      2  C   UNL     1      48.058   9.009  14.107  0.00  0.00    +0.000 A 
ATOM      3  C   UNL     1      48.421   8.949  15.459  0.00  0.00    +0.000 A 
ATOM      4  C   UNL     1      48.808   7.734  16.041  0.00  0.00    +0.000 A 
ATOM      5  C   UNL     1      48.806   6.580  15.247  0.00  0.00    +0.000 A 
ATOM      6  C   UNL     1      48.444   6.639  13.898  0.00  0.00    +0.000 A 
ENDROOT
BRANCH   1   7
ATOM      7  C   UNL     1      47.636   7.902  11.869  0.00  0.00    +0.000 C 
BRANCH   7  10
ATOM      8  C   UNL     1      45.714   6.518  11.209  0.00  0.00    +0.000 C 
ATOM      9  O   UNL     1      44.928   7.434  11.438  0.00  0.00    +0.000 OA
ATOM     10  N   UNL     1      47.066   6.654  11.418  0.00  0.00    +0.000 N 
ATOM     11  H   UNL     1      47.674   5.861  11.244  0.00  0.00    +0.000 HD
BRANCH   8  17
ATOM     12  C   UNL     1      44.564   4.212  11.402  0.00  0.00    +0.000 A 
ATOM     13  C   UNL     1      44.207   3.008  10.775  0.00  0.00    +0.000 A 
ATOM     14  C   UNL     1      44.489   2.791   9.424  0.00  0.00    +0.000 A 
ATOM     15  C   UNL     1      45.113   3.780   8.675  0.00  0.00    +0.000 A 
ATOM     16  C   UNL     1      45.472   4.983   9.285  0.00  0.00    +0.000 A 
ATOM     17  C   UNL     1      45.214   5.214  10.652  0.00  0.00    +0.000 A 
BRANCH  12  19
ATOM     18  C   UNL     1      42.945   4.937  12.995  0.00  0.00    +0.000 C 
ATOM     19  O   UNL     1      44.263   4.478  12.715  0.00  0.00    +0.000 OA
ENDBRANCH  12  19
ENDBRANCH   8  17
ENDBRANCH   7  10
ENDBRANCH   1   7
BRANCH   4  20
ATOM     20  C   UNL     1      49.178   7.649  17.501  0.00  0.00    +0.000 C 
BRANCH  20  21
ATOM     21  N   UNL     1      50.229   6.687  17.720  0.00  0.00    +0.000 N 
ATOM     22  C   UNL     1      50.044   5.597  18.533  0.00  0.00    +0.000 C 
ATOM     23  O   UNL     1      48.965   5.361  19.072  0.00  0.00    +0.000 OA
ATOM     24  H   UNL     1      51.174   6.983  17.499  0.00  0.00    +0.000 HD
BRANCH  22  25
ATOM     25  C   UNL     1      51.188   4.686  18.677  0.00  0.00    +0.000 A 
ATOM     26  C   UNL     1      52.304   5.088  19.398  0.00  0.00    +0.000 A 
ATOM     27  S   UNL     1      53.514   3.891  19.511  0.00  0.00    +0.000 S 
ATOM     28  C   UNL     1      52.612   2.812  18.552  0.00  0.00    +0.000 A 
ATOM     29  N   UNL     1      53.099   1.584  18.234  0.00  0.00    +0.000 NA
ATOM     30  C   UNL     1      52.325   0.884  17.474  0.00  0.00    +0.000 A 
ATOM     31  N   UNL     1      51.106   1.297  17.010  0.00  0.00    +0.000 N 
ATOM     32  C   UNL     1      50.557   2.517  17.328  0.00  0.00    +0.000 A 
ATOM     33  O   UNL     1      49.444   2.840  16.930  0.00  0.00    +0.000 OA
ATOM     34  C   UNL     1      51.395   3.352  18.170  0.00  0.00    +0.000 A 
ATOM     35  H   UNL     1      50.541   0.696  16.425  0.00  0.00    +0.000 HD
ENDBRANCH  22  25
ENDBRANCH  20  21
ENDBRANCH   4  20
TORSDOF 7
ENDMDL
MODEL 3
REMARK VINA RESULT:    -6.798      3.273      8.922
REMARK INTER + INTRA:         -10.835
REMARK INTER:                 -10.531
REMARK INTRA:                  -0.304
REMARK UNBOUND:                -1.254
REMARK  Name = 
REMARK  8 active torsions:
REMARK  status: ('A' for Active; 'I' for Inactive)
REMARK    1  A    between atoms: C_1  and  O_2
REMARK    2  A    between atoms: O_2  and  C_3
REMARK    3  A    between atoms: C_8  and  C_9
REMARK    4  A    between atoms: N_11  and  C_12
REMARK    5  A    between atoms: C_12  and  C_13
REMARK    6  A    between atoms: C_16  and  C_17
REMARK    7  A    between atoms: C_17  and  N_18
REMARK    8  A    between atoms: C_19  and  C_21
REMARK                            x       y       z     vdW  Elec       q    Type
REMARK                         _______ _______ _______ _____ _____    ______ ____
ROOT
ATOM      1  C   UNL     1      45.041   5.818  11.127  0.00  0.00    +0.000 A 
ATOM      2  C   UNL     1      44.708   7.178  11.209  0.00  0.00    +0.000 A 
ATOM      3  C   UNL     1      45.435   8.043  12.037  0.00  0.00    +0.000 A 
ATOM      4  C   UNL     1      46.523   7.570  12.783  0.00  0.00    +0.000 A 
ATOM      5  C   UNL     1      46.856   6.212  12.697  0.00  0.00    +0.000 A 
ATOM      6  C   UNL     1      46.131   5.349  11.870  0.00  0.00    +0.000 A 
ENDROOT
BRANCH   1   7
ATOM      7  C   UNL     1      44.246   4.874  10.262  0.00  0.00    +0.000 C 
BRANCH   7  10
ATOM      8  C   UNL     1      45.486   3.198   8.960  0.00  0.00    +0.000 C 
ATOM      9  O   UNL     1      45.390   2.371   9.863  0.00  0.00    +0.000 OA
ATOM     10  N   UNL     1      44.972   4.467   9.083  0.00  0.00    +0.000 N 
ATOM     11  H   UNL     1      45.102   5.127   8.323  0.00  0.00    +0.000 HD
BRANCH   8  17
ATOM     12  C   UNL     1      46.619   1.538   7.337  0.00  0.00    +0.000 A 
ATOM     13  C   UNL     1      47.283   1.339   6.115  0.00  0.00    +0.000 A 
ATOM     14  C   UNL     1      47.484   2.397   5.226  0.00  0.00    +0.000 A 
ATOM     15  C   UNL     1      47.008   3.664   5.534  0.00  0.00    +0.000 A 
ATOM     16  C   UNL     1      46.344   3.877   6.743  0.00  0.00    +0.000 A 
ATOM     17  C   UNL     1      46.149   2.827   7.663  0.00  0.00    +0.000 A 
BRANCH  12  19
ATOM     18  C   UNL     1      46.653  -0.807   7.767  0.00  0.00    +0.000 C 
ATOM     19  O   UNL     1      46.364   0.514   8.214  0.00  0.00    +0.000 OA
ENDBRANCH  12  19
ENDBRANCH   8  17
ENDBRANCH   7  10
ENDBRANCH   1   7
BRANCH   4  20
ATOM     20  C   UNL     1      47.300   8.484  13.698  0.00  0.00    +0.000 C 
BRANCH  20  21
ATOM     21  N   UNL     1      47.662   7.815  14.924  0.00  0.00    +0.000 N 
ATOM     22  C   UNL     1      48.857   7.154  15.052  0.00  0.00    +0.000 C 
ATOM     23  O   UNL     1      49.695   7.141  14.154  0.00  0.00    +0.000 OA
ATOM     24  H   UNL     1      46.908   7.602  15.568  0.00  0.00    +0.000 HD
BRANCH  22  25
ATOM     25  C   UNL     1      49.114   6.511  16.348  0.00  0.00    +0.000 A 
ATOM     26  C   UNL     1      49.886   7.163  17.301  0.00  0.00    +0.000 A 
ATOM     27  S   UNL     1      50.039   6.299  18.764  0.00  0.00    +0.000 S 
ATOM     28  C   UNL     1      49.125   4.999  18.155  0.00  0.00    +0.000 A 
ATOM     29  N   UNL     1      48.897   3.891  18.909  0.00  0.00    +0.000 NA
ATOM     30  C   UNL     1      48.219   2.970  18.311  0.00  0.00    +0.000 A 
ATOM     31  N   UNL     1      47.742   3.059  17.031  0.00  0.00    +0.000 N 
ATOM     32  C   UNL     1      47.921   4.169  16.240  0.00  0.00    +0.000 A 
ATOM     33  O   UNL     1      47.446   4.234  15.113  0.00  0.00    +0.000 OA
ATOM     34  C   UNL     1      48.693   5.231  16.861  0.00  0.00    +0.000 A 
ATOM     35  H   UNL     1      47.207   2.305  16.622  0.00  0.00    +0.000 HD
ENDBRANCH  22  25
ENDBRANCH  20  21
ENDBRANCH   4  20
TORSDOF 7
ENDMDL
MODEL 4
REMARK VINA RESULT:    -6.755      3.157      9.250
REMARK INTER + INTRA:         -10.774
REMARK INTER:                 -10.060
REMARK INTRA:                  -0.714
REMARK UNBOUND:                -1.254
REMARK  Name = 
REMARK  8 active torsions:
REMARK  status: ('A' for Active; 'I' for Inactive)
REMARK    1  A    between atoms: C_1  and  O_2
REMARK    2  A    between atoms: O_2  and  C_3
REMARK    3  A    between atoms: C_8  and  C_9
REMARK    4  A    between atoms: N_11  and  C_12
REMARK    5  A    between atoms: C_12  and  C_13
REMARK    6  A    between atoms: C_16  and  C_17
REMARK    7  A    between atoms: C_17  and  N_18
REMARK    8  A    between atoms: C_19  and  C_21
REMARK                            x       y       z     vdW  Elec       q    Type
REMARK                         _______ _______ _______ _____ _____    ______ ____
ROOT
ATOM      1  C   UNL     1      45.833   5.198  12.209  0.00  0.00    +0.000 A 
ATOM      2  C   UNL     1      46.055   6.577  12.086  0.00  0.00    +0.000 A 
ATOM      3  C   UNL     1      46.861   7.256  13.009  0.00  0.00    +0.000 A 
ATOM      4  C   UNL     1      47.477   6.566  14.062  0.00  0.00    +0.000 A 
ATOM      5  C   UNL     1      47.256   5.188  14.181  0.00  0.00    +0.000 A 
ATOM      6  C   UNL     1      46.452   4.510  13.259  0.00  0.00    +0.000 A 
ENDROOT
BRANCH   1   7
ATOM      7  C   UNL     1      44.943   4.465  11.238  0.00  0.00    +0.000 C 
BRANCH   7  10
ATOM      8  C   UNL     1      45.403   2.977   9.336  0.00  0.00    +0.000 C 
ATOM      9  O   UNL     1      44.666   2.106   9.791  0.00  0.00    +0.000 OA
ATOM     10  N   UNL     1      45.617   4.163   9.998  0.00  0.00    +0.000 N 
ATOM     11  H   UNL     1      46.258   4.841   9.599  0.00  0.00    +0.000 HD
BRANCH   8  17
ATOM     12  C   UNL     1      46.571   1.551   7.526  0.00  0.00    +0.000 A 
ATOM     13  C   UNL     1      47.239   1.515   6.292  0.00  0.00    +0.000 A 
ATOM     14  C   UNL     1      47.418   2.677   5.538  0.00  0.00    +0.000 A 
ATOM     15  C   UNL     1      46.916   3.888   5.995  0.00  0.00    +0.000 A 
ATOM     16  C   UNL     1      46.247   3.938   7.220  0.00  0.00    +0.000 A 
ATOM     17  C   UNL     1      46.073   2.780   8.005  0.00  0.00    +0.000 A 
BRANCH  12  19
ATOM     18  C   UNL     1      46.707  -0.824   7.691  0.00  0.00    +0.000 C 
ATOM     19  O   UNL     1      46.338   0.422   8.272  0.00  0.00    +0.000 OA
ENDBRANCH  12  19
ENDBRANCH   8  17
ENDBRANCH   7  10
ENDBRANCH   1   7
BRANCH   4  20
ATOM     20  C   UNL     1      48.327   7.288  15.079  0.00  0.00    +0.000 C 
BRANCH  20  21
ATOM     21  N   UNL     1      49.380   6.438  15.578  0.00  0.00    +0.000 N 
ATOM     22  C   UNL     1      49.515   6.179  16.919  0.00  0.00    +0.000 C 
ATOM     23  O   UNL     1      48.723   6.614  17.750  0.00  0.00    +0.000 OA
ATOM     24  H   UNL     1      50.171   6.279  14.962  0.00  0.00    +0.000 HD
BRANCH  22  25
ATOM     25  C   UNL     1      50.626   5.298  17.307  0.00  0.00    +0.000 A 
ATOM     26  C   UNL     1      51.823   5.848  17.744  0.00  0.00    +0.000 A 
ATOM     27  S   UNL     1      52.983   4.685  18.204  0.00  0.00    +0.000 S 
ATOM     28  C   UNL     1      51.945   3.404  17.782  0.00  0.00    +0.000 A 
ATOM     29  N   UNL     1      52.344   2.111  17.906  0.00  0.00    +0.000 NA
ATOM     30  C   UNL     1      51.470   1.244  17.519  0.00  0.00    +0.000 A 
ATOM     31  N   UNL     1      50.231   1.552  17.025  0.00  0.00    +0.000 N 
ATOM     32  C   UNL     1      49.771   2.842  16.908  0.00  0.00    +0.000 A 
ATOM     33  O   UNL     1      48.641   3.083  16.500  0.00  0.00    +0.000 OA
ATOM     34  C   UNL     1      50.723   3.859  17.316  0.00  0.00    +0.000 A 
ATOM     35  H   UNL     1      49.587   0.824  16.747  0.00  0.00    +0.000 HD
ENDBRANCH  22  25
ENDBRANCH  20  21
ENDBRANCH   4  20
TORSDOF 7
ENDMDL
MODEL 5
REMARK VINA RESULT:    -6.692      1.525      2.700
REMARK INTER + INTRA:         -10.685
REMARK INTER:                  -9.428
REMARK INTRA:                  -1.257
REMARK UNBOUND:                -1.254
REMARK  Name = 
REMARK  8 active torsions:
REMARK  status: ('A' for Active; 'I' for Inactive)
REMARK    1  A    between atoms: C_1  and  O_2
REMARK    2  A    between atoms: O_2  and  C_3
REMARK    3  A    between atoms: C_8  and  C_9
REMARK    4  A    between atoms: N_11  and  C_12
REMARK    5  A    between atoms: C_12  and  C_13
REMARK    6  A    between atoms: C_16  and  C_17
REMARK    7  A    between atoms: C_17  and  N_18
REMARK    8  A    between atoms: C_19  and  C_21
REMARK                            x       y       z     vdW  Elec       q    Type
REMARK                         _______ _______ _______ _____ _____    ______ ____
ROOT
ATOM      1  C   UNL     1      49.875   7.071  16.014  0.00  0.00    +0.000 A 
ATOM      2  C   UNL     1      48.665   6.545  15.540  0.00  0.00    +0.000 A 
ATOM      3  C   UNL     1      48.234   6.810  14.234  0.00  0.00    +0.000 A 
ATOM      4  C   UNL     1      49.014   7.589  13.369  0.00  0.00    +0.000 A 
ATOM      5  C   UNL     1      50.224   8.111  13.844  0.00  0.00    +0.000 A 
ATOM      6  C   UNL     1      50.655   7.846  15.147  0.00  0.00    +0.000 A 
ENDROOT
BRANCH   1   7
ATOM      7  C   UNL     1      50.333   6.816  17.428  0.00  0.00    +0.000 C 
BRANCH   7  10
ATOM      8  C   UNL     1      50.713   4.454  17.992  0.00  0.00    +0.000 C 
ATOM      9  O   UNL     1      49.557   4.322  18.386  0.00  0.00    +0.000 OA
ATOM     10  N   UNL     1      51.188   5.657  17.526  0.00  0.00    +0.000 N 
ATOM     11  H   UNL     1      52.158   5.726  17.240  0.00  0.00    +0.000 HD
BRANCH   8  17
ATOM     12  C   UNL     1      52.985   3.298  18.415  0.00  0.00    +0.000 A 
ATOM     13  C   UNL     1      53.771   2.142  18.283  0.00  0.00    +0.000 A 
ATOM     14  C   UNL     1      53.245   0.975  17.723  0.00  0.00    +0.000 A 
ATOM     15  C   UNL     1      51.921   0.940  17.304  0.00  0.00    +0.000 A 
ATOM     16  C   UNL     1      51.127   2.081  17.432  0.00  0.00    +0.000 A 
ATOM     17  C   UNL     1      51.645   3.274  17.976  0.00  0.00    +0.000 A 
BRANCH  12  19
ATOM     18  C   UNL     1      53.829   4.365  20.373  0.00  0.00    +0.000 C 
ATOM     19  O   UNL     1      53.454   4.446  19.002  0.00  0.00    +0.000 OA
ENDBRANCH  12  19
ENDBRANCH   8  17
ENDBRANCH   7  10
ENDBRANCH   1   7
BRANCH   4  20
ATOM     20  C   UNL     1      48.551   7.904  11.968  0.00  0.00    +0.000 C 
BRANCH  20  21
ATOM     21  N   UNL     1      47.776   6.820  11.416  0.00  0.00    +0.000 N 
ATOM     22  C   UNL     1      46.405   6.869  11.376  0.00  0.00    +0.000 C 
ATOM     23  O   UNL     1      45.776   7.852  11.759  0.00  0.00    +0.000 OA
ATOM     24  H   UNL     1      48.241   5.922  11.330  0.00  0.00    +0.000 HD
BRANCH  22  25
ATOM     25  C   UNL     1      45.726   5.705  10.789  0.00  0.00    +0.000 A 
ATOM     26  C   UNL     1      45.825   5.461   9.426  0.00  0.00    +0.000 A 
ATOM     27  S   UNL     1      45.022   4.043   8.925  0.00  0.00    +0.000 S 
ATOM     28  C   UNL     1      44.465   3.735  10.503  0.00  0.00    +0.000 A 
ATOM     29  N   UNL     1      43.676   2.660  10.769  0.00  0.00    +0.000 NA
ATOM     30  C   UNL     1      43.300   2.567  12.000  0.00  0.00    +0.000 A 
ATOM     31  N   UNL     1      43.646   3.447  12.990  0.00  0.00    +0.000 N 
ATOM     32  C   UNL     1      44.464   4.530  12.777  0.00  0.00    +0.000 A 
ATOM     33  O   UNL     1      44.789   5.276  13.694  0.00  0.00    +0.000 OA
ATOM     34  C   UNL     1      44.904   4.691  11.403  0.00  0.00    +0.000 A 
ATOM     35  H   UNL     1      43.326   3.312  13.940  0.00  0.00    +0.000 HD
ENDBRANCH  22  25
ENDBRANCH  20  21
ENDBRANCH   4  20
TORSDOF 7
ENDMDL
MODEL 6
REMARK VINA RESULT:    -6.631      3.501      9.125
REMARK INTER + INTRA:         -10.599
REMARK INTER:                 -10.001
REMARK INTRA:                  -0.598
REMARK UNBOUND:                -1.254
REMARK  Name = 
REMARK  8 active torsions:
REMARK  status: ('A' for Active; 'I' for Inactive)
REMARK    1  A    between atoms: C_1  and  O_2
REMARK    2  A    between atoms: O_2  and  C_3
REMARK    3  A    between atoms: C_8  and  C_9
REMARK    4  A    between atoms: N_11  and  C_12
REMARK    5  A    between atoms: C_12  and  C_13
REMARK    6  A    between atoms: C_16  and  C_17
REMARK    7  A    between atoms: C_17  and  N_18
REMARK    8  A    between atoms: C_19  and  C_21
REMARK                            x       y       z     vdW  Elec       q    Type
REMARK                         _______ _______ _______ _____ _____    ______ ____
ROOT
ATOM      1  C   UNL     1      44.809   4.843  12.099  0.00  0.00    +0.000 A 
ATOM      2  C   UNL     1      45.912   4.974  12.954  0.00  0.00    +0.000 A 
ATOM      3  C   UNL     1      46.412   6.239  13.287  0.00  0.00    +0.000 A 
ATOM      4  C   UNL     1      45.806   7.400  12.789  0.00  0.00    +0.000 A 
ATOM      5  C   UNL     1      44.702   7.267  11.937  0.00  0.00    +0.000 A 
ATOM      6  C   UNL     1      44.202   6.004  11.605  0.00  0.00    +0.000 A 
ENDROOT
BRANCH   1   7
ATOM      7  C   UNL     1      44.282   3.484  11.712  0.00  0.00    +0.000 C 
BRANCH   7  10
ATOM      8  C   UNL     1      44.828   3.061   9.353  0.00  0.00    +0.000 C 
ATOM      9  O   UNL     1      43.883   3.748   8.972  0.00  0.00    +0.000 OA
ATOM     10  N   UNL     1      45.083   2.857  10.688  0.00  0.00    +0.000 N 
ATOM     11  H   UNL     1      45.856   2.258  10.956  0.00  0.00    +0.000 HD
BRANCH   8  17
ATOM     12  C   UNL     1      46.442   3.153   7.337  0.00  0.00    +0.000 A 
ATOM     13  C   UNL     1      47.238   2.446   6.422  0.00  0.00    +0.000 A 
ATOM     14  C   UNL     1      47.366   1.057   6.503  0.00  0.00    +0.000 A 
ATOM     15  C   UNL     1      46.717   0.357   7.511  0.00  0.00    +0.000 A 
ATOM     16  C   UNL     1      45.923   1.046   8.429  0.00  0.00    +0.000 A 
ATOM     17  C   UNL     1      45.765   2.445   8.352  0.00  0.00    +0.000 A 
BRANCH  12  19
ATOM     18  C   UNL     1      46.862   5.231   8.428  0.00  0.00    +0.000 C 
ATOM     19  O   UNL     1      46.329   4.520   7.315  0.00  0.00    +0.000 OA
ENDBRANCH  12  19
ENDBRANCH   8  17
ENDBRANCH   7  10
ENDBRANCH   1   7
BRANCH   4  20
ATOM     20  C   UNL     1      46.348   8.769  13.118  0.00  0.00    +0.000 C 
BRANCH  20  21
ATOM     21  N   UNL     1      46.906   8.805  14.448  0.00  0.00    +0.000 N 
ATOM     22  C   UNL     1      48.261   8.770  14.656  0.00  0.00    +0.000 C 
ATOM     23  O   UNL     1      49.064   8.756  13.726  0.00  0.00    +0.000 OA
ATOM     24  H   UNL     1      46.282   8.569  15.212  0.00  0.00    +0.000 HD
BRANCH  22  25
ATOM     25  C   UNL     1      48.710   8.814  16.055  0.00  0.00    +0.000 A 
ATOM     26  C   UNL     1      48.844  10.037  16.699  0.00  0.00    +0.000 A 
ATOM     27  S   UNL     1      49.322   9.901  18.331  0.00  0.00    +0.000 S 
ATOM     28  C   UNL     1      49.421   8.206  18.218  0.00  0.00    +0.000 A 
ATOM     29  N   UNL     1      49.812   7.456  19.282  0.00  0.00    +0.000 NA
ATOM     30  C   UNL     1      49.874   6.188  19.046  0.00  0.00    +0.000 A 
ATOM     31  N   UNL     1      49.575   5.602  17.846  0.00  0.00    +0.000 N 
ATOM     32  C   UNL     1      49.146   6.314  16.750  0.00  0.00    +0.000 A 
ATOM     33  O   UNL     1      48.846   5.755  15.702  0.00  0.00    +0.000 OA
ATOM     34  C   UNL     1      49.073   7.750  16.957  0.00  0.00    +0.000 A 
ATOM     35  H   UNL     1      49.634   4.600  17.727  0.00  0.00    +0.000 HD
ENDBRANCH  22  25
ENDBRANCH  20  21
ENDBRANCH   4  20
TORSDOF 7
ENDMDL
MODEL 7
REMARK VINA RESULT:    -6.619      5.405      8.674
REMARK INTER + INTRA:         -10.582
REMARK INTER:                  -9.525
REMARK INTRA:                  -1.057
REMARK UNBOUND:                -1.254
REMARK  Name = 
REMARK  8 active torsions:
REMARK  status: ('A' for Active; 'I' for Inactive)
REMARK    1  A    between atoms: C_1  and  O_2
REMARK    2  A    between atoms: O_2  and  C_3
REMARK    3  A    between atoms: C_8  and  C_9
REMARK    4  A    between atoms: N_11  and  C_12
REMARK    5  A    between atoms: C_12  and  C_13
REMARK    6  A    between atoms: C_16  and  C_17
REMARK    7  A    between atoms: C_17  and  N_18
REMARK    8  A    between atoms: C_19  and  C_21
REMARK                            x       y       z     vdW  Elec       q    Type
REMARK                         _______ _______ _______ _____ _____    ______ ____
ROOT
ATOM      1  C   UNL     1      48.081   7.887  12.551  0.00  0.00    +0.000 A 
ATOM      2  C   UNL     1      49.265   7.166  12.339  0.00  0.00    +0.000 A 
ATOM      3  C   UNL     1      50.394   7.791  11.793  0.00  0.00    +0.000 A 
ATOM      4  C   UNL     1      50.368   9.154  11.469  0.00  0.00    +0.000 A 
ATOM      5  C   UNL     1      49.185   9.873  11.685  0.00  0.00    +0.000 A 
ATOM      6  C   UNL     1      48.059   9.249  12.230  0.00  0.00    +0.000 A 
ENDROOT
BRANCH   1   7
ATOM      7  C   UNL     1      46.853   7.215  13.109  0.00  0.00    +0.000 C 
BRANCH   7  10
ATOM      8  C   UNL     1      45.506   6.245  11.296  0.00  0.00    +0.000 C 
ATOM      9  O   UNL     1      44.973   7.327  11.062  0.00  0.00    +0.000 OA
ATOM     10  N   UNL     1      46.427   6.094  12.306  0.00  0.00    +0.000 N 
ATOM     11  H   UNL     1      46.818   5.175  12.483  0.00  0.00    +0.000 HD
BRANCH   8  17
ATOM     12  C   UNL     1      44.510   3.894  10.900  0.00  0.00    +0.000 A 
ATOM     13  C   UNL     1      44.334   2.813  10.023  0.00  0.00    +0.000 A 
ATOM     14  C   UNL     1      44.821   2.862   8.715  0.00  0.00    +0.000 A 
ATOM     15  C   UNL     1      45.473   3.999   8.258  0.00  0.00    +0.000 A 
ATOM     16  C   UNL     1      45.653   5.084   9.118  0.00  0.00    +0.000 A 
ATOM     17  C   UNL     1      45.186   5.046  10.448  0.00  0.00    +0.000 A 
BRANCH  12  19
ATOM     18  C   UNL     1      42.845   4.689  12.410  0.00  0.00    +0.000 C 
ATOM     19  O   UNL     1      44.005   3.899  12.177  0.00  0.00    +0.000 OA
ENDBRANCH  12  19
ENDBRANCH   8  17
ENDBRANCH   7  10
ENDBRANCH   1   7
BRANCH   4  20
ATOM     20  C   UNL     1      51.568   9.836  10.858  0.00  0.00    +0.000 C 
BRANCH  20  21
ATOM     21  N   UNL     1      51.926   9.235   9.597  0.00  0.00    +0.000 N 
ATOM     22  C   UNL     1      53.156   8.660   9.402  0.00  0.00    +0.000 C 
ATOM     23  O   UNL     1      53.991   8.585  10.300  0.00  0.00    +0.000 OA
ATOM     24  H   UNL     1      51.370   9.500   8.790  0.00  0.00    +0.000 HD
BRANCH  22  25
ATOM     25  C   UNL     1      53.404   8.079   8.074  0.00  0.00    +0.000 A 
ATOM     26  C   UNL     1      53.432   8.901   6.955  0.00  0.00    +0.000 A 
ATOM     27  S   UNL     1      53.785   8.072   5.507  0.00  0.00    +0.000 S 
ATOM     28  C   UNL     1      53.857   6.576   6.317  0.00  0.00    +0.000 A 
ATOM     29  N   UNL     1      54.099   5.424   5.637  0.00  0.00    +0.000 NA
ATOM     30  C   UNL     1      54.093   4.362   6.371  0.00  0.00    +0.000 A 
ATOM     31  N   UNL     1      53.873   4.348   7.722  0.00  0.00    +0.000 N 
ATOM     32  C   UNL     1      53.654   5.488   8.457  0.00  0.00    +0.000 A 
ATOM     33  O   UNL     1      53.501   5.446   9.672  0.00  0.00    +0.000 OA
ATOM     34  C   UNL     1      53.635   6.713   7.677  0.00  0.00    +0.000 A 
ATOM     35  H   UNL     1      53.891   3.481   8.242  0.00  0.00    +0.000 HD
ENDBRANCH  22  25
ENDBRANCH  20  21
ENDBRANCH   4  20
TORSDOF 7
ENDMDL
MODEL 8
REMARK VINA RESULT:    -6.594      1.886      2.434
REMARK INTER + INTRA:         -10.547
REMARK INTER:                  -9.169
REMARK INTRA:                  -1.378
REMARK UNBOUND:                -1.254
REMARK  Name = 
REMARK  8 active torsions:
REMARK  status: ('A' for Active; 'I' for Inactive)
REMARK    1  A    between atoms: C_1  and  O_2
REMARK    2  A    between atoms: O_2  and  C_3
REMARK    3  A    between atoms: C_8  and  C_9
REMARK    4  A    between atoms: N_11  and  C_12
REMARK    5  A    between atoms: C_12  and  C_13
REMARK    6  A    between atoms: C_16  and  C_17
REMARK    7  A    between atoms: C_17  and  N_18
REMARK    8  A    between atoms: C_19  and  C_21
REMARK                            x       y       z     vdW  Elec       q    Type
REMARK                         _______ _______ _______ _____ _____    ______ ____
ROOT
ATOM      1  C   UNL     1      50.447   7.655  15.010  0.00  0.00    +0.000 A 
ATOM      2  C   UNL     1      49.244   6.935  15.044  0.00  0.00    +0.000 A 
ATOM      3  C   UNL     1      48.357   6.975  13.960  0.00  0.00    +0.000 A 
ATOM      4  C   UNL     1      48.665   7.718  12.812  0.00  0.00    +0.000 A 
ATOM      5  C   UNL     1      49.869   8.434  12.780  0.00  0.00    +0.000 A 
ATOM      6  C   UNL     1      50.755   8.394  13.861  0.00  0.00    +0.000 A 
ENDROOT
BRANCH   1   7
ATOM      7  C   UNL     1      51.393   7.642  16.184  0.00  0.00    +0.000 C 
BRANCH   7  10
ATOM      8  C   UNL     1      50.925   5.930  17.885  0.00  0.00    +0.000 C 
ATOM      9  O   UNL     1      51.593   5.094  17.282  0.00  0.00    +0.000 OA
ATOM     10  N   UNL     1      50.752   7.205  17.401  0.00  0.00    +0.000 N 
ATOM     11  H   UNL     1      50.166   7.853  17.917  0.00  0.00    +0.000 HD
BRANCH   8  17
ATOM     12  C   UNL     1      48.912   5.615  19.473  0.00  0.00    +0.000 A 
ATOM     13  C   UNL     1      48.458   5.336  20.772  0.00  0.00    +0.000 A 
ATOM     14  C   UNL     1      49.356   5.033  21.798  0.00  0.00    +0.000 A 
ATOM     15  C   UNL     1      50.719   4.985  21.537  0.00  0.00    +0.000 A 
ATOM     16  C   UNL     1      51.185   5.258  20.250  0.00  0.00    +0.000 A 
ATOM     17  C   UNL     1      50.296   5.585  19.206  0.00  0.00    +0.000 A 
BRANCH  12  19
ATOM     18  C   UNL     1      47.317   4.770  17.915  0.00  0.00    +0.000 C 
ATOM     19  O   UNL     1      48.056   5.872  18.432  0.00  0.00    +0.000 OA
ENDBRANCH  12  19
ENDBRANCH   8  17
ENDBRANCH   7  10
ENDBRANCH   1   7
BRANCH   4  20
ATOM     20  C   UNL     1      47.709   7.791  11.648  0.00  0.00    +0.000 C 
BRANCH  20  21
ATOM     21  N   UNL     1      46.975   6.559  11.495  0.00  0.00    +0.000 N 
ATOM     22  C   UNL     1      45.604   6.535  11.522  0.00  0.00    +0.000 C 
ATOM     23  O   UNL     1      44.935   7.560  11.628  0.00  0.00    +0.000 OA
ATOM     24  H   UNL     1      47.488   5.698  11.656  0.00  0.00    +0.000 HD
BRANCH  22  25
ATOM     25  C   UNL     1      44.968   5.220  11.355  0.00  0.00    +0.000 A 
ATOM     26  C   UNL     1      44.249   4.662  12.403  0.00  0.00    +0.000 A 
ATOM     27  S   UNL     1      43.536   3.161  12.021  0.00  0.00    +0.000 S 
ATOM     28  C   UNL     1      44.210   3.177  10.459  0.00  0.00    +0.000 A 
ATOM     29  N   UNL     1      44.007   2.144   9.599  0.00  0.00    +0.000 NA
ATOM     30  C   UNL     1      44.603   2.272   8.461  0.00  0.00    +0.000 A 
ATOM     31  N   UNL     1      45.379   3.342   8.103  0.00  0.00    +0.000 N 
ATOM     32  C   UNL     1      45.589   4.423   8.925  0.00  0.00    +0.000 A 
ATOM     33  O   UNL     1      46.255   5.384   8.559  0.00  0.00    +0.000 OA
ATOM     34  C   UNL     1      44.952   4.323  10.226  0.00  0.00    +0.000 A 
ATOM     35  H   UNL     1      45.811   3.388   7.191  0.00  0.00    +0.000 HD
ENDBRANCH  22  25
ENDBRANCH  20  21
ENDBRANCH   4  20
TORSDOF 7
ENDMDL
MODEL 9
REMARK VINA RESULT:    -6.206      5.373      8.784
REMARK INTER + INTRA:         -10.000
REMARK INTER:                  -8.713
REMARK INTRA:                  -1.288
REMARK UNBOUND:                -1.254
REMARK  Name = 
REMARK  8 active torsions:
REMARK  status: ('A' for Active; 'I' for Inactive)
REMARK    1  A    between atoms: C_1  and  O_2
REMARK    2  A    between atoms: O_2  and  C_3
REMARK    3  A    between atoms: C_8  and  C_9
REMARK    4  A    between atoms: N_11  and  C_12
REMARK    5  A    between atoms: C_12  and  C_13
REMARK    6  A    between atoms: C_16  and  C_17
REMARK    7  A    between atoms: C_17  and  N_18
REMARK    8  A    between atoms: C_19  and  C_21
REMARK                            x       y       z     vdW  Elec       q    Type
REMARK                         _______ _______ _______ _____ _____    ______ ____
ROOT
ATOM      1  C   UNL     1      48.048   7.832  12.589  0.00  0.00    +0.000 A 
ATOM      2  C   UNL     1      49.222   7.092  12.386  0.00  0.00    +0.000 A 
ATOM      3  C   UNL     1      50.360   7.695  11.835  0.00  0.00    +0.000 A 
ATOM      4  C   UNL     1      50.355   9.054  11.497  0.00  0.00    +0.000 A 
ATOM      5  C   UNL     1      49.182   9.792  11.704  0.00  0.00    +0.000 A 
ATOM      6  C   UNL     1      48.046   9.192  12.254  0.00  0.00    +0.000 A 
ENDROOT
BRANCH   1   7
ATOM      7  C   UNL     1      46.809   7.185  13.153  0.00  0.00    +0.000 C 
BRANCH   7  10
ATOM      8  C   UNL     1      45.508   6.133  11.353  0.00  0.00    +0.000 C 
ATOM      9  O   UNL     1      44.986   7.204  11.053  0.00  0.00    +0.000 OA
ATOM     10  N   UNL     1      46.400   6.028  12.393  0.00  0.00    +0.000 N 
ATOM     11  H   UNL     1      46.783   5.117  12.624  0.00  0.00    +0.000 HD
BRANCH   8  17
ATOM     12  C   UNL     1      44.786   3.665  11.101  0.00  0.00    +0.000 A 
ATOM     13  C   UNL     1      44.602   2.564  10.250  0.00  0.00    +0.000 A 
ATOM     14  C   UNL     1      44.831   2.671   8.876  0.00  0.00    +0.000 A 
ATOM     15  C   UNL     1      45.227   3.884   8.329  0.00  0.00    +0.000 A 
ATOM     16  C   UNL     1      45.412   4.989   9.163  0.00  0.00    +0.000 A 
ATOM     17  C   UNL     1      45.205   4.896  10.554  0.00  0.00    +0.000 A 
BRANCH  12  19
ATOM     18  C   UNL     1      43.285   4.143  12.890  0.00  0.00    +0.000 C 
ATOM     19  O   UNL     1      44.528   3.609  12.448  0.00  0.00    +0.000 OA
ENDBRANCH  12  19
ENDBRANCH   8  17
ENDBRANCH   7  10
ENDBRANCH   1   7
BRANCH   4  20
ATOM     20  C   UNL     1      51.565   9.712  10.880  0.00  0.00    +0.000 C 
BRANCH  20  21
ATOM     21  N   UNL     1      51.993   9.012   9.693  0.00  0.00    +0.000 N 
ATOM     22  C   UNL     1      53.194   8.350   9.647  0.00  0.00    +0.000 C 
ATOM     23  O   UNL     1      53.937   8.279  10.623  0.00  0.00    +0.000 OA
ATOM     24  H   UNL     1      51.532   9.261   8.824  0.00  0.00    +0.000 HD
BRANCH  22  25
ATOM     25  C   UNL     1      53.520   7.674   8.384  0.00  0.00    +0.000 A 
ATOM     26  C   UNL     1      53.934   6.348   8.397  0.00  0.00    +0.000 A 
ATOM     27  S   UNL     1      54.220   5.705   6.844  0.00  0.00    +0.000 S 
ATOM     28  C   UNL     1      53.855   7.192   6.101  0.00  0.00    +0.000 A 
ATOM     29  N   UNL     1      53.935   7.339   4.753  0.00  0.00    +0.000 NA
ATOM     30  C   UNL     1      53.664   8.528   4.329  0.00  0.00    +0.000 A 
ATOM     31  N   UNL     1      53.314   9.581   5.130  0.00  0.00    +0.000 N 
ATOM     32  C   UNL     1      53.191   9.475   6.495  0.00  0.00    +0.000 A 
ATOM     33  O   UNL     1      52.835  10.427   7.180  0.00  0.00    +0.000 OA
ATOM     34  C   UNL     1      53.500   8.160   7.027  0.00  0.00    +0.000 A 
ATOM     35  H   UNL     1      53.103  10.487   4.734  0.00  0.00    +0.000 HD
ENDBRANCH  22  25
ENDBRANCH  20  21
ENDBRANCH   4  20
TORSDOF 7
ENDMDL
