MODEL 1
REMARK VINA RESULT:    -8.368      0.000      0.000
REMARK INTER + INTRA:         -12.926
REMARK INTER:                 -12.037
REMARK INTRA:                  -0.889
REMARK UNBOUND:                -0.889
REMARK  Name = 
REMARK  8 active torsions:
REMARK  status: ('A' for Active; 'I' for Inactive)
REMARK    1  A    between atoms: N_1  and  C_2
REMARK    2  A    between atoms: C_2  and  C_3
REMARK    3  A    between atoms: C_2  and  C_24
REMARK    4  A    between atoms: C_3  and  C_4
REMARK    5  A    between atoms: C_7  and  C_8
REMARK    6  A    between atoms: C_8  and  N_9
REMARK    7  A    between atoms: C_10  and  C_12
REMARK    8  A    between atoms: C_24  and  C_25
REMARK                            x       y       z     vdW  Elec       q    Type
REMARK                         _______ _______ _______ _____ _____    ______ ____
ROOT
ATOM      1  C   UNL     1      45.657   4.847  12.264  0.00  0.00    +0.000 A 
ATOM      2  C   UNL     1      46.168   4.491  13.519  0.00  0.00    +0.000 A 
ATOM      3  C   UNL     1      47.160   5.266  14.132  0.00  0.00    +0.000 A 
ATOM      4  C   UNL     1      47.643   6.426  13.512  0.00  0.00    +0.000 A 
ATOM      5  C   UNL     1      47.145   6.769  12.248  0.00  0.00    +0.000 A 
ATOM      6  C   UNL     1      46.162   5.991  11.634  0.00  0.00    +0.000 A 
ENDROOT
BRANCH   1   7
ATOM      7  C   UNL     1      44.601   4.007  11.587  0.00  0.00    +0.000 C 
BRANCH   7   8
ATOM      8  C   UNL     1      44.656   3.959  10.040  0.00  0.00    +0.000 C 
BRANCH   8   9
ATOM      9  N   UNL     1      43.497   4.718   9.515  0.00  0.00    +0.000 NA
ATOM     10  H   UNL     1      43.020   5.191  10.281  0.00  0.00    +0.000 HD
ATOM     11  H   UNL     1      42.822   4.082   9.095  0.00  0.00    +0.000 HD
ENDBRANCH   8   9
BRANCH   8  12
ATOM     12  C   UNL     1      44.651   2.515   9.490  0.00  0.00    +0.000 C 
BRANCH  12  13
ATOM     13  C   UNL     1      45.655   2.308   8.380  0.00  0.00    +0.000 A 
ATOM     14  C   UNL     1      46.010   3.365   7.543  0.00  0.00    +0.000 A 
ATOM     15  C   UNL     1      46.977   3.156   6.565  0.00  0.00    +0.000 A 
ATOM     16  C   UNL     1      47.561   1.902   6.445  0.00  0.00    +0.000 A 
ATOM     17  C   UNL     1      47.145   0.903   7.310  0.00  0.00    +0.000 A 
ATOM     18  N   UNL     1      46.206   1.075   8.266  0.00  0.00    +0.000 NA
ENDBRANCH  12  13
ENDBRANCH   8  12
ENDBRANCH   7   8
ENDBRANCH   1   7
BRANCH   4  19
ATOM     19  C   UNL     1      48.701   7.279  14.161  0.00  0.00    +0.000 C 
BRANCH  19  20
ATOM     20  N   UNL     1      48.506   7.362  15.586  0.00  0.00    +0.000 N 
ATOM     21  C   UNL     1      49.386   6.772  16.458  0.00  0.00    +0.000 C 
ATOM     22  O   UNL     1      50.394   6.184  16.070  0.00  0.00    +0.000 OA
ATOM     23  H   UNL     1      47.580   7.621  15.911  0.00  0.00    +0.000 HD
BRANCH  21  24
ATOM     24  C   UNL     1      49.098   6.930  17.889  0.00  0.00    +0.000 A 
ATOM     25  C   UNL     1      49.020   8.200  18.440  0.00  0.00    +0.000 A 
ATOM     26  S   UNL     1      48.632   8.208  20.099  0.00  0.00    +0.000 S 
ATOM     27  C   UNL     1      48.611   6.509  20.158  0.00  0.00    +0.000 A 
ATOM     28  N   UNL     1      48.361   5.849  21.321  0.00  0.00    +0.000 NA
ATOM     29  C   UNL     1      48.404   4.563  21.225  0.00  0.00    +0.000 A 
ATOM     30  N   UNL     1      48.660   3.873  20.069  0.00  0.00    +0.000 N 
ATOM     31  C   UNL     1      48.884   4.495  18.863  0.00  0.00    +0.000 A 
ATOM     32  O   UNL     1      49.063   3.845  17.837  0.00  0.00    +0.000 OA
ATOM     33  C   UNL     1      48.866   5.945  18.919  0.00  0.00    +0.000 A 
ATOM     34  H   UNL     1      48.668   2.864  20.059  0.00  0.00    +0.000 HD
ENDBRANCH  21  24
ENDBRANCH  19  20
ENDBRANCH   4  19
TORSDOF 8
ENDMDL
MODEL 2
REMARK VINA RESULT:    -8.253      1.342      2.135
REMARK INTER + INTRA:         -12.761
REMARK INTER:                 -11.753
REMARK INTRA:                  -1.008
REMARK UNBOUND:                -0.889
REMARK  Name = 
REMARK  8 active torsions:
REMARK  status: ('A' for Active; 'I' for Inactive)
REMARK    1  A    between atoms: N_1  and  C_2
REMARK    2  A    between atoms: C_2  and  C_3
REMARK    3  A    between atoms: C_2  and  C_24
REMARK    4  A    between atoms: C_3  and  C_4
REMARK    5  A    between atoms: C_7  and  C_8
REMARK    6  A    between atoms: C_8  and  N_9
REMARK    7  A    between atoms: C_10  and  C_12
REMARK    8  A    between atoms: C_24  and  C_25
REMARK                            x       y       z     vdW  Elec       q    Type
REMARK                         _______ _______ _______ _____ _____    ______ ____
ROOT
ATOM      1  C   UNL     1      45.529   4.604  12.223  0.00  0.00    +0.000 A 
ATOM      2  C   UNL     1      46.000   5.851  11.796  0.00  0.00    +0.000 A 
ATOM      3  C   UNL     1      46.954   6.550  12.547  0.00  0.00    +0.000 A 
ATOM      4  C   UNL     1      47.471   6.002  13.729  0.00  0.00    +0.000 A 
ATOM      5  C   UNL     1      46.983   4.764  14.165  0.00  0.00    +0.000 A 
ATOM      6  C   UNL     1      46.026   4.072  13.420  0.00  0.00    +0.000 A 
ENDROOT
BRANCH   1   7
ATOM      7  C   UNL     1      44.487   3.853  11.430  0.00  0.00    +0.000 C 
BRANCH   7   8
ATOM      8  C   UNL     1      44.662   3.864   9.891  0.00  0.00    +0.000 C 
BRANCH   8   9
ATOM      9  N   UNL     1      43.575   4.687   9.310  0.00  0.00    +0.000 NA
ATOM     10  H   UNL     1      43.055   5.146  10.056  0.00  0.00    +0.000 HD
ATOM     11  H   UNL     1      42.914   4.093   8.812  0.00  0.00    +0.000 HD
ENDBRANCH   8   9
BRANCH   8  12
ATOM     12  C   UNL     1      44.651   2.444   9.281  0.00  0.00    +0.000 C 
BRANCH  12  13
ATOM     13  C   UNL     1      45.691   2.263   8.201  0.00  0.00    +0.000 A 
ATOM     14  C   UNL     1      45.983   3.303   7.320  0.00  0.00    +0.000 A 
ATOM     15  C   UNL     1      46.985   3.122   6.371  0.00  0.00    +0.000 A 
ATOM     16  C   UNL     1      47.664   1.913   6.323  0.00  0.00    +0.000 A 
ATOM     17  C   UNL     1      47.306   0.927   7.227  0.00  0.00    +0.000 A 
ATOM     18  N   UNL     1      46.336   1.071   8.157  0.00  0.00    +0.000 NA
ENDBRANCH  12  13
ENDBRANCH   8  12
ENDBRANCH   7   8
ENDBRANCH   1   7
BRANCH   4  19
ATOM     19  C   UNL     1      48.506   6.734  14.543  0.00  0.00    +0.000 C 
BRANCH  19  20
ATOM     20  N   UNL     1      48.286   6.553  15.955  0.00  0.00    +0.000 N 
ATOM     21  C   UNL     1      49.264   6.032  16.764  0.00  0.00    +0.000 C 
ATOM     22  O   UNL     1      50.377   5.735  16.335  0.00  0.00    +0.000 OA
ATOM     23  H   UNL     1      47.323   6.560  16.277  0.00  0.00    +0.000 HD
BRANCH  21  24
ATOM     24  C   UNL     1      48.937   5.903  18.190  0.00  0.00    +0.000 A 
ATOM     25  C   UNL     1      49.163   4.701  18.843  0.00  0.00    +0.000 A 
ATOM     26  S   UNL     1      48.774   4.735  20.502  0.00  0.00    +0.000 S 
ATOM     27  C   UNL     1      48.234   6.344  20.398  0.00  0.00    +0.000 A 
ATOM     28  N   UNL     1      47.734   6.989  21.486  0.00  0.00    +0.000 NA
ATOM     29  C   UNL     1      47.336   8.196  21.256  0.00  0.00    +0.000 A 
ATOM     30  N   UNL     1      47.404   8.823  20.039  0.00  0.00    +0.000 N 
ATOM     31  C   UNL     1      47.933   8.224  18.920  0.00  0.00    +0.000 A 
ATOM     32  O   UNL     1      48.022   8.831  17.856  0.00  0.00    +0.000 OA
ATOM     33  C   UNL     1      48.378   6.857  19.119  0.00  0.00    +0.000 A 
ATOM     34  H   UNL     1      47.085   9.773  19.927  0.00  0.00    +0.000 HD
ENDBRANCH  21  24
ENDBRANCH  19  20
ENDBRANCH   4  19
TORSDOF 8
ENDMDL
MODEL 3
REMARK VINA RESULT:    -7.985      1.596      2.097
REMARK INTER + INTRA:         -12.375
REMARK INTER:                 -11.124
REMARK INTRA:                  -1.250
REMARK UNBOUND:                -0.889
REMARK  Name = 
REMARK  8 active torsions:
REMARK  status: ('A' for Active; 'I' for Inactive)
REMARK    1  A    between atoms: N_1  and  C_2
REMARK    2  A    between atoms: C_2  and  C_3
REMARK    3  A    between atoms: C_2  and  C_24
REMARK    4  A    between atoms: C_3  and  C_4
REMARK    5  A    between atoms: C_7  and  C_8
REMARK    6  A    between atoms: C_8  and  N_9
REMARK    7  A    between atoms: C_10  and  C_12
REMARK    8  A    between atoms: C_24  and  C_25
REMARK                            x       y       z     vdW  Elec       q    Type
REMARK                         _______ _______ _______ _____ _____    ______ ____
ROOT
ATOM      1  C   UNL     1      45.756   4.671  12.177  0.00  0.00    +0.000 A 
ATOM      2  C   UNL     1      45.420   5.812  11.438  0.00  0.00    +0.000 A 
ATOM      3  C   UNL     1      45.896   7.074  11.817  0.00  0.00    +0.000 A 
ATOM      4  C   UNL     1      46.737   7.214  12.930  0.00  0.00    +0.000 A 
ATOM      5  C   UNL     1      47.055   6.073  13.679  0.00  0.00    +0.000 A 
ATOM      6  C   UNL     1      46.572   4.818  13.306  0.00  0.00    +0.000 A 
ENDROOT
BRANCH   1   7
ATOM      7  C   UNL     1      45.231   3.310  11.787  0.00  0.00    +0.000 C 
BRANCH   7   8
ATOM      8  C   UNL     1      44.160   3.287  10.669  0.00  0.00    +0.000 C 
BRANCH   8   9
ATOM      9  N   UNL     1      42.824   3.257  11.310  0.00  0.00    +0.000 NA
ATOM     10  H   UNL     1      42.917   2.973  12.284  0.00  0.00    +0.000 HD
ATOM     11  H   UNL     1      42.233   2.565  10.855  0.00  0.00    +0.000 HD
ENDBRANCH   8   9
BRANCH   8  12
ATOM     12  C   UNL     1      44.327   2.085   9.711  0.00  0.00    +0.000 C 
BRANCH  12  13
ATOM     13  C   UNL     1      45.383   2.319   8.657  0.00  0.00    +0.000 A 
ATOM     14  C   UNL     1      45.581   3.593   8.125  0.00  0.00    +0.000 A 
ATOM     15  C   UNL     1      46.598   3.786   7.195  0.00  0.00    +0.000 A 
ATOM     16  C   UNL     1      47.386   2.708   6.818  0.00  0.00    +0.000 A 
ATOM     17  C   UNL     1      47.117   1.473   7.386  0.00  0.00    +0.000 A 
ATOM     18  N   UNL     1      46.136   1.253   8.288  0.00  0.00    +0.000 NA
ENDBRANCH  12  13
ENDBRANCH   8  12
ENDBRANCH   7   8
ENDBRANCH   1   7
BRANCH   4  19
ATOM     19  C   UNL     1      47.268   8.561  13.345  0.00  0.00    +0.000 C 
BRANCH  19  20
ATOM     20  N   UNL     1      47.296   8.695  14.779  0.00  0.00    +0.000 N 
ATOM     21  C   UNL     1      48.407   9.174  15.426  0.00  0.00    +0.000 C 
ATOM     22  O   UNL     1      49.407   9.546  14.816  0.00  0.00    +0.000 OA
ATOM     23  H   UNL     1      46.596   8.179  15.304  0.00  0.00    +0.000 HD
BRANCH  21  24
ATOM     24  C   UNL     1      48.320   9.281  16.887  0.00  0.00    +0.000 A 
ATOM     25  C   UNL     1      48.182  10.527  17.480  0.00  0.00    +0.000 A 
ATOM     26  S   UNL     1      48.048  10.471  19.178  0.00  0.00    +0.000 S 
ATOM     27  C   UNL     1      48.229   8.781  19.190  0.00  0.00    +0.000 A 
ATOM     28  N   UNL     1      48.233   8.083  20.358  0.00  0.00    +0.000 NA
ATOM     29  C   UNL     1      48.406   6.812  20.220  0.00  0.00    +0.000 A 
ATOM     30  N   UNL     1      48.563   6.169  19.020  0.00  0.00    +0.000 N 
ATOM     31  C   UNL     1      48.532   6.827  17.813  0.00  0.00    +0.000 A 
ATOM     32  O   UNL     1      48.628   6.214  16.752  0.00  0.00    +0.000 OA
ATOM     33  C   UNL     1      48.358   8.264  17.912  0.00  0.00    +0.000 A 
ATOM     34  H   UNL     1      48.684   5.169  18.979  0.00  0.00    +0.000 HD
ENDBRANCH  21  24
ENDBRANCH  19  20
ENDBRANCH   4  19
TORSDOF 8
ENDMDL
MODEL 4
REMARK VINA RESULT:    -7.914      2.189      2.528
REMARK INTER + INTRA:         -12.273
REMARK INTER:                 -11.275
REMARK INTRA:                  -0.998
REMARK UNBOUND:                -0.889
REMARK  Name = 
REMARK  8 active torsions:
REMARK  status: ('A' for Active; 'I' for Inactive)
REMARK    1  A    between atoms: N_1  and  C_2
REMARK    2  A    between atoms: C_2  and  C_3
REMARK    3  A    between atoms: C_2  and  C_24
REMARK    4  A    between atoms: C_3  and  C_4
REMARK    5  A    between atoms: C_7  and  C_8
REMARK    6  A    between atoms: C_8  and  N_9
REMARK    7  A    between atoms: C_10  and  C_12
REMARK    8  A    between atoms: C_24  and  C_25
REMARK                            x       y       z     vdW  Elec       q    Type
REMARK                         _______ _______ _______ _____ _____    ______ ____
ROOT
ATOM      1  C   UNL     1      45.915   5.141  12.255  0.00  0.00    +0.000 A 
ATOM      2  C   UNL     1      46.511   4.936  13.506  0.00  0.00    +0.000 A 
ATOM      3  C   UNL     1      47.483   5.823  13.987  0.00  0.00    +0.000 A 
ATOM      4  C   UNL     1      47.861   6.944  13.236  0.00  0.00    +0.000 A 
ATOM      5  C   UNL     1      47.279   7.134  11.975  0.00  0.00    +0.000 A 
ATOM      6  C   UNL     1      46.316   6.246  11.493  0.00  0.00    +0.000 A 
ENDROOT
BRANCH   1   7
ATOM      7  C   UNL     1      44.881   4.180  11.720  0.00  0.00    +0.000 C 
BRANCH   7   8
ATOM      8  C   UNL     1      44.731   4.128  10.180  0.00  0.00    +0.000 C 
BRANCH   8   9
ATOM      9  N   UNL     1      43.532   4.915   9.806  0.00  0.00    +0.000 NA
ATOM     10  H   UNL     1      42.705   4.510  10.245  0.00  0.00    +0.000 HD
ATOM     11  H   UNL     1      43.384   4.871   8.800  0.00  0.00    +0.000 HD
ENDBRANCH   8   9
BRANCH   8  12
ATOM     12  C   UNL     1      44.619   2.683   9.642  0.00  0.00    +0.000 C 
BRANCH  12  13
ATOM     13  C   UNL     1      45.582   2.402   8.513  0.00  0.00    +0.000 A 
ATOM     14  C   UNL     1      45.959   3.418   7.637  0.00  0.00    +0.000 A 
ATOM     15  C   UNL     1      46.890   3.140   6.640  0.00  0.00    +0.000 A 
ATOM     16  C   UNL     1      47.416   1.859   6.542  0.00  0.00    +0.000 A 
ATOM     17  C   UNL     1      46.981   0.904   7.446  0.00  0.00    +0.000 A 
ATOM     18  N   UNL     1      46.077   1.143   8.421  0.00  0.00    +0.000 NA
ENDBRANCH  12  13
ENDBRANCH   8  12
ENDBRANCH   7   8
ENDBRANCH   1   7
BRANCH   4  19
ATOM     19  C   UNL     1      48.896   7.914  13.742  0.00  0.00    +0.000 C 
BRANCH  19  20
ATOM     20  N   UNL     1      49.990   7.228  14.380  0.00  0.00    +0.000 N 
ATOM     21  C   UNL     1      50.209   7.344  15.730  0.00  0.00    +0.000 C 
ATOM     22  O   UNL     1      49.467   8.000  16.458  0.00  0.00    +0.000 OA
ATOM     23  H   UNL     1      50.736   6.890  13.781  0.00  0.00    +0.000 HD
BRANCH  21  24
ATOM     24  C   UNL     1      51.345   6.592  16.278  0.00  0.00    +0.000 A 
ATOM     25  C   UNL     1      52.638   7.052  16.078  0.00  0.00    +0.000 A 
ATOM     26  S   UNL     1      53.833   6.090  16.818  0.00  0.00    +0.000 S 
ATOM     27  C   UNL     1      52.671   4.986  17.385  0.00  0.00    +0.000 A 
ATOM     28  N   UNL     1      53.035   3.883  18.093  0.00  0.00    +0.000 NA
ATOM     29  C   UNL     1      52.053   3.120  18.436  0.00  0.00    +0.000 A 
ATOM     30  N   UNL     1      50.735   3.363  18.149  0.00  0.00    +0.000 N 
ATOM     31  C   UNL     1      50.316   4.482  17.467  0.00  0.00    +0.000 A 
ATOM     32  O   UNL     1      49.122   4.694  17.268  0.00  0.00    +0.000 OA
ATOM     33  C   UNL     1      51.384   5.365  17.040  0.00  0.00    +0.000 A 
ATOM     34  H   UNL     1      50.012   2.731  18.456  0.00  0.00    +0.000 HD
ENDBRANCH  21  24
ENDBRANCH  19  20
ENDBRANCH   4  19
TORSDOF 8
ENDMDL
MODEL 5
REMARK VINA RESULT:    -7.462      3.020      3.837
REMARK INTER + INTRA:         -11.622
REMARK INTER:                 -10.487
REMARK INTRA:                  -1.136
REMARK UNBOUND:                -0.889
REMARK  Name = 
REMARK  8 active torsions:
REMARK  status: ('A' for Active; 'I' for Inactive)
REMARK    1  A    between atoms: N_1  and  C_2
REMARK    2  A    between atoms: C_2  and  C_3
REMARK    3  A    between atoms: C_2  and  C_24
REMARK    4  A    between atoms: C_3  and  C_4
REMARK    5  A    between atoms: C_7  and  C_8
REMARK    6  A    between atoms: C_8  and  N_9
REMARK    7  A    between atoms: C_10  and  C_12
REMARK    8  A    between atoms: C_24  and  C_25
REMARK                            x       y       z     vdW  Elec       q    Type
REMARK                         _______ _______ _______ _____ _____    ______ ____
ROOT
ATOM      1  C   UNL     1      46.676   4.732  13.668  0.00  0.00    +0.000 A 
ATOM      2  C   UNL     1      47.400   5.920  13.508  0.00  0.00    +0.000 A 
ATOM      3  C   UNL     1      48.128   6.461  14.576  0.00  0.00    +0.000 A 
ATOM      4  C   UNL     1      48.163   5.811  15.817  0.00  0.00    +0.000 A 
ATOM      5  C   UNL     1      47.421   4.634  15.980  0.00  0.00    +0.000 A 
ATOM      6  C   UNL     1      46.689   4.100  14.918  0.00  0.00    +0.000 A 
ENDROOT
BRANCH   1   7
ATOM      7  C   UNL     1      45.873   4.152  12.529  0.00  0.00    +0.000 C 
BRANCH   7   8
ATOM      8  C   UNL     1      44.909   5.127  11.807  0.00  0.00    +0.000 C 
BRANCH   8   9
ATOM      9  N   UNL     1      44.037   5.753  12.829  0.00  0.00    +0.000 NA
ATOM     10  H   UNL     1      43.345   5.077  13.150  0.00  0.00    +0.000 HD
ATOM     11  H   UNL     1      43.523   6.531  12.421  0.00  0.00    +0.000 HD
ENDBRANCH   8   9
BRANCH   8  12
ATOM     12  C   UNL     1      44.058   4.428  10.724  0.00  0.00    +0.000 C 
BRANCH  12  13
ATOM     13  C   UNL     1      44.895   3.825   9.620  0.00  0.00    +0.000 A 
ATOM     14  C   UNL     1      44.984   2.442   9.476  0.00  0.00    +0.000 A 
ATOM     15  C   UNL     1      45.719   1.918   8.416  0.00  0.00    +0.000 A 
ATOM     16  C   UNL     1      46.345   2.786   7.533  0.00  0.00    +0.000 A 
ATOM     17  C   UNL     1      46.216   4.147   7.751  0.00  0.00    +0.000 A 
ATOM     18  N   UNL     1      45.513   4.685   8.772  0.00  0.00    +0.000 NA
ENDBRANCH  12  13
ENDBRANCH   8  12
ENDBRANCH   7   8
ENDBRANCH   1   7
BRANCH   4  19
ATOM     19  C   UNL     1      48.949   6.372  16.973  0.00  0.00    +0.000 C 
BRANCH  19  20
ATOM     20  N   UNL     1      49.926   5.427  17.450  0.00  0.00    +0.000 N 
ATOM     21  C   UNL     1      51.240   5.509  17.066  0.00  0.00    +0.000 C 
ATOM     22  O   UNL     1      51.651   6.407  16.334  0.00  0.00    +0.000 OA
ATOM     23  H   UNL     1      49.574   4.560  17.845  0.00  0.00    +0.000 HD
BRANCH  21  24
ATOM     24  C   UNL     1      52.151   4.502  17.624  0.00  0.00    +0.000 A 
ATOM     25  C   UNL     1      53.342   4.901  18.213  0.00  0.00    +0.000 A 
ATOM     26  S   UNL     1      54.259   3.615  18.851  0.00  0.00    +0.000 S 
ATOM     27  C   UNL     1      53.126   2.468  18.312  0.00  0.00    +0.000 A 
ATOM     28  N   UNL     1      53.322   1.137  18.515  0.00  0.00    +0.000 NA
ATOM     29  C   UNL     1      52.395   0.380  18.030  0.00  0.00    +0.000 A 
ATOM     30  N   UNL     1      51.283   0.832  17.369  0.00  0.00    +0.000 N 
ATOM     31  C   UNL     1      51.025   2.168  17.170  0.00  0.00    +0.000 A 
ATOM     32  O   UNL     1      49.994   2.540  16.615  0.00  0.00    +0.000 OA
ATOM     33  C   UNL     1      52.047   3.063  17.680  0.00  0.00    +0.000 A 
ATOM     34  H   UNL     1      50.589   0.187  17.022  0.00  0.00    +0.000 HD
ENDBRANCH  21  24
ENDBRANCH  19  20
ENDBRANCH   4  19
TORSDOF 8
ENDMDL
MODEL 6
REMARK VINA RESULT:    -7.337      5.137      9.743
REMARK INTER + INTRA:         -11.443
REMARK INTER:                 -10.380
REMARK INTRA:                  -1.063
REMARK UNBOUND:                -0.889
REMARK  Name = 
REMARK  8 active torsions:
REMARK  status: ('A' for Active; 'I' for Inactive)
REMARK    1  A    between atoms: N_1  and  C_2
REMARK    2  A    between atoms: C_2  and  C_3
REMARK    3  A    between atoms: C_2  and  C_24
REMARK    4  A    between atoms: C_3  and  C_4
REMARK    5  A    between atoms: C_7  and  C_8
REMARK    6  A    between atoms: C_8  and  N_9
REMARK    7  A    between atoms: C_10  and  C_12
REMARK    8  A    between atoms: C_24  and  C_25
REMARK                            x       y       z     vdW  Elec       q    Type
REMARK                         _______ _______ _______ _____ _____    ______ ____
ROOT
ATOM      1  C   UNL     1      51.516   3.103  17.591  0.00  0.00    +0.000 A 
ATOM      2  C   UNL     1      50.798   2.004  17.105  0.00  0.00    +0.000 A 
ATOM      3  C   UNL     1      49.411   2.082  16.922  0.00  0.00    +0.000 A 
ATOM      4  C   UNL     1      48.721   3.270  17.200  0.00  0.00    +0.000 A 
ATOM      5  C   UNL     1      49.439   4.361  17.706  0.00  0.00    +0.000 A 
ATOM      6  C   UNL     1      50.819   4.279  17.896  0.00  0.00    +0.000 A 
ENDROOT
BRANCH   1   7
ATOM      7  C   UNL     1      53.008   3.022  17.810  0.00  0.00    +0.000 C 
BRANCH   7   8
ATOM      8  C   UNL     1      53.528   1.730  18.488  0.00  0.00    +0.000 C 
BRANCH   8   9
ATOM      9  N   UNL     1      54.131   2.103  19.789  0.00  0.00    +0.000 NA
ATOM     10  H   UNL     1      54.652   1.313  20.166  0.00  0.00    +0.000 HD
ATOM     11  H   UNL     1      53.401   2.324  20.463  0.00  0.00    +0.000 HD
ENDBRANCH   8   9
BRANCH   8  12
ATOM     12  C   UNL     1      54.554   0.973  17.614  0.00  0.00    +0.000 C 
BRANCH  12  13
ATOM     13  C   UNL     1      54.536  -0.519  17.851  0.00  0.00    +0.000 A 
ATOM     14  C   UNL     1      55.015  -1.394  16.877  0.00  0.00    +0.000 A 
ATOM     15  C   UNL     1      55.035  -2.760  17.147  0.00  0.00    +0.000 A 
ATOM     16  C   UNL     1      54.575  -3.215  18.375  0.00  0.00    +0.000 A 
ATOM     17  C   UNL     1      54.106  -2.280  19.284  0.00  0.00    +0.000 A 
ATOM     18  N   UNL     1      54.070  -0.950  19.049  0.00  0.00    +0.000 NA
ENDBRANCH  12  13
ENDBRANCH   8  12
ENDBRANCH   7   8
ENDBRANCH   1   7
BRANCH   4  19
ATOM     19  C   UNL     1      47.232   3.376  16.998  0.00  0.00    +0.000 C 
BRANCH  19  20
ATOM     20  N   UNL     1      46.906   4.385  16.024  0.00  0.00    +0.000 N 
ATOM     21  C   UNL     1      46.991   4.127  14.679  0.00  0.00    +0.000 C 
ATOM     22  O   UNL     1      47.308   3.021  14.245  0.00  0.00    +0.000 OA
ATOM     23  H   UNL     1      46.880   5.347  16.347  0.00  0.00    +0.000 HD
BRANCH  21  24
ATOM     24  C   UNL     1      46.622   5.223  13.775  0.00  0.00    +0.000 A 
ATOM     25  C   UNL     1      47.491   6.289  13.593  0.00  0.00    +0.000 A 
ATOM     26  S   UNL     1      46.933   7.450  12.478  0.00  0.00    +0.000 S 
ATOM     27  C   UNL     1      45.479   6.601  12.239  0.00  0.00    +0.000 A 
ATOM     28  N   UNL     1      44.518   7.075  11.401  0.00  0.00    +0.000 NA
ATOM     29  C   UNL     1      43.457   6.343  11.337  0.00  0.00    +0.000 A 
ATOM     30  N   UNL     1      43.272   5.172  12.024  0.00  0.00    +0.000 N 
ATOM     31  C   UNL     1      44.228   4.635  12.854  0.00  0.00    +0.000 A 
ATOM     32  O   UNL     1      44.048   3.559  13.418  0.00  0.00    +0.000 OA
ATOM     33  C   UNL     1      45.435   5.430  12.978  0.00  0.00    +0.000 A 
ATOM     34  H   UNL     1      42.421   4.639  11.921  0.00  0.00    +0.000 HD
ENDBRANCH  21  24
ENDBRANCH  19  20
ENDBRANCH   4  19
TORSDOF 8
ENDMDL
MODEL 7
REMARK VINA RESULT:    -7.227      3.321      9.187
REMARK INTER + INTRA:         -11.285
REMARK INTER:                  -9.623
REMARK INTRA:                  -1.662
REMARK UNBOUND:                -0.889
REMARK  Name = 
REMARK  8 active torsions:
REMARK  status: ('A' for Active; 'I' for Inactive)
REMARK    1  A    between atoms: N_1  and  C_2
REMARK    2  A    between atoms: C_2  and  C_3
REMARK    3  A    between atoms: C_2  and  C_24
REMARK    4  A    between atoms: C_3  and  C_4
REMARK    5  A    between atoms: C_7  and  C_8
REMARK    6  A    between atoms: C_8  and  N_9
REMARK    7  A    between atoms: C_10  and  C_12
REMARK    8  A    between atoms: C_24  and  C_25
REMARK                            x       y       z     vdW  Elec       q    Type
REMARK                         _______ _______ _______ _____ _____    ______ ____
ROOT
ATOM      1  C   UNL     1      48.853   7.829  16.397  0.00  0.00    +0.000 A 
ATOM      2  C   UNL     1      48.386   8.996  15.779  0.00  0.00    +0.000 A 
ATOM      3  C   UNL     1      47.973   8.979  14.440  0.00  0.00    +0.000 A 
ATOM      4  C   UNL     1      47.999   7.789  13.701  0.00  0.00    +0.000 A 
ATOM      5  C   UNL     1      48.486   6.628  14.316  0.00  0.00    +0.000 A 
ATOM      6  C   UNL     1      48.905   6.648  15.647  0.00  0.00    +0.000 A 
ENDROOT
BRANCH   1   7
ATOM      7  C   UNL     1      49.318   7.843  17.833  0.00  0.00    +0.000 C 
BRANCH   7   8
ATOM      8  C   UNL     1      48.264   7.444  18.895  0.00  0.00    +0.000 C 
BRANCH   8   9
ATOM      9  N   UNL     1      48.198   8.525  19.907  0.00  0.00    +0.000 NA
ATOM     10  H   UNL     1      48.830   8.314  20.677  0.00  0.00    +0.000 HD
ATOM     11  H   UNL     1      47.260   8.579  20.300  0.00  0.00    +0.000 HD
ENDBRANCH   8   9
BRANCH   8  12
ATOM     12  C   UNL     1      48.582   6.091  19.569  0.00  0.00    +0.000 C 
BRANCH  12  13
ATOM     13  C   UNL     1      48.492   4.924  18.613  0.00  0.00    +0.000 A 
ATOM     14  C   UNL     1      49.615   4.143  18.346  0.00  0.00    +0.000 A 
ATOM     15  C   UNL     1      49.487   3.043  17.503  0.00  0.00    +0.000 A 
ATOM     16  C   UNL     1      48.248   2.755  16.948  0.00  0.00    +0.000 A 
ATOM     17  C   UNL     1      47.185   3.587  17.256  0.00  0.00    +0.000 A 
ATOM     18  N   UNL     1      47.279   4.663  18.067  0.00  0.00    +0.000 NA
ENDBRANCH  12  13
ENDBRANCH   8  12
ENDBRANCH   7   8
ENDBRANCH   1   7
BRANCH   4  19
ATOM     19  C   UNL     1      47.548   7.749  12.265  0.00  0.00    +0.000 C 
BRANCH  19  20
ATOM     20  N   UNL     1      46.873   6.514  11.961  0.00  0.00    +0.000 N 
ATOM     21  C   UNL     1      45.506   6.414  12.040  0.00  0.00    +0.000 C 
ATOM     22  O   UNL     1      44.797   7.375  12.333  0.00  0.00    +0.000 OA
ATOM     23  H   UNL     1      47.436   5.669  11.957  0.00  0.00    +0.000 HD
BRANCH  21  24
ATOM     24  C   UNL     1      44.922   5.112  11.696  0.00  0.00    +0.000 A 
ATOM     25  C   UNL     1      44.224   4.393  12.655  0.00  0.00    +0.000 A 
ATOM     26  S   UNL     1      43.572   2.929  12.080  0.00  0.00    +0.000 S 
ATOM     27  C   UNL     1      44.248   3.171  10.539  0.00  0.00    +0.000 A 
ATOM     28  N   UNL     1      44.087   2.252   9.549  0.00  0.00    +0.000 NA
ATOM     29  C   UNL     1      44.676   2.552   8.440  0.00  0.00    +0.000 A 
ATOM     30  N   UNL     1      45.402   3.693   8.225  0.00  0.00    +0.000 N 
ATOM     31  C   UNL     1      45.564   4.666   9.183  0.00  0.00    +0.000 A 
ATOM     32  O   UNL     1      46.181   5.700   8.941  0.00  0.00    +0.000 OA
ATOM     33  C   UNL     1      44.936   4.369  10.457  0.00  0.00    +0.000 A 
ATOM     34  H   UNL     1      45.830   3.874   7.329  0.00  0.00    +0.000 HD
ENDBRANCH  21  24
ENDBRANCH  19  20
ENDBRANCH   4  19
TORSDOF 8
ENDMDL
MODEL 8
REMARK VINA RESULT:    -7.113      3.658      8.693
REMARK INTER + INTRA:         -11.120
REMARK INTER:                  -9.536
REMARK INTRA:                  -1.585
REMARK UNBOUND:                -0.889
REMARK  Name = 
REMARK  8 active torsions:
REMARK  status: ('A' for Active; 'I' for Inactive)
REMARK    1  A    between atoms: N_1  and  C_2
REMARK    2  A    between atoms: C_2  and  C_3
REMARK    3  A    between atoms: C_2  and  C_24
REMARK    4  A    between atoms: C_3  and  C_4
REMARK    5  A    between atoms: C_7  and  C_8
REMARK    6  A    between atoms: C_8  and  N_9
REMARK    7  A    between atoms: C_10  and  C_12
REMARK    8  A    between atoms: C_24  and  C_25
REMARK                            x       y       z     vdW  Elec       q    Type
REMARK                         _______ _______ _______ _____ _____    ______ ____
ROOT
ATOM      1  C   UNL     1      48.775   7.851  16.316  0.00  0.00    +0.000 A 
ATOM      2  C   UNL     1      48.598   9.109  15.727  0.00  0.00    +0.000 A 
ATOM      3  C   UNL     1      48.440   9.233  14.341  0.00  0.00    +0.000 A 
ATOM      4  C   UNL     1      48.435   8.097  13.520  0.00  0.00    +0.000 A 
ATOM      5  C   UNL     1      48.634   6.842  14.109  0.00  0.00    +0.000 A 
ATOM      6  C   UNL     1      48.799   6.720  15.489  0.00  0.00    +0.000 A 
ENDROOT
BRANCH   1   7
ATOM      7  C   UNL     1      48.965   7.710  17.807  0.00  0.00    +0.000 C 
BRANCH   7   8
ATOM      8  C   UNL     1      47.679   7.484  18.640  0.00  0.00    +0.000 C 
BRANCH   8   9
ATOM      9  N   UNL     1      47.521   8.632  19.564  0.00  0.00    +0.000 NA
ATOM     10  H   UNL     1      48.225   8.580  20.299  0.00  0.00    +0.000 HD
ATOM     11  H   UNL     1      46.612   8.591  20.021  0.00  0.00    +0.000 HD
ENDBRANCH   8   9
BRANCH   8  12
ATOM     12  C   UNL     1      47.707   6.155  19.428  0.00  0.00    +0.000 C 
BRANCH  12  13
ATOM     13  C   UNL     1      47.966   4.956  18.546  0.00  0.00    +0.000 A 
ATOM     14  C   UNL     1      49.214   4.336  18.546  0.00  0.00    +0.000 A 
ATOM     15  C   UNL     1      49.405   3.201  17.763  0.00  0.00    +0.000 A 
ATOM     16  C   UNL     1      48.350   2.718  17.002  0.00  0.00    +0.000 A 
ATOM     17  C   UNL     1      47.144   3.398  17.050  0.00  0.00    +0.000 A 
ATOM     18  N   UNL     1      46.930   4.504  17.797  0.00  0.00    +0.000 NA
ENDBRANCH  12  13
ENDBRANCH   8  12
ENDBRANCH   7   8
ENDBRANCH   1   7
BRANCH   4  19
ATOM     19  C   UNL     1      48.256   8.210  12.029  0.00  0.00    +0.000 C 
BRANCH  19  20
ATOM     20  N   UNL     1      47.573   7.061  11.494  0.00  0.00    +0.000 N 
ATOM     21  C   UNL     1      46.203   7.023  11.413  0.00  0.00    +0.000 C 
ATOM     22  O   UNL     1      45.503   7.975  11.753  0.00  0.00    +0.000 OA
ATOM     23  H   UNL     1      48.100   6.195  11.438  0.00  0.00    +0.000 HD
BRANCH  21  24
ATOM     24  C   UNL     1      45.613   5.808  10.840  0.00  0.00    +0.000 A 
ATOM     25  C   UNL     1      45.755   5.545   9.485  0.00  0.00    +0.000 A 
ATOM     26  S   UNL     1      45.052   4.073   8.992  0.00  0.00    +0.000 S 
ATOM     27  C   UNL     1      44.480   3.757  10.561  0.00  0.00    +0.000 A 
ATOM     28  N   UNL     1      43.755   2.639  10.833  0.00  0.00    +0.000 NA
ATOM     29  C   UNL     1      43.362   2.542  12.059  0.00  0.00    +0.000 A 
ATOM     30  N   UNL     1      43.639   3.454  13.043  0.00  0.00    +0.000 N 
ATOM     31  C   UNL     1      44.396   4.580  12.824  0.00  0.00    +0.000 A 
ATOM     32  O   UNL     1      44.666   5.353  13.741  0.00  0.00    +0.000 OA
ATOM     33  C   UNL     1      44.848   4.748  11.456  0.00  0.00    +0.000 A 
ATOM     34  H   UNL     1      43.311   3.313  13.987  0.00  0.00    +0.000 HD
ENDBRANCH  21  24
ENDBRANCH  19  20
ENDBRANCH   4  19
TORSDOF 8
ENDMDL
MODEL 9
REMARK VINA RESULT:    -6.969      3.977     10.114
REMARK INTER + INTRA:         -10.914
REMARK INTER:                  -9.468
REMARK INTRA:                  -1.446
REMARK UNBOUND:                -0.889
REMARK  Name = 
REMARK  8 active torsions:
REMARK  status: ('A' for Active; 'I' for Inactive)
REMARK    1  A    between atoms: N_1  and  C_2
REMARK    2  A    between atoms: C_2  and  C_3
REMARK    3  A    between atoms: C_2  and  C_24
REMARK    4  A    between atoms: C_3  and  C_4
REMARK    5  A    between atoms: C_7  and  C_8
REMARK    6  A    between atoms: C_8  and  N_9
REMARK    7  A    between atoms: C_10  and  C_12
REMARK    8  A    between atoms: C_24  and  C_25
REMARK                            x       y       z     vdW  Elec       q    Type
REMARK                         _______ _______ _______ _____ _____    ______ ____
ROOT
ATOM      1  C   UNL     1      51.337   4.524  17.818  0.00  0.00    +0.000 A 
ATOM      2  C   UNL     1      50.407   5.521  17.499  0.00  0.00    +0.000 A 
ATOM      3  C   UNL     1      49.110   5.183  17.091  0.00  0.00    +0.000 A 
ATOM      4  C   UNL     1      48.713   3.841  17.015  0.00  0.00    +0.000 A 
ATOM      5  C   UNL     1      49.653   2.845  17.314  0.00  0.00    +0.000 A 
ATOM      6  C   UNL     1      50.947   3.183  17.714  0.00  0.00    +0.000 A 
ENDROOT
BRANCH   1   7
ATOM      7  C   UNL     1      52.742   4.879  18.241  0.00  0.00    +0.000 C 
BRANCH   7   8
ATOM      8  C   UNL     1      52.908   6.218  19.002  0.00  0.00    +0.000 C 
BRANCH   8   9
ATOM      9  N   UNL     1      54.288   6.708  18.776  0.00  0.00    +0.000 NA
ATOM     10  H   UNL     1      54.567   6.520  17.814  0.00  0.00    +0.000 HD
ATOM     11  H   UNL     1      54.941   6.207  19.375  0.00  0.00    +0.000 HD
ENDBRANCH   8   9
BRANCH   8  12
ATOM     12  C   UNL     1      52.624   6.081  20.515  0.00  0.00    +0.000 C 
BRANCH  12  13
ATOM     13  C   UNL     1      51.149   6.121  20.839  0.00  0.00    +0.000 A 
ATOM     14  C   UNL     1      50.489   4.972  21.271  0.00  0.00    +0.000 A 
ATOM     15  C   UNL     1      49.143   5.054  21.614  0.00  0.00    +0.000 A 
ATOM     16  C   UNL     1      48.492   6.275  21.515  0.00  0.00    +0.000 A 
ATOM     17  C   UNL     1      49.217   7.368  21.068  0.00  0.00    +0.000 A 
ATOM     18  N   UNL     1      50.522   7.318  20.724  0.00  0.00    +0.000 NA
ENDBRANCH  12  13
ENDBRANCH   8  12
ENDBRANCH   7   8
ENDBRANCH   1   7
BRANCH   4  19
ATOM     19  C   UNL     1      47.320   3.459  16.589  0.00  0.00    +0.000 C 
BRANCH  19  20
ATOM     20  N   UNL     1      46.769   4.423  15.672  0.00  0.00    +0.000 N 
ATOM     21  C   UNL     1      46.766   4.195  14.319  0.00  0.00    +0.000 C 
ATOM     22  O   UNL     1      47.193   3.149  13.833  0.00  0.00    +0.000 OA
ATOM     23  H   UNL     1      46.640   5.369  16.019  0.00  0.00    +0.000 HD
BRANCH  21  24
ATOM     24  C   UNL     1      46.167   5.239  13.479  0.00  0.00    +0.000 A 
ATOM     25  C   UNL     1      46.860   6.417  13.244  0.00  0.00    +0.000 A 
ATOM     26  S   UNL     1      46.047   7.501  12.212  0.00  0.00    +0.000 S 
ATOM     27  C   UNL     1      44.709   6.460  12.085  0.00  0.00    +0.000 A 
ATOM     28  N   UNL     1      43.618   6.805  11.348  0.00  0.00    +0.000 NA
ATOM     29  C   UNL     1      42.666   5.933  11.363  0.00  0.00    +0.000 A 
ATOM     30  N   UNL     1      42.709   4.740  12.036  0.00  0.00    +0.000 N 
ATOM     31  C   UNL     1      43.802   4.333  12.764  0.00  0.00    +0.000 A 
ATOM     32  O   UNL     1      43.826   3.236  13.316  0.00  0.00    +0.000 OA
ATOM     33  C   UNL     1      44.895   5.287  12.797  0.00  0.00    +0.000 A 
ATOM     34  H   UNL     1      41.934   4.096  11.998  0.00  0.00    +0.000 HD
ENDBRANCH  21  24
ENDBRANCH  19  20
ENDBRANCH   4  19
TORSDOF 8
ENDMDL
