MODEL 1
REMARK VINA RESULT:    -8.568      0.000      0.000
REMARK INTER + INTRA:         -14.108
REMARK INTER:                 -12.826
REMARK INTRA:                  -1.282
REMARK UNBOUND:                -1.282
REMARK  Name = 
REMARK  10 active torsions:
REMARK  status: ('A' for Active; 'I' for Inactive)
REMARK    1  A    between atoms: C_1  and  C_2
REMARK    2  A    between atoms: C_2  and  C_3
REMARK    3  A    between atoms: C_3  and  O_4
REMARK    4  A    between atoms: C_3  and  C_5
REMARK    5  A    between atoms: C_3  and  C_16
REMARK    6  A    between atoms: C_5  and  O_6
REMARK    7  A    between atoms: O_6  and  C_7
REMARK    8  A    between atoms: C_10  and  C_11
REMARK    9  A    between atoms: C_20  and  O_21
REMARK   10  A    between atoms: O_21  and  C_22
REMARK                            x       y       z     vdW  Elec       q    Type
REMARK                         _______ _______ _______ _____ _____    ______ ____
ROOT
ATOM      1  C   UNL     1      44.093   4.187  12.098  0.00  0.00    +0.000 C 
ENDROOT
BRANCH   1   2
ATOM      2  C   UNL     1      45.426   4.899  12.364  0.00  0.00    +0.000 A 
ATOM      3  C   UNL     1      45.891   5.907  11.507  0.00  0.00    +0.000 A 
ATOM      4  C   UNL     1      47.048   6.631  11.813  0.00  0.00    +0.000 A 
ATOM      5  C   UNL     1      47.778   6.355  12.972  0.00  0.00    +0.000 A 
ATOM      6  C   UNL     1      47.361   5.333  13.813  0.00  0.00    +0.000 A 
ATOM      7  C   UNL     1      46.202   4.614  13.506  0.00  0.00    +0.000 A 
BRANCH   6   8
ATOM      8  O   UNL     1      47.962   4.981  14.996  0.00  0.00    +0.000 OA
BRANCH   8   9
ATOM      9  C   UNL     1      47.249   4.144  15.930  0.00  0.00    +0.000 C 
ATOM     10  C   UNL     1      47.265   4.579  17.412  0.00  0.00    +0.000 C 
ATOM     11  C   UNL     1      47.672   3.155  17.813  0.00  0.00    +0.000 C 
ATOM     12  C   UNL     1      48.023   2.869  16.349  0.00  0.00    +0.000 C 
ENDBRANCH   8   9
ENDBRANCH   6   8
ENDBRANCH   1   2
BRANCH   1  14
ATOM     13  C   UNL     1      42.107   5.870  12.012  0.00  0.00    +0.000 C 
ATOM     14  C   UNL     1      42.899   4.853  12.822  0.00  0.00    +0.000 C 
ENDBRANCH   1  14
BRANCH   1  15
ATOM     15  O   UNL     1      44.184   2.851  12.645  0.00  0.00    +0.000 OA
ATOM     16  H   UNL     1      43.412   2.747  13.231  0.00  0.00    +0.000 HD
ENDBRANCH   1  15
BRANCH   1  17
ATOM     17  C   UNL     1      43.863   4.024  10.577  0.00  0.00    +0.000 C 
BRANCH  17  18
ATOM     18  O   UNL     1      43.974   2.652  10.165  0.00  0.00    +0.000 OA
BRANCH  18  19
ATOM     19  C   UNL     1      44.852   2.540   9.100  0.00  0.00    +0.000 A 
ATOM     20  C   UNL     1      45.043   3.655   8.309  0.00  0.00    +0.000 A 
ATOM     21  C   UNL     1      45.962   3.563   7.262  0.00  0.00    +0.000 A 
ATOM     22  C   UNL     1      46.660   2.369   7.040  0.00  0.00    +0.000 A 
ATOM     23  C   UNL     1      46.381   1.307   7.881  0.00  0.00    +0.000 A 
ATOM     24  N   UNL     1      45.494   1.368   8.902  0.00  0.00    +0.000 NA
BRANCH  22  25
ATOM     25  C   UNL     1      47.661   2.290   5.953  0.00  0.00    +0.000 C 
ATOM     26  N   UNL     1      47.654   3.230   4.963  0.00  0.00    +0.000 N 
ATOM     27  O   UNL     1      48.488   1.384   5.926  0.00  0.00    +0.000 OA
ATOM     28  H   UNL     1      47.022   4.014   4.884  0.00  0.00    +0.000 HD
ATOM     29  H   UNL     1      48.346   3.122   4.235  0.00  0.00    +0.000 HD
ENDBRANCH  22  25
ENDBRANCH  18  19
ENDBRANCH  17  18
ENDBRANCH   1  17
TORSDOF 9
ENDMDL
MODEL 2
REMARK VINA RESULT:    -7.559      1.775      3.393
REMARK INTER + INTRA:         -12.597
REMARK INTER:                 -11.463
REMARK INTRA:                  -1.135
REMARK UNBOUND:                -1.282
REMARK  Name = 
REMARK  10 active torsions:
REMARK  status: ('A' for Active; 'I' for Inactive)
REMARK    1  A    between atoms: C_1  and  C_2
REMARK    2  A    between atoms: C_2  and  C_3
REMARK    3  A    between atoms: C_3  and  O_4
REMARK    4  A    between atoms: C_3  and  C_5
REMARK    5  A    between atoms: C_3  and  C_16
REMARK    6  A    between atoms: C_5  and  O_6
REMARK    7  A    between atoms: O_6  and  C_7
REMARK    8  A    between atoms: C_10  and  C_11
REMARK    9  A    between atoms: C_20  and  O_21
REMARK   10  A    between atoms: O_21  and  C_22
REMARK                            x       y       z     vdW  Elec       q    Type
REMARK                         _______ _______ _______ _____ _____    ______ ____
ROOT
ATOM      1  C   UNL     1      44.262   4.449  12.152  0.00  0.00    +0.000 C 
ENDROOT
BRANCH   1   2
ATOM      2  C   UNL     1      45.519   5.116  12.727  0.00  0.00    +0.000 A 
ATOM      3  C   UNL     1      46.115   4.641  13.904  0.00  0.00    +0.000 A 
ATOM      4  C   UNL     1      47.322   5.178  14.363  0.00  0.00    +0.000 A 
ATOM      5  C   UNL     1      47.954   6.213  13.669  0.00  0.00    +0.000 A 
ATOM      6  C   UNL     1      47.359   6.729  12.525  0.00  0.00    +0.000 A 
ATOM      7  C   UNL     1      46.155   6.187  12.067  0.00  0.00    +0.000 A 
BRANCH   6   8
ATOM      8  O   UNL     1      47.887   7.717  11.731  0.00  0.00    +0.000 OA
BRANCH   8   9
ATOM      9  C   UNL     1      49.137   8.333  12.106  0.00  0.00    +0.000 C 
ATOM     10  C   UNL     1      49.463   9.698  11.461  0.00  0.00    +0.000 C 
ATOM     11  C   UNL     1      50.856   9.173  11.085  0.00  0.00    +0.000 C 
ATOM     12  C   UNL     1      50.370   7.748  11.373  0.00  0.00    +0.000 C 
ENDBRANCH   8   9
ENDBRANCH   6   8
ENDBRANCH   1   2
BRANCH   1  14
ATOM     13  C   UNL     1      42.085   5.833  11.794  0.00  0.00    +0.000 C 
ATOM     14  C   UNL     1      43.437   5.395  11.249  0.00  0.00    +0.000 C 
ENDBRANCH   1  14
BRANCH   1  15
ATOM     15  O   UNL     1      43.393   4.107  13.256  0.00  0.00    +0.000 OA
ATOM     16  H   UNL     1      42.999   4.946  13.558  0.00  0.00    +0.000 HD
ENDBRANCH   1  15
BRANCH   1  17
ATOM     17  C   UNL     1      44.630   3.117  11.455  0.00  0.00    +0.000 C 
BRANCH  17  18
ATOM     18  O   UNL     1      43.911   2.944  10.222  0.00  0.00    +0.000 OA
BRANCH  18  19
ATOM     19  C   UNL     1      44.796   2.766   9.172  0.00  0.00    +0.000 A 
ATOM     20  C   UNL     1      45.068   3.858   8.372  0.00  0.00    +0.000 A 
ATOM     21  C   UNL     1      45.993   3.698   7.340  0.00  0.00    +0.000 A 
ATOM     22  C   UNL     1      46.620   2.461   7.141  0.00  0.00    +0.000 A 
ATOM     23  C   UNL     1      46.263   1.428   7.988  0.00  0.00    +0.000 A 
ATOM     24  N   UNL     1      45.367   1.555   8.995  0.00  0.00    +0.000 NA
BRANCH  22  25
ATOM     25  C   UNL     1      47.629   2.308   6.069  0.00  0.00    +0.000 C 
ATOM     26  N   UNL     1      47.650   3.198   5.034  0.00  0.00    +0.000 N 
ATOM     27  O   UNL     1      48.437   1.386   6.097  0.00  0.00    +0.000 OA
ATOM     28  H   UNL     1      47.035   3.988   4.910  0.00  0.00    +0.000 HD
ATOM     29  H   UNL     1      48.346   3.040   4.319  0.00  0.00    +0.000 HD
ENDBRANCH  22  25
ENDBRANCH  18  19
ENDBRANCH  17  18
ENDBRANCH   1  17
TORSDOF 9
ENDMDL
MODEL 3
REMARK VINA RESULT:    -6.927      3.295      8.170
REMARK INTER + INTRA:         -11.652
REMARK INTER:                 -10.662
REMARK INTRA:                  -0.990
REMARK UNBOUND:                -1.282
REMARK  Name = 
REMARK  10 active torsions:
REMARK  status: ('A' for Active; 'I' for Inactive)
REMARK    1  A    between atoms: C_1  and  C_2
REMARK    2  A    between atoms: C_2  and  C_3
REMARK    3  A    between atoms: C_3  and  O_4
REMARK    4  A    between atoms: C_3  and  C_5
REMARK    5  A    between atoms: C_3  and  C_16
REMARK    6  A    between atoms: C_5  and  O_6
REMARK    7  A    between atoms: O_6  and  C_7
REMARK    8  A    between atoms: C_10  and  C_11
REMARK    9  A    between atoms: C_20  and  O_21
REMARK   10  A    between atoms: O_21  and  C_22
REMARK                            x       y       z     vdW  Elec       q    Type
REMARK                         _______ _______ _______ _____ _____    ______ ____
ROOT
ATOM      1  C   UNL     1      46.449   6.656  12.170  0.00  0.00    +0.000 C 
ENDROOT
BRANCH   1   2
ATOM      2  C   UNL     1      45.629   5.768  11.224  0.00  0.00    +0.000 A 
ATOM      3  C   UNL     1      44.339   5.340  11.571  0.00  0.00    +0.000 A 
ATOM      4  C   UNL     1      43.552   4.626  10.661  0.00  0.00    +0.000 A 
ATOM      5  C   UNL     1      44.039   4.308   9.391  0.00  0.00    +0.000 A 
ATOM      6  C   UNL     1      45.329   4.684   9.042  0.00  0.00    +0.000 A 
ATOM      7  C   UNL     1      46.111   5.400   9.952  0.00  0.00    +0.000 A 
BRANCH   6   8
ATOM      8  O   UNL     1      45.917   4.467   7.820  0.00  0.00    +0.000 OA
BRANCH   8   9
ATOM      9  C   UNL     1      45.895   3.142   7.250  0.00  0.00    +0.000 C 
ATOM     10  C   UNL     1      46.240   1.969   8.194  0.00  0.00    +0.000 C 
ATOM     11  C   UNL     1      47.233   1.438   7.152  0.00  0.00    +0.000 C 
ATOM     12  C   UNL     1      47.162   2.789   6.431  0.00  0.00    +0.000 C 
ENDBRANCH   8   9
ENDBRANCH   6   8
ENDBRANCH   1   2
BRANCH   1  14
ATOM     13  C   UNL     1      45.498   9.057  12.506  0.00  0.00    +0.000 C 
ATOM     14  C   UNL     1      45.572   7.620  13.003  0.00  0.00    +0.000 C 
ENDBRANCH   1  14
BRANCH   1  15
ATOM     15  O   UNL     1      47.300   7.501  11.362  0.00  0.00    +0.000 OA
ATOM     16  H   UNL     1      46.997   7.387  10.443  0.00  0.00    +0.000 HD
ENDBRANCH   1  15
BRANCH   1  17
ATOM     17  C   UNL     1      47.390   5.790  13.041  0.00  0.00    +0.000 C 
BRANCH  17  18
ATOM     18  O   UNL     1      46.661   4.818  13.808  0.00  0.00    +0.000 OA
BRANCH  18  19
ATOM     19  C   UNL     1      47.218   4.686  15.070  0.00  0.00    +0.000 A 
ATOM     20  C   UNL     1      48.081   5.677  15.494  0.00  0.00    +0.000 A 
ATOM     21  C   UNL     1      48.611   5.575  16.781  0.00  0.00    +0.000 A 
ATOM     22  C   UNL     1      48.260   4.495  17.603  0.00  0.00    +0.000 A 
ATOM     23  C   UNL     1      47.401   3.550  17.074  0.00  0.00    +0.000 A 
ATOM     24  N   UNL     1      46.875   3.624  15.829  0.00  0.00    +0.000 NA
BRANCH  22  25
ATOM     25  C   UNL     1      48.795   4.413  18.981  0.00  0.00    +0.000 C 
ATOM     26  N   UNL     1      48.453   3.354  19.772  0.00  0.00    +0.000 N 
ATOM     27  O   UNL     1      49.530   5.290  19.421  0.00  0.00    +0.000 OA
ATOM     28  H   UNL     1      47.857   2.580  19.515  0.00  0.00    +0.000 HD
ATOM     29  H   UNL     1      48.829   3.353  20.709  0.00  0.00    +0.000 HD
ENDBRANCH  22  25
ENDBRANCH  18  19
ENDBRANCH  17  18
ENDBRANCH   1  17
TORSDOF 9
ENDMDL
MODEL 4
REMARK VINA RESULT:    -6.882      2.031      3.743
REMARK INTER + INTRA:         -11.584
REMARK INTER:                 -11.443
REMARK INTRA:                  -0.140
REMARK UNBOUND:                -1.282
REMARK  Name = 
REMARK  10 active torsions:
REMARK  status: ('A' for Active; 'I' for Inactive)
REMARK    1  A    between atoms: C_1  and  C_2
REMARK    2  A    between atoms: C_2  and  C_3
REMARK    3  A    between atoms: C_3  and  O_4
REMARK    4  A    between atoms: C_3  and  C_5
REMARK    5  A    between atoms: C_3  and  C_16
REMARK    6  A    between atoms: C_5  and  O_6
REMARK    7  A    between atoms: O_6  and  C_7
REMARK    8  A    between atoms: C_10  and  C_11
REMARK    9  A    between atoms: C_20  and  O_21
REMARK   10  A    between atoms: O_21  and  C_22
REMARK                            x       y       z     vdW  Elec       q    Type
REMARK                         _______ _______ _______ _____ _____    ______ ____
ROOT
ATOM      1  C   UNL     1      43.659   4.337  12.598  0.00  0.00    +0.000 C 
ENDROOT
BRANCH   1   2
ATOM      2  C   UNL     1      45.036   4.971  12.837  0.00  0.00    +0.000 A 
ATOM      3  C   UNL     1      46.040   4.279  13.531  0.00  0.00    +0.000 A 
ATOM      4  C   UNL     1      47.327   4.814  13.650  0.00  0.00    +0.000 A 
ATOM      5  C   UNL     1      47.639   6.057  13.094  0.00  0.00    +0.000 A 
ATOM      6  C   UNL     1      46.649   6.779  12.441  0.00  0.00    +0.000 A 
ATOM      7  C   UNL     1      45.365   6.241  12.321  0.00  0.00    +0.000 A 
BRANCH   6   8
ATOM      8  O   UNL     1      46.827   7.991  11.822  0.00  0.00    +0.000 OA
BRANCH   8   9
ATOM      9  C   UNL     1      46.346   9.191  12.464  0.00  0.00    +0.000 C 
ATOM     10  C   UNL     1      45.130   9.890  11.819  0.00  0.00    +0.000 C 
ATOM     11  C   UNL     1      45.883  11.226  11.875  0.00  0.00    +0.000 C 
ATOM     12  C   UNL     1      47.181  10.455  12.140  0.00  0.00    +0.000 C 
ENDBRANCH   8   9
ENDBRANCH   6   8
ENDBRANCH   1   2
BRANCH   1  14
ATOM     13  C   UNL     1      42.494   6.380  11.480  0.00  0.00    +0.000 C 
ATOM     14  C   UNL     1      42.508   5.370  12.618  0.00  0.00    +0.000 C 
ENDBRANCH   1  14
BRANCH   1  15
ATOM     15  O   UNL     1      43.390   3.430  13.691  0.00  0.00    +0.000 OA
ATOM     16  H   UNL     1      42.954   3.963  14.382  0.00  0.00    +0.000 HD
ENDBRANCH   1  15
BRANCH   1  17
ATOM     17  C   UNL     1      43.678   3.478  11.310  0.00  0.00    +0.000 C 
BRANCH  17  18
ATOM     18  O   UNL     1      43.846   4.286  10.134  0.00  0.00    +0.000 OA
BRANCH  18  19
ATOM     19  C   UNL     1      44.799   3.726   9.299  0.00  0.00    +0.000 A 
ATOM     20  C   UNL     1      44.959   2.355   9.341  0.00  0.00    +0.000 A 
ATOM     21  C   UNL     1      45.885   1.780   8.470  0.00  0.00    +0.000 A 
ATOM     22  C   UNL     1      46.615   2.584   7.585  0.00  0.00    +0.000 A 
ATOM     23  C   UNL     1      46.390   3.947   7.637  0.00  0.00    +0.000 A 
ATOM     24  N   UNL     1      45.500   4.532   8.473  0.00  0.00    +0.000 NA
BRANCH  22  25
ATOM     25  C   UNL     1      47.567   1.964   6.637  0.00  0.00    +0.000 C 
ATOM     26  N   UNL     1      48.648   2.678   6.205  0.00  0.00    +0.000 N 
ATOM     27  O   UNL     1      47.389   0.821   6.228  0.00  0.00    +0.000 OA
ATOM     28  H   UNL     1      48.891   3.620   6.474  0.00  0.00    +0.000 HD
ATOM     29  H   UNL     1      49.258   2.216   5.546  0.00  0.00    +0.000 HD
ENDBRANCH  22  25
ENDBRANCH  18  19
ENDBRANCH  17  18
ENDBRANCH   1  17
TORSDOF 9
ENDMDL
MODEL 5
REMARK VINA RESULT:    -6.785      3.337      8.085
REMARK INTER + INTRA:         -11.439
REMARK INTER:                 -10.402
REMARK INTRA:                  -1.037
REMARK UNBOUND:                -1.282
REMARK  Name = 
REMARK  10 active torsions:
REMARK  status: ('A' for Active; 'I' for Inactive)
REMARK    1  A    between atoms: C_1  and  C_2
REMARK    2  A    between atoms: C_2  and  C_3
REMARK    3  A    between atoms: C_3  and  O_4
REMARK    4  A    between atoms: C_3  and  C_5
REMARK    5  A    between atoms: C_3  and  C_16
REMARK    6  A    between atoms: C_5  and  O_6
REMARK    7  A    between atoms: O_6  and  C_7
REMARK    8  A    between atoms: C_10  and  C_11
REMARK    9  A    between atoms: C_20  and  O_21
REMARK   10  A    between atoms: O_21  and  C_22
REMARK                            x       y       z     vdW  Elec       q    Type
REMARK                         _______ _______ _______ _____ _____    ______ ____
ROOT
ATOM      1  C   UNL     1      46.779   4.772  13.826  0.00  0.00    +0.000 C 
ENDROOT
BRANCH   1   2
ATOM      2  C   UNL     1      45.489   4.603  13.011  0.00  0.00    +0.000 A 
ATOM      3  C   UNL     1      44.450   5.540  13.099  0.00  0.00    +0.000 A 
ATOM      4  C   UNL     1      43.325   5.443  12.273  0.00  0.00    +0.000 A 
ATOM      5  C   UNL     1      43.203   4.401  11.351  0.00  0.00    +0.000 A 
ATOM      6  C   UNL     1      44.200   3.437  11.276  0.00  0.00    +0.000 A 
ATOM      7  C   UNL     1      45.324   3.539  12.101  0.00  0.00    +0.000 A 
BRANCH   6   8
ATOM      8  O   UNL     1      44.224   2.385  10.395  0.00  0.00    +0.000 OA
BRANCH   8   9
ATOM      9  C   UNL     1      44.488   2.636   8.999  0.00  0.00    +0.000 C 
ATOM     10  C   UNL     1      45.787   2.040   8.416  0.00  0.00    +0.000 C 
ATOM     11  C   UNL     1      46.130   3.409   7.812  0.00  0.00    +0.000 C 
ATOM     12  C   UNL     1      45.065   4.045   8.713  0.00  0.00    +0.000 C 
ENDBRANCH   8   9
ENDBRANCH   6   8
ENDBRANCH   1   2
BRANCH   1  14
ATOM     13  C   UNL     1      48.559   6.436  12.908  0.00  0.00    +0.000 C 
ATOM     14  C   UNL     1      47.334   6.215  13.783  0.00  0.00    +0.000 C 
ENDBRANCH   1  14
BRANCH   1  15
ATOM     15  O   UNL     1      47.799   3.943  13.223  0.00  0.00    +0.000 OA
ATOM     16  H   UNL     1      47.326   3.224  12.766  0.00  0.00    +0.000 HD
ENDBRANCH   1  15
BRANCH   1  17
ATOM     17  C   UNL     1      46.579   4.244  15.266  0.00  0.00    +0.000 C 
BRANCH  17  18
ATOM     18  O   UNL     1      47.409   4.941  16.210  0.00  0.00    +0.000 OA
BRANCH  18  19
ATOM     19  C   UNL     1      48.496   4.159  16.562  0.00  0.00    +0.000 A 
ATOM     20  C   UNL     1      49.555   4.782  17.193  0.00  0.00    +0.000 A 
ATOM     21  C   UNL     1      50.634   3.992  17.592  0.00  0.00    +0.000 A 
ATOM     22  C   UNL     1      50.622   2.612  17.354  0.00  0.00    +0.000 A 
ATOM     23  C   UNL     1      49.521   2.092  16.699  0.00  0.00    +0.000 A 
ATOM     24  N   UNL     1      48.462   2.835  16.300  0.00  0.00    +0.000 NA
BRANCH  22  25
ATOM     25  C   UNL     1      51.753   1.774  17.813  0.00  0.00    +0.000 C 
ATOM     26  N   UNL     1      51.568   0.431  17.985  0.00  0.00    +0.000 N 
ATOM     27  O   UNL     1      52.847   2.273  18.051  0.00  0.00    +0.000 OA
ATOM     28  H   UNL     1      50.715  -0.083  17.821  0.00  0.00    +0.000 HD
ATOM     29  H   UNL     1      52.365  -0.093  18.316  0.00  0.00    +0.000 HD
ENDBRANCH  22  25
ENDBRANCH  18  19
ENDBRANCH  17  18
ENDBRANCH   1  17
TORSDOF 9
ENDMDL
MODEL 6
REMARK VINA RESULT:    -6.691      1.745      2.240
REMARK INTER + INTRA:         -11.298
REMARK INTER:                 -10.149
REMARK INTRA:                  -1.148
REMARK UNBOUND:                -1.282
REMARK  Name = 
REMARK  10 active torsions:
REMARK  status: ('A' for Active; 'I' for Inactive)
REMARK    1  A    between atoms: C_1  and  C_2
REMARK    2  A    between atoms: C_2  and  C_3
REMARK    3  A    between atoms: C_3  and  O_4
REMARK    4  A    between atoms: C_3  and  C_5
REMARK    5  A    between atoms: C_3  and  C_16
REMARK    6  A    between atoms: C_5  and  O_6
REMARK    7  A    between atoms: O_6  and  C_7
REMARK    8  A    between atoms: C_10  and  C_11
REMARK    9  A    between atoms: C_20  and  O_21
REMARK   10  A    between atoms: O_21  and  C_22
REMARK                            x       y       z     vdW  Elec       q    Type
REMARK                         _______ _______ _______ _____ _____    ______ ____
ROOT
ATOM      1  C   UNL     1      44.313   5.610  12.005  0.00  0.00    +0.000 C 
ENDROOT
BRANCH   1   2
ATOM      2  C   UNL     1      45.339   4.833  12.840  0.00  0.00    +0.000 A 
ATOM      3  C   UNL     1      45.575   3.470  12.610  0.00  0.00    +0.000 A 
ATOM      4  C   UNL     1      46.589   2.792  13.295  0.00  0.00    +0.000 A 
ATOM      5  C   UNL     1      47.380   3.453  14.237  0.00  0.00    +0.000 A 
ATOM      6  C   UNL     1      47.136   4.792  14.513  0.00  0.00    +0.000 A 
ATOM      7  C   UNL     1      46.125   5.467  13.824  0.00  0.00    +0.000 A 
BRANCH   6   8
ATOM      8  O   UNL     1      47.857   5.569  15.385  0.00  0.00    +0.000 OA
BRANCH   8   9
ATOM      9  C   UNL     1      48.063   5.108  16.738  0.00  0.00    +0.000 C 
ATOM     10  C   UNL     1      48.244   6.191  17.824  0.00  0.00    +0.000 C 
ATOM     11  C   UNL     1      49.494   5.458  18.329  0.00  0.00    +0.000 C 
ATOM     12  C   UNL     1      49.512   4.645  17.030  0.00  0.00    +0.000 C 
ENDBRANCH   8   9
ENDBRANCH   6   8
ENDBRANCH   1   2
BRANCH   1  14
ATOM     13  C   UNL     1      44.952   8.128  11.817  0.00  0.00    +0.000 C 
ATOM     14  C   UNL     1      44.950   6.749  11.174  0.00  0.00    +0.000 C 
ENDBRANCH   1  14
BRANCH   1  15
ATOM     15  O   UNL     1      43.396   6.258  12.916  0.00  0.00    +0.000 OA
ATOM     16  H   UNL     1      42.752   6.732  12.358  0.00  0.00    +0.000 HD
ENDBRANCH   1  15
BRANCH   1  17
ATOM     17  C   UNL     1      43.467   4.637  11.148  0.00  0.00    +0.000 C 
BRANCH  17  18
ATOM     18  O   UNL     1      43.603   4.908   9.743  0.00  0.00    +0.000 OA
BRANCH  18  19
ATOM     19  C   UNL     1      44.432   3.969   9.152  0.00  0.00    +0.000 A 
ATOM     20  C   UNL     1      45.431   4.432   8.318  0.00  0.00    +0.000 A 
ATOM     21  C   UNL     1      46.298   3.495   7.755  0.00  0.00    +0.000 A 
ATOM     22  C   UNL     1      46.147   2.133   8.043  0.00  0.00    +0.000 A 
ATOM     23  C   UNL     1      45.104   1.774   8.877  0.00  0.00    +0.000 A 
ATOM     24  N   UNL     1      44.247   2.662   9.435  0.00  0.00    +0.000 NA
BRANCH  22  25
ATOM     25  C   UNL     1      47.094   1.148   7.474  0.00  0.00    +0.000 C 
ATOM     26  N   UNL     1      48.132   1.583   6.700  0.00  0.00    +0.000 N 
ATOM     27  O   UNL     1      46.950  -0.052   7.681  0.00  0.00    +0.000 OA
ATOM     28  H   UNL     1      48.344   2.541   6.465  0.00  0.00    +0.000 HD
ATOM     29  H   UNL     1      48.739   0.871   6.321  0.00  0.00    +0.000 HD
ENDBRANCH  22  25
ENDBRANCH  18  19
ENDBRANCH  17  18
ENDBRANCH   1  17
TORSDOF 9
ENDMDL
MODEL 7
REMARK VINA RESULT:    -6.419      3.674      7.700
REMARK INTER + INTRA:         -10.890
REMARK INTER:                  -9.830
REMARK INTRA:                  -1.060
REMARK UNBOUND:                -1.282
REMARK  Name = 
REMARK  10 active torsions:
REMARK  status: ('A' for Active; 'I' for Inactive)
REMARK    1  A    between atoms: C_1  and  C_2
REMARK    2  A    between atoms: C_2  and  C_3
REMARK    3  A    between atoms: C_3  and  O_4
REMARK    4  A    between atoms: C_3  and  C_5
REMARK    5  A    between atoms: C_3  and  C_16
REMARK    6  A    between atoms: C_5  and  O_6
REMARK    7  A    between atoms: O_6  and  C_7
REMARK    8  A    between atoms: C_10  and  C_11
REMARK    9  A    between atoms: C_20  and  O_21
REMARK   10  A    between atoms: O_21  and  C_22
REMARK                            x       y       z     vdW  Elec       q    Type
REMARK                         _______ _______ _______ _____ _____    ______ ____
ROOT
ATOM      1  C   UNL     1      45.086   5.764  11.918  0.00  0.00    +0.000 C 
ENDROOT
BRANCH   1   2
ATOM      2  C   UNL     1      44.904   4.594  10.941  0.00  0.00    +0.000 A 
ATOM      3  C   UNL     1      44.267   3.411  11.341  0.00  0.00    +0.000 A 
ATOM      4  C   UNL     1      44.003   2.392  10.419  0.00  0.00    +0.000 A 
ATOM      5  C   UNL     1      44.383   2.523   9.082  0.00  0.00    +0.000 A 
ATOM      6  C   UNL     1      45.054   3.667   8.673  0.00  0.00    +0.000 A 
ATOM      7  C   UNL     1      45.313   4.684   9.595  0.00  0.00    +0.000 A 
BRANCH   6   8
ATOM      8  O   UNL     1      45.452   3.939   7.387  0.00  0.00    +0.000 OA
BRANCH   8   9
ATOM      9  C   UNL     1      46.785   3.577   6.968  0.00  0.00    +0.000 C 
ATOM     10  C   UNL     1      46.965   3.165   5.491  0.00  0.00    +0.000 C 
ATOM     11  C   UNL     1      47.727   1.913   5.946  0.00  0.00    +0.000 C 
ATOM     12  C   UNL     1      47.201   2.139   7.367  0.00  0.00    +0.000 C 
ENDBRANCH   8   9
ENDBRANCH   6   8
ENDBRANCH   1   2
BRANCH   1  14
ATOM     13  C   UNL     1      46.758   4.618  13.553  0.00  0.00    +0.000 C 
ATOM     14  C   UNL     1      45.412   5.302  13.357  0.00  0.00    +0.000 C 
ENDBRANCH   1  14
BRANCH   1  15
ATOM     15  O   UNL     1      43.826   6.468  12.009  0.00  0.00    +0.000 OA
ATOM     16  H   UNL     1      43.982   7.350  11.623  0.00  0.00    +0.000 HD
ENDBRANCH   1  15
BRANCH   1  17
ATOM     17  C   UNL     1      46.115   6.776  11.360  0.00  0.00    +0.000 C 
BRANCH  17  18
ATOM     18  O   UNL     1      46.294   7.896  12.243  0.00  0.00    +0.000 OA
BRANCH  18  19
ATOM     19  C   UNL     1      47.622   7.999  12.624  0.00  0.00    +0.000 A 
ATOM     20  C   UNL     1      48.582   7.628  11.704  0.00  0.00    +0.000 A 
ATOM     21  C   UNL     1      49.922   7.772  12.065  0.00  0.00    +0.000 A 
ATOM     22  C   UNL     1      50.262   8.284  13.324  0.00  0.00    +0.000 A 
ATOM     23  C   UNL     1      49.223   8.609  14.176  0.00  0.00    +0.000 A 
ATOM     24  N   UNL     1      47.915   8.477  13.852  0.00  0.00    +0.000 NA
BRANCH  22  25
ATOM     25  C   UNL     1      51.685   8.471  13.686  0.00  0.00    +0.000 C 
ATOM     26  N   UNL     1      52.263   7.631  14.594  0.00  0.00    +0.000 N 
ATOM     27  O   UNL     1      52.344   9.376  13.187  0.00  0.00    +0.000 OA
ATOM     28  H   UNL     1      51.817   6.857  15.065  0.00  0.00    +0.000 HD
ATOM     29  H   UNL     1      53.231   7.811  14.820  0.00  0.00    +0.000 HD
ENDBRANCH  22  25
ENDBRANCH  18  19
ENDBRANCH  17  18
ENDBRANCH   1  17
TORSDOF 9
ENDMDL
MODEL 8
REMARK VINA RESULT:    -6.176      3.490      6.298
REMARK INTER + INTRA:         -10.527
REMARK INTER:                  -8.851
REMARK INTRA:                  -1.676
REMARK UNBOUND:                -1.282
REMARK  Name = 
REMARK  10 active torsions:
REMARK  status: ('A' for Active; 'I' for Inactive)
REMARK    1  A    between atoms: C_1  and  C_2
REMARK    2  A    between atoms: C_2  and  C_3
REMARK    3  A    between atoms: C_3  and  O_4
REMARK    4  A    between atoms: C_3  and  C_5
REMARK    5  A    between atoms: C_3  and  C_16
REMARK    6  A    between atoms: C_5  and  O_6
REMARK    7  A    between atoms: O_6  and  C_7
REMARK    8  A    between atoms: C_10  and  C_11
REMARK    9  A    between atoms: C_20  and  O_21
REMARK   10  A    between atoms: O_21  and  C_22
REMARK                            x       y       z     vdW  Elec       q    Type
REMARK                         _______ _______ _______ _____ _____    ______ ____
ROOT
ATOM      1  C   UNL     1      48.546   4.117  16.997  0.00  0.00    +0.000 C 
ENDROOT
BRANCH   1   2
ATOM      2  C   UNL     1      49.621   5.180  16.730  0.00  0.00    +0.000 A 
ATOM      3  C   UNL     1      50.899   5.075  17.297  0.00  0.00    +0.000 A 
ATOM      4  C   UNL     1      51.908   5.984  16.962  0.00  0.00    +0.000 A 
ATOM      5  C   UNL     1      51.662   7.028  16.067  0.00  0.00    +0.000 A 
ATOM      6  C   UNL     1      50.392   7.176  15.526  0.00  0.00    +0.000 A 
ATOM      7  C   UNL     1      49.387   6.265  15.860  0.00  0.00    +0.000 A 
BRANCH   6   8
ATOM      8  O   UNL     1      50.025   8.132  14.612  0.00  0.00    +0.000 OA
BRANCH   8   9
ATOM      9  C   UNL     1      48.989   7.832  13.653  0.00  0.00    +0.000 C 
ATOM     10  C   UNL     1      49.447   7.416  12.238  0.00  0.00    +0.000 C 
ATOM     11  C   UNL     1      48.475   8.440  11.635  0.00  0.00    +0.000 C 
ATOM     12  C   UNL     1      48.338   9.086  13.018  0.00  0.00    +0.000 C 
ENDBRANCH   8   9
ENDBRANCH   6   8
ENDBRANCH   1   2
BRANCH   1  14
ATOM     13  C   UNL     1      47.679   5.381  19.102  0.00  0.00    +0.000 C 
ATOM     14  C   UNL     1      48.110   4.061  18.480  0.00  0.00    +0.000 C 
ENDBRANCH   1  14
BRANCH   1  15
ATOM     15  O   UNL     1      49.120   2.821  16.709  0.00  0.00    +0.000 OA
ATOM     16  H   UNL     1      49.991   2.810  17.146  0.00  0.00    +0.000 HD
ENDBRANCH   1  15
BRANCH   1  17
ATOM     17  C   UNL     1      47.357   4.296  16.023  0.00  0.00    +0.000 C 
BRANCH  17  18
ATOM     18  O   UNL     1      47.541   3.544  14.813  0.00  0.00    +0.000 OA
BRANCH  18  19
ATOM     19  C   UNL     1      46.625   3.945  13.854  0.00  0.00    +0.000 A 
ATOM     20  C   UNL     1      46.432   5.302  13.684  0.00  0.00    +0.000 A 
ATOM     21  C   UNL     1      45.545   5.715  12.689  0.00  0.00    +0.000 A 
ATOM     22  C   UNL     1      44.885   4.767  11.895  0.00  0.00    +0.000 A 
ATOM     23  C   UNL     1      45.138   3.434  12.161  0.00  0.00    +0.000 A 
ATOM     24  N   UNL     1      45.991   3.006  13.121  0.00  0.00    +0.000 NA
BRANCH  22  25
ATOM     25  C   UNL     1      43.976   5.212  10.816  0.00  0.00    +0.000 C 
ATOM     26  N   UNL     1      43.400   6.448  10.889  0.00  0.00    +0.000 N 
ATOM     27  O   UNL     1      43.727   4.479   9.864  0.00  0.00    +0.000 OA
ATOM     28  H   UNL     1      43.532   7.129  11.622  0.00  0.00    +0.000 HD
ATOM     29  H   UNL     1      42.774   6.698  10.136  0.00  0.00    +0.000 HD
ENDBRANCH  22  25
ENDBRANCH  18  19
ENDBRANCH  17  18
ENDBRANCH   1  17
TORSDOF 9
ENDMDL
MODEL 9
REMARK VINA RESULT:    -5.968      3.735      8.754
REMARK INTER + INTRA:         -10.215
REMARK INTER:                  -9.057
REMARK INTRA:                  -1.159
REMARK UNBOUND:                -1.282
REMARK  Name = 
REMARK  10 active torsions:
REMARK  status: ('A' for Active; 'I' for Inactive)
REMARK    1  A    between atoms: C_1  and  C_2
REMARK    2  A    between atoms: C_2  and  C_3
REMARK    3  A    between atoms: C_3  and  O_4
REMARK    4  A    between atoms: C_3  and  C_5
REMARK    5  A    between atoms: C_3  and  C_16
REMARK    6  A    between atoms: C_5  and  O_6
REMARK    7  A    between atoms: O_6  and  C_7
REMARK    8  A    between atoms: C_10  and  C_11
REMARK    9  A    between atoms: C_20  and  O_21
REMARK   10  A    between atoms: O_21  and  C_22
REMARK                            x       y       z     vdW  Elec       q    Type
REMARK                         _______ _______ _______ _____ _____    ______ ____
ROOT
ATOM      1  C   UNL     1      48.413   7.359  12.824  0.00  0.00    +0.000 C 
ENDROOT
BRANCH   1   2
ATOM      2  C   UNL     1      46.968   7.069  12.395  0.00  0.00    +0.000 A 
ATOM      3  C   UNL     1      46.026   8.102  12.284  0.00  0.00    +0.000 A 
ATOM      4  C   UNL     1      44.743   7.852  11.786  0.00  0.00    +0.000 A 
ATOM      5  C   UNL     1      44.364   6.563  11.402  0.00  0.00    +0.000 A 
ATOM      6  C   UNL     1      45.266   5.517  11.544  0.00  0.00    +0.000 A 
ATOM      7  C   UNL     1      46.548   5.771  12.039  0.00  0.00    +0.000 A 
BRANCH   6   8
ATOM      8  O   UNL     1      45.037   4.215  11.175  0.00  0.00    +0.000 OA
BRANCH   8   9
ATOM      9  C   UNL     1      44.545   3.931   9.849  0.00  0.00    +0.000 C 
ATOM     10  C   UNL     1      44.746   2.494   9.322  0.00  0.00    +0.000 C 
ATOM     11  C   UNL     1      45.327   3.065   8.021  0.00  0.00    +0.000 C 
ATOM     12  C   UNL     1      45.478   4.424   8.714  0.00  0.00    +0.000 C 
ENDBRANCH   8   9
ENDBRANCH   6   8
ENDBRANCH   1   2
BRANCH   1  14
ATOM     13  C   UNL     1      49.287   9.639  11.920  0.00  0.00    +0.000 C 
ATOM     14  C   UNL     1      49.217   8.128  11.750  0.00  0.00    +0.000 C 
ENDBRANCH   1  14
BRANCH   1  15
ATOM     15  O   UNL     1      49.091   6.092  12.988  0.00  0.00    +0.000 OA
ATOM     16  H   UNL     1      49.418   6.079  13.906  0.00  0.00    +0.000 HD
ENDBRANCH   1  15
BRANCH   1  17
ATOM     17  C   UNL     1      48.435   8.051  14.208  0.00  0.00    +0.000 C 
BRANCH  17  18
ATOM     18  O   UNL     1      49.653   7.777  14.921  0.00  0.00    +0.000 OA
BRANCH  18  19
ATOM     19  C   UNL     1      49.380   7.073  16.082  0.00  0.00    +0.000 A 
ATOM     20  C   UNL     1      48.757   7.752  17.111  0.00  0.00    +0.000 A 
ATOM     21  C   UNL     1      48.439   7.037  18.266  0.00  0.00    +0.000 A 
ATOM     22  C   UNL     1      48.746   5.673  18.358  0.00  0.00    +0.000 A 
ATOM     23  C   UNL     1      49.385   5.095  17.277  0.00  0.00    +0.000 A 
ATOM     24  N   UNL     1      49.708   5.765  16.146  0.00  0.00    +0.000 NA
BRANCH  22  25
ATOM     25  C   UNL     1      48.370   4.911  19.570  0.00  0.00    +0.000 C 
ATOM     26  N   UNL     1      48.471   3.550  19.567  0.00  0.00    +0.000 N 
ATOM     27  O   UNL     1      47.961   5.490  20.571  0.00  0.00    +0.000 OA
ATOM     28  H   UNL     1      48.792   2.974  18.802  0.00  0.00    +0.000 HD
ATOM     29  H   UNL     1      48.186   3.075  20.412  0.00  0.00    +0.000 HD
ENDBRANCH  22  25
ENDBRANCH  18  19
ENDBRANCH  17  18
ENDBRANCH   1  17
TORSDOF 9
ENDMDL
