MODEL 1
REMARK VINA RESULT:    -8.888      0.000      0.000
REMARK INTER + INTRA:         -14.228
REMARK INTER:                 -13.044
REMARK INTRA:                  -1.184
REMARK UNBOUND:                -1.184
REMARK  Name = 
REMARK  9 active torsions:
REMARK  status: ('A' for Active; 'I' for Inactive)
REMARK    1  A    between atoms: C_1  and  C_2
REMARK    2  A    between atoms: C_2  and  C_3
REMARK    3  A    between atoms: C_3  and  N_4
REMARK    4  A    between atoms: C_3  and  C_12
REMARK    5  A    between atoms: N_4  and  C_5
REMARK    6  A    between atoms: C_5  and  C_6
REMARK    7  A    between atoms: C_15  and  C_16
REMARK    8  A    between atoms: C_16  and  N_17
REMARK    9  A    between atoms: C_18  and  C_20
REMARK                            x       y       z     vdW  Elec       q    Type
REMARK                         _______ _______ _______ _____ _____    ______ ____
ROOT
ATOM      1  C   UNL     1      45.458   4.938  11.588  0.00  0.00    +0.000 A 
ATOM      2  C   UNL     1      45.890   4.519  12.862  0.00  0.00    +0.000 A 
ATOM      3  C   UNL     1      46.858   5.247  13.575  0.00  0.00    +0.000 A 
ATOM      4  C   UNL     1      47.437   6.397  13.023  0.00  0.00    +0.000 A 
ATOM      5  C   UNL     1      47.045   6.793  11.746  0.00  0.00    +0.000 A 
ATOM      6  C   UNL     1      46.041   6.105  11.073  0.00  0.00    +0.000 A 
ENDROOT
BRANCH   1   7
ATOM      7  C   UNL     1      44.403   4.128  10.809  0.00  0.00    +0.000 C 
BRANCH   7   9
ATOM      8  C   UNL     1      42.428   5.456  11.869  0.00  0.00    +0.000 C 
ATOM      9  C   UNL     1      43.009   4.092  11.506  0.00  0.00    +0.000 C 
ENDBRANCH   7   9
BRANCH   7  10
ATOM     10  N   UNL     1      44.910   2.755  10.601  0.00  0.00    +0.000 NA
ATOM     11  H   UNL     1      45.927   2.763  10.659  0.00  0.00    +0.000 HD
BRANCH  10  12
ATOM     12  C   UNL     1      44.544   2.161   9.316  0.00  0.00    +0.000 C 
BRANCH  12  13
ATOM     13  C   UNL     1      45.652   2.292   8.298  0.00  0.00    +0.000 A 
ATOM     14  C   UNL     1      46.459   1.183   7.994  0.00  0.00    +0.000 A 
ATOM     15  C   UNL     1      47.418   1.255   6.984  0.00  0.00    +0.000 A 
ATOM     16  C   UNL     1      47.579   2.437   6.264  0.00  0.00    +0.000 A 
ATOM     17  C   UNL     1      46.792   3.547   6.562  0.00  0.00    +0.000 A 
ATOM     18  C   UNL     1      45.832   3.477   7.570  0.00  0.00    +0.000 A 
ENDBRANCH  12  13
ENDBRANCH  10  12
ENDBRANCH   7  10
ENDBRANCH   1   7
BRANCH   4  19
ATOM     19  C   UNL     1      48.475   7.209  13.744  0.00  0.00    +0.000 C 
BRANCH  19  20
ATOM     20  N   UNL     1      48.212   7.254  15.158  0.00  0.00    +0.000 N 
ATOM     21  C   UNL     1      49.163   6.851  16.061  0.00  0.00    +0.000 C 
ATOM     22  O   UNL     1      50.278   6.478  15.712  0.00  0.00    +0.000 OA
ATOM     23  H   UNL     1      47.238   7.288  15.442  0.00  0.00    +0.000 HD
BRANCH  21  24
ATOM     24  C   UNL     1      48.796   6.957  17.476  0.00  0.00    +0.000 A 
ATOM     25  C   UNL     1      48.337   8.168  17.977  0.00  0.00    +0.000 A 
ATOM     26  S   UNL     1      47.889   8.101  19.621  0.00  0.00    +0.000 S 
ATOM     27  C   UNL     1      48.350   6.465  19.736  0.00  0.00    +0.000 A 
ATOM     28  N   UNL     1      48.247   5.789  20.913  0.00  0.00    +0.000 NA
ATOM     29  C   UNL     1      48.656   4.567  20.862  0.00  0.00    +0.000 A 
ATOM     30  N   UNL     1      49.159   3.958  19.742  0.00  0.00    +0.000 N 
ATOM     31  C   UNL     1      49.259   4.585  18.527  0.00  0.00    +0.000 A 
ATOM     32  O   UNL     1      49.677   4.006  17.533  0.00  0.00    +0.000 OA
ATOM     33  C   UNL     1      48.821   5.972  18.532  0.00  0.00    +0.000 A 
ATOM     34  H   UNL     1      49.453   2.991  19.770  0.00  0.00    +0.000 HD
ENDBRANCH  21  24
ENDBRANCH  19  20
ENDBRANCH   4  19
TORSDOF 8
ENDMDL
MODEL 2
REMARK VINA RESULT:    -8.722      1.352      2.046
REMARK INTER + INTRA:         -13.986
REMARK INTER:                 -12.621
REMARK INTRA:                  -1.365
REMARK UNBOUND:                -1.184
REMARK  Name = 
REMARK  9 active torsions:
REMARK  status: ('A' for Active; 'I' for Inactive)
REMARK    1  A    between atoms: C_1  and  C_2
REMARK    2  A    between atoms: C_2  and  C_3
REMARK    3  A    between atoms: C_3  and  N_4
REMARK    4  A    between atoms: C_3  and  C_12
REMARK    5  A    between atoms: N_4  and  C_5
REMARK    6  A    between atoms: C_5  and  C_6
REMARK    7  A    between atoms: C_15  and  C_16
REMARK    8  A    between atoms: C_16  and  N_17
REMARK    9  A    between atoms: C_18  and  C_20
REMARK                            x       y       z     vdW  Elec       q    Type
REMARK                         _______ _______ _______ _____ _____    ______ ____
ROOT
ATOM      1  C   UNL     1      45.467   4.953  11.709  0.00  0.00    +0.000 A 
ATOM      2  C   UNL     1      45.825   4.474  12.985  0.00  0.00    +0.000 A 
ATOM      3  C   UNL     1      46.763   5.157  13.778  0.00  0.00    +0.000 A 
ATOM      4  C   UNL     1      47.386   6.320  13.306  0.00  0.00    +0.000 A 
ATOM      5  C   UNL     1      47.069   6.774  12.029  0.00  0.00    +0.000 A 
ATOM      6  C   UNL     1      46.092   6.131  11.275  0.00  0.00    +0.000 A 
ENDROOT
BRANCH   1   7
ATOM      7  C   UNL     1      44.445   4.192  10.841  0.00  0.00    +0.000 C 
BRANCH   7   9
ATOM      8  C   UNL     1      42.458   5.550  11.840  0.00  0.00    +0.000 C 
ATOM      9  C   UNL     1      43.007   4.182  11.443  0.00  0.00    +0.000 C 
ENDBRANCH   7   9
BRANCH   7  10
ATOM     10  N   UNL     1      44.925   2.811  10.634  0.00  0.00    +0.000 NA
ATOM     11  H   UNL     1      45.942   2.798  10.696  0.00  0.00    +0.000 HD
BRANCH  10  12
ATOM     12  C   UNL     1      44.554   2.225   9.347  0.00  0.00    +0.000 C 
BRANCH  12  13
ATOM     13  C   UNL     1      45.663   2.349   8.328  0.00  0.00    +0.000 A 
ATOM     14  C   UNL     1      46.460   1.233   8.022  0.00  0.00    +0.000 A 
ATOM     15  C   UNL     1      47.420   1.299   7.012  0.00  0.00    +0.000 A 
ATOM     16  C   UNL     1      47.592   2.482   6.296  0.00  0.00    +0.000 A 
ATOM     17  C   UNL     1      46.816   3.598   6.597  0.00  0.00    +0.000 A 
ATOM     18  C   UNL     1      45.854   3.535   7.604  0.00  0.00    +0.000 A 
ENDBRANCH  12  13
ENDBRANCH  10  12
ENDBRANCH   7  10
ENDBRANCH   1   7
BRANCH   4  19
ATOM     19  C   UNL     1      48.395   7.085  14.115  0.00  0.00    +0.000 C 
BRANCH  19  20
ATOM     20  N   UNL     1      48.146   6.945  15.526  0.00  0.00    +0.000 N 
ATOM     21  C   UNL     1      49.113   6.449  16.362  0.00  0.00    +0.000 C 
ATOM     22  O   UNL     1      50.231   6.144  15.960  0.00  0.00    +0.000 OA
ATOM     23  H   UNL     1      47.174   6.926  15.820  0.00  0.00    +0.000 HD
BRANCH  21  24
ATOM     24  C   UNL     1      48.760   6.370  17.783  0.00  0.00    +0.000 A 
ATOM     25  C   UNL     1      48.969   5.186  18.476  0.00  0.00    +0.000 A 
ATOM     26  S   UNL     1      48.570   5.285  20.131  0.00  0.00    +0.000 S 
ATOM     27  C   UNL     1      48.049   6.897  19.965  0.00  0.00    +0.000 A 
ATOM     28  N   UNL     1      47.548   7.584  21.028  0.00  0.00    +0.000 NA
ATOM     29  C   UNL     1      47.167   8.786  20.753  0.00  0.00    +0.000 A 
ATOM     30  N   UNL     1      47.239   9.362  19.513  0.00  0.00    +0.000 N 
ATOM     31  C   UNL     1      47.759   8.724  18.416  0.00  0.00    +0.000 A 
ATOM     32  O   UNL     1      47.846   9.276  17.327  0.00  0.00    +0.000 OA
ATOM     33  C   UNL     1      48.194   7.359  18.669  0.00  0.00    +0.000 A 
ATOM     34  H   UNL     1      46.931  10.315  19.369  0.00  0.00    +0.000 HD
ENDBRANCH  21  24
ENDBRANCH  19  20
ENDBRANCH   4  19
TORSDOF 8
ENDMDL
MODEL 3
REMARK VINA RESULT:    -8.602      1.463      1.740
REMARK INTER + INTRA:         -13.809
REMARK INTER:                 -12.497
REMARK INTRA:                  -1.311
REMARK UNBOUND:                -1.184
REMARK  Name = 
REMARK  9 active torsions:
REMARK  status: ('A' for Active; 'I' for Inactive)
REMARK    1  A    between atoms: C_1  and  C_2
REMARK    2  A    between atoms: C_2  and  C_3
REMARK    3  A    between atoms: C_3  and  N_4
REMARK    4  A    between atoms: C_3  and  C_12
REMARK    5  A    between atoms: N_4  and  C_5
REMARK    6  A    between atoms: C_5  and  C_6
REMARK    7  A    between atoms: C_15  and  C_16
REMARK    8  A    between atoms: C_16  and  N_17
REMARK    9  A    between atoms: C_18  and  C_20
REMARK                            x       y       z     vdW  Elec       q    Type
REMARK                         _______ _______ _______ _____ _____    ______ ____
ROOT
ATOM      1  C   UNL     1      44.738   5.993  11.361  0.00  0.00    +0.000 A 
ATOM      2  C   UNL     1      44.396   7.284  11.809  0.00  0.00    +0.000 A 
ATOM      3  C   UNL     1      45.330   8.088  12.484  0.00  0.00    +0.000 A 
ATOM      4  C   UNL     1      46.620   7.613  12.751  0.00  0.00    +0.000 A 
ATOM      5  C   UNL     1      46.952   6.322  12.348  0.00  0.00    +0.000 A 
ATOM      6  C   UNL     1      46.045   5.555  11.624  0.00  0.00    +0.000 A 
ENDROOT
BRANCH   1   7
ATOM      7  C   UNL     1      43.704   5.113  10.630  0.00  0.00    +0.000 C 
BRANCH   7   9
ATOM      8  C   UNL     1      43.227   4.118  12.990  0.00  0.00    +0.000 C 
ATOM      9  C   UNL     1      43.210   3.903  11.479  0.00  0.00    +0.000 C 
ENDBRANCH   7   9
BRANCH   7  10
ATOM     10  N   UNL     1      44.290   4.643   9.357  0.00  0.00    +0.000 NA
ATOM     11  H   UNL     1      43.711   4.967   8.583  0.00  0.00    +0.000 HD
BRANCH  10  12
ATOM     12  C   UNL     1      44.408   3.190   9.242  0.00  0.00    +0.000 C 
BRANCH  12  13
ATOM     13  C   UNL     1      45.525   2.787   8.309  0.00  0.00    +0.000 A 
ATOM     14  C   UNL     1      46.045   1.482   8.362  0.00  0.00    +0.000 A 
ATOM     15  C   UNL     1      47.003   1.059   7.441  0.00  0.00    +0.000 A 
ATOM     16  C   UNL     1      47.450   1.936   6.454  0.00  0.00    +0.000 A 
ATOM     17  C   UNL     1      46.951   3.234   6.397  0.00  0.00    +0.000 A 
ATOM     18  C   UNL     1      45.992   3.660   7.315  0.00  0.00    +0.000 A 
ENDBRANCH  12  13
ENDBRANCH  10  12
ENDBRANCH   7  10
ENDBRANCH   1   7
BRANCH   4  19
ATOM     19  C   UNL     1      47.654   8.433  13.469  0.00  0.00    +0.000 C 
BRANCH  19  20
ATOM     20  N   UNL     1      47.896   7.924  14.793  0.00  0.00    +0.000 N 
ATOM     21  C   UNL     1      49.018   7.184  15.065  0.00  0.00    +0.000 C 
ATOM     22  O   UNL     1      49.874   6.958  14.215  0.00  0.00    +0.000 OA
ATOM     23  H   UNL     1      47.095   7.861  15.413  0.00  0.00    +0.000 HD
BRANCH  21  24
ATOM     24  C   UNL     1      49.175   6.733  16.451  0.00  0.00    +0.000 A 
ATOM     25  C   UNL     1      49.790   7.564  17.378  0.00  0.00    +0.000 A 
ATOM     26  S   UNL     1      49.828   6.917  18.955  0.00  0.00    +0.000 S 
ATOM     27  C   UNL     1      49.075   5.478  18.442  0.00  0.00    +0.000 A 
ATOM     28  N   UNL     1      48.831   4.464  19.317  0.00  0.00    +0.000 NA
ATOM     29  C   UNL     1      48.281   3.425  18.787  0.00  0.00    +0.000 A 
ATOM     30  N   UNL     1      47.954   3.305  17.462  0.00  0.00    +0.000 N 
ATOM     31  C   UNL     1      48.153   4.305  16.546  0.00  0.00    +0.000 A 
ATOM     32  O   UNL     1      47.816   4.186  15.375  0.00  0.00    +0.000 OA
ATOM     33  C   UNL     1      48.782   5.499  17.090  0.00  0.00    +0.000 A 
ATOM     34  H   UNL     1      47.514   2.463  17.114  0.00  0.00    +0.000 HD
ENDBRANCH  21  24
ENDBRANCH  19  20
ENDBRANCH   4  19
TORSDOF 8
ENDMDL
MODEL 4
REMARK VINA RESULT:    -8.033      1.509      2.058
REMARK INTER + INTRA:         -12.974
REMARK INTER:                 -11.561
REMARK INTRA:                  -1.413
REMARK UNBOUND:                -1.184
REMARK  Name = 
REMARK  9 active torsions:
REMARK  status: ('A' for Active; 'I' for Inactive)
REMARK    1  A    between atoms: C_1  and  C_2
REMARK    2  A    between atoms: C_2  and  C_3
REMARK    3  A    between atoms: C_3  and  N_4
REMARK    4  A    between atoms: C_3  and  C_12
REMARK    5  A    between atoms: N_4  and  C_5
REMARK    6  A    between atoms: C_5  and  C_6
REMARK    7  A    between atoms: C_15  and  C_16
REMARK    8  A    between atoms: C_16  and  N_17
REMARK    9  A    between atoms: C_18  and  C_20
REMARK                            x       y       z     vdW  Elec       q    Type
REMARK                         _______ _______ _______ _____ _____    ______ ____
ROOT
ATOM      1  C   UNL     1      45.474   5.354  11.903  0.00  0.00    +0.000 A 
ATOM      2  C   UNL     1      46.028   6.383  12.690  0.00  0.00    +0.000 A 
ATOM      3  C   UNL     1      46.755   6.091  13.857  0.00  0.00    +0.000 A 
ATOM      4  C   UNL     1      46.926   4.767  14.280  0.00  0.00    +0.000 A 
ATOM      5  C   UNL     1      46.345   3.748  13.530  0.00  0.00    +0.000 A 
ATOM      6  C   UNL     1      45.681   4.038  12.342  0.00  0.00    +0.000 A 
ENDROOT
BRANCH   1   7
ATOM      7  C   UNL     1      44.669   5.683  10.630  0.00  0.00    +0.000 C 
BRANCH   7   9
ATOM      8  C   UNL     1      42.402   5.506  11.902  0.00  0.00    +0.000 C 
ATOM      9  C   UNL     1      43.210   5.135  10.661  0.00  0.00    +0.000 C 
ENDBRANCH   7   9
BRANCH   7  10
ATOM     10  N   UNL     1      45.392   5.152   9.455  0.00  0.00    +0.000 NA
ATOM     11  H   UNL     1      45.512   5.899   8.772  0.00  0.00    +0.000 HD
BRANCH  10  12
ATOM     12  C   UNL     1      44.724   4.040   8.782  0.00  0.00    +0.000 C 
BRANCH  12  13
ATOM     13  C   UNL     1      45.706   3.138   8.072  0.00  0.00    +0.000 A 
ATOM     14  C   UNL     1      45.860   1.805   8.489  0.00  0.00    +0.000 A 
ATOM     15  C   UNL     1      46.684   0.928   7.783  0.00  0.00    +0.000 A 
ATOM     16  C   UNL     1      47.361   1.375   6.650  0.00  0.00    +0.000 A 
ATOM     17  C   UNL     1      47.225   2.696   6.232  0.00  0.00    +0.000 A 
ATOM     18  C   UNL     1      46.401   3.574   6.935  0.00  0.00    +0.000 A 
ENDBRANCH  12  13
ENDBRANCH  10  12
ENDBRANCH   7  10
ENDBRANCH   1   7
BRANCH   4  19
ATOM     19  C   UNL     1      47.694   4.403  15.519  0.00  0.00    +0.000 C 
BRANCH  19  20
ATOM     20  N   UNL     1      47.699   5.487  16.466  0.00  0.00    +0.000 N 
ATOM     21  C   UNL     1      48.859   6.157  16.759  0.00  0.00    +0.000 C 
ATOM     22  O   UNL     1      49.922   5.894  16.206  0.00  0.00    +0.000 OA
ATOM     23  H   UNL     1      46.920   5.531  17.116  0.00  0.00    +0.000 HD
BRANCH  21  24
ATOM     24  C   UNL     1      48.745   7.258  17.721  0.00  0.00    +0.000 A 
ATOM     25  C   UNL     1      49.140   8.536  17.352  0.00  0.00    +0.000 A 
ATOM     26  S   UNL     1      48.877   9.707  18.563  0.00  0.00    +0.000 S 
ATOM     27  C   UNL     1      48.279   8.536  19.644  0.00  0.00    +0.000 A 
ATOM     28  N   UNL     1      47.890   8.877  20.902  0.00  0.00    +0.000 NA
ATOM     29  C   UNL     1      47.483   7.886  21.621  0.00  0.00    +0.000 A 
ATOM     30  N   UNL     1      47.432   6.584  21.197  0.00  0.00    +0.000 N 
ATOM     31  C   UNL     1      47.786   6.191  19.933  0.00  0.00    +0.000 A 
ATOM     32  O   UNL     1      47.695   5.027  19.567  0.00  0.00    +0.000 OA
ATOM     33  C   UNL     1      48.263   7.271  19.082  0.00  0.00    +0.000 A 
ATOM     34  H   UNL     1      47.092   5.855  21.812  0.00  0.00    +0.000 HD
ENDBRANCH  21  24
ENDBRANCH  19  20
ENDBRANCH   4  19
TORSDOF 8
ENDMDL
MODEL 5
REMARK VINA RESULT:    -7.229      3.182      9.072
REMARK INTER + INTRA:         -11.795
REMARK INTER:                  -9.635
REMARK INTRA:                  -2.160
REMARK UNBOUND:                -1.184
REMARK  Name = 
REMARK  9 active torsions:
REMARK  status: ('A' for Active; 'I' for Inactive)
REMARK    1  A    between atoms: C_1  and  C_2
REMARK    2  A    between atoms: C_2  and  C_3
REMARK    3  A    between atoms: C_3  and  N_4
REMARK    4  A    between atoms: C_3  and  C_12
REMARK    5  A    between atoms: N_4  and  C_5
REMARK    6  A    between atoms: C_5  and  C_6
REMARK    7  A    between atoms: C_15  and  C_16
REMARK    8  A    between atoms: C_16  and  N_17
REMARK    9  A    between atoms: C_18  and  C_20
REMARK                            x       y       z     vdW  Elec       q    Type
REMARK                         _______ _______ _______ _____ _____    ______ ____
ROOT
ATOM      1  C   UNL     1      48.980   8.101  16.341  0.00  0.00    +0.000 A 
ATOM      2  C   UNL     1      49.162   6.890  15.643  0.00  0.00    +0.000 A 
ATOM      3  C   UNL     1      48.778   6.765  14.297  0.00  0.00    +0.000 A 
ATOM      4  C   UNL     1      48.179   7.837  13.623  0.00  0.00    +0.000 A 
ATOM      5  C   UNL     1      47.957   9.022  14.319  0.00  0.00    +0.000 A 
ATOM      6  C   UNL     1      48.397   9.161  15.631  0.00  0.00    +0.000 A 
ENDROOT
BRANCH   1   7
ATOM      7  C   UNL     1      49.395   8.227  17.821  0.00  0.00    +0.000 C 
BRANCH   7   9
ATOM      8  C   UNL     1      51.926   8.635  17.357  0.00  0.00    +0.000 C 
ATOM      9  C   UNL     1      50.872   7.807  18.088  0.00  0.00    +0.000 C 
ENDBRANCH   7   9
BRANCH   7  10
ATOM     10  N   UNL     1      48.473   7.420  18.647  0.00  0.00    +0.000 NA
ATOM     11  H   UNL     1      48.103   8.000  19.399  0.00  0.00    +0.000 HD
BRANCH  10  12
ATOM     12  C   UNL     1      49.082   6.239  19.259  0.00  0.00    +0.000 C 
BRANCH  12  13
ATOM     13  C   UNL     1      48.770   4.979  18.486  0.00  0.00    +0.000 A 
ATOM     14  C   UNL     1      47.460   4.737  18.040  0.00  0.00    +0.000 A 
ATOM     15  C   UNL     1      47.173   3.633  17.238  0.00  0.00    +0.000 A 
ATOM     16  C   UNL     1      48.194   2.759  16.872  0.00  0.00    +0.000 A 
ATOM     17  C   UNL     1      49.495   2.981  17.316  0.00  0.00    +0.000 A 
ATOM     18  C   UNL     1      49.786   4.085  18.116  0.00  0.00    +0.000 A 
ENDBRANCH  12  13
ENDBRANCH  10  12
ENDBRANCH   7  10
ENDBRANCH   1   7
BRANCH   4  19
ATOM     19  C   UNL     1      47.751   7.753  12.185  0.00  0.00    +0.000 C 
BRANCH  19  20
ATOM     20  N   UNL     1      47.039   6.530  11.923  0.00  0.00    +0.000 N 
ATOM     21  C   UNL     1      45.680   6.459  12.093  0.00  0.00    +0.000 C 
ATOM     22  O   UNL     1      45.013   7.431  12.431  0.00  0.00    +0.000 OA
ATOM     23  H   UNL     1      47.586   5.675  11.917  0.00  0.00    +0.000 HD
BRANCH  21  24
ATOM     24  C   UNL     1      45.056   5.171  11.778  0.00  0.00    +0.000 A 
ATOM     25  C   UNL     1      44.381   4.474  12.771  0.00  0.00    +0.000 A 
ATOM     26  S   UNL     1      43.656   3.032  12.221  0.00  0.00    +0.000 S 
ATOM     27  C   UNL     1      44.269   3.259  10.649  0.00  0.00    +0.000 A 
ATOM     28  N   UNL     1      44.033   2.348   9.666  0.00  0.00    +0.000 NA
ATOM     29  C   UNL     1      44.579   2.634   8.532  0.00  0.00    +0.000 A 
ATOM     30  N   UNL     1      45.340   3.747   8.292  0.00  0.00    +0.000 N 
ATOM     31  C   UNL     1      45.586   4.708   9.237  0.00  0.00    +0.000 A 
ATOM     32  O   UNL     1      46.238   5.712   8.985  0.00  0.00    +0.000 OA
ATOM     33  C   UNL     1      45.001   4.429  10.540  0.00  0.00    +0.000 A 
ATOM     34  H   UNL     1      45.731   3.914   7.374  0.00  0.00    +0.000 HD
ENDBRANCH  21  24
ENDBRANCH  19  20
ENDBRANCH   4  19
TORSDOF 8
ENDMDL
MODEL 6
REMARK VINA RESULT:    -7.160      3.539      8.879
REMARK INTER + INTRA:         -11.693
REMARK INTER:                  -9.177
REMARK INTRA:                  -2.516
REMARK UNBOUND:                -1.184
REMARK  Name = 
REMARK  9 active torsions:
REMARK  status: ('A' for Active; 'I' for Inactive)
REMARK    1  A    between atoms: C_1  and  C_2
REMARK    2  A    between atoms: C_2  and  C_3
REMARK    3  A    between atoms: C_3  and  N_4
REMARK    4  A    between atoms: C_3  and  C_12
REMARK    5  A    between atoms: N_4  and  C_5
REMARK    6  A    between atoms: C_5  and  C_6
REMARK    7  A    between atoms: C_15  and  C_16
REMARK    8  A    between atoms: C_16  and  N_17
REMARK    9  A    between atoms: C_18  and  C_20
REMARK                            x       y       z     vdW  Elec       q    Type
REMARK                         _______ _______ _______ _____ _____    ______ ____
ROOT
ATOM      1  C   UNL     1      50.073   6.646  18.676  0.00  0.00    +0.000 A 
ATOM      2  C   UNL     1      50.657   6.181  17.481  0.00  0.00    +0.000 A 
ATOM      3  C   UNL     1      50.214   6.643  16.230  0.00  0.00    +0.000 A 
ATOM      4  C   UNL     1      49.161   7.563  16.140  0.00  0.00    +0.000 A 
ATOM      5  C   UNL     1      48.551   7.995  17.315  0.00  0.00    +0.000 A 
ATOM      6  C   UNL     1      49.036   7.583  18.553  0.00  0.00    +0.000 A 
ENDROOT
BRANCH   1   7
ATOM      7  C   UNL     1      50.558   6.126  20.044  0.00  0.00    +0.000 C 
BRANCH   7   9
ATOM      8  C   UNL     1      52.902   5.151  20.630  0.00  0.00    +0.000 C 
ATOM      9  C   UNL     1      52.071   6.391  20.307  0.00  0.00    +0.000 C 
ENDBRANCH   7   9
BRANCH   7  10
ATOM     10  N   UNL     1      50.264   4.681  20.138  0.00  0.00    +0.000 NA
ATOM     11  H   UNL     1      50.740   4.193  19.380  0.00  0.00    +0.000 HD
BRANCH  10  12
ATOM     12  C   UNL     1      48.844   4.343  20.059  0.00  0.00    +0.000 C 
BRANCH  12  13
ATOM     13  C   UNL     1      48.458   3.843  18.686  0.00  0.00    +0.000 A 
ATOM     14  C   UNL     1      47.376   4.427  18.007  0.00  0.00    +0.000 A 
ATOM     15  C   UNL     1      47.069   4.051  16.700  0.00  0.00    +0.000 A 
ATOM     16  C   UNL     1      47.842   3.087  16.056  0.00  0.00    +0.000 A 
ATOM     17  C   UNL     1      48.911   2.493  16.722  0.00  0.00    +0.000 A 
ATOM     18  C   UNL     1      49.222   2.868  18.028  0.00  0.00    +0.000 A 
ENDBRANCH  12  13
ENDBRANCH  10  12
ENDBRANCH   7  10
ENDBRANCH   1   7
BRANCH   4  19
ATOM     19  C   UNL     1      48.651   8.088  14.828  0.00  0.00    +0.000 C 
BRANCH  19  20
ATOM     20  N   UNL     1      47.579   7.272  14.322  0.00  0.00    +0.000 N 
ATOM     21  C   UNL     1      47.801   6.370  13.312  0.00  0.00    +0.000 C 
ATOM     22  O   UNL     1      48.914   6.191  12.830  0.00  0.00    +0.000 OA
ATOM     23  H   UNL     1      46.634   7.594  14.504  0.00  0.00    +0.000 HD
BRANCH  21  24
ATOM     24  C   UNL     1      46.643   5.577  12.888  0.00  0.00    +0.000 A 
ATOM     25  C   UNL     1      46.668   4.197  13.029  0.00  0.00    +0.000 A 
ATOM     26  S   UNL     1      45.218   3.436  12.553  0.00  0.00    +0.000 S 
ATOM     27  C   UNL     1      44.528   4.921  12.088  0.00  0.00    +0.000 A 
ATOM     28  N   UNL     1      43.275   4.976  11.557  0.00  0.00    +0.000 NA
ATOM     29  C   UNL     1      42.890   6.161  11.225  0.00  0.00    +0.000 A 
ATOM     30  N   UNL     1      43.641   7.296  11.374  0.00  0.00    +0.000 N 
ATOM     31  C   UNL     1      44.895   7.300  11.927  0.00  0.00    +0.000 A 
ATOM     32  O   UNL     1      45.531   8.334  12.083  0.00  0.00    +0.000 OA
ATOM     33  C   UNL     1      45.384   5.984  12.310  0.00  0.00    +0.000 A 
ATOM     34  H   UNL     1      43.272   8.198  11.101  0.00  0.00    +0.000 HD
ENDBRANCH  21  24
ENDBRANCH  19  20
ENDBRANCH   4  19
TORSDOF 8
ENDMDL
MODEL 7
REMARK VINA RESULT:    -7.145      3.505      8.611
REMARK INTER + INTRA:         -11.671
REMARK INTER:                  -9.679
REMARK INTRA:                  -1.992
REMARK UNBOUND:                -1.184
REMARK  Name = 
REMARK  9 active torsions:
REMARK  status: ('A' for Active; 'I' for Inactive)
REMARK    1  A    between atoms: C_1  and  C_2
REMARK    2  A    between atoms: C_2  and  C_3
REMARK    3  A    between atoms: C_3  and  N_4
REMARK    4  A    between atoms: C_3  and  C_12
REMARK    5  A    between atoms: N_4  and  C_5
REMARK    6  A    between atoms: C_5  and  C_6
REMARK    7  A    between atoms: C_15  and  C_16
REMARK    8  A    between atoms: C_16  and  N_17
REMARK    9  A    between atoms: C_18  and  C_20
REMARK                            x       y       z     vdW  Elec       q    Type
REMARK                         _______ _______ _______ _____ _____    ______ ____
ROOT
ATOM      1  C   UNL     1      48.725   8.046  16.234  0.00  0.00    +0.000 A 
ATOM      2  C   UNL     1      49.149   6.938  15.473  0.00  0.00    +0.000 A 
ATOM      3  C   UNL     1      49.058   6.944  14.071  0.00  0.00    +0.000 A 
ATOM      4  C   UNL     1      48.517   8.045  13.395  0.00  0.00    +0.000 A 
ATOM      5  C   UNL     1      48.057   9.126  14.142  0.00  0.00    +0.000 A 
ATOM      6  C   UNL     1      48.209   9.142  15.525  0.00  0.00    +0.000 A 
ENDROOT
BRANCH   1   7
ATOM      7  C   UNL     1      48.819   8.029  17.772  0.00  0.00    +0.000 C 
BRANCH   7   9
ATOM      8  C   UNL     1      51.160   9.027  18.329  0.00  0.00    +0.000 C 
ATOM      9  C   UNL     1      50.265   7.790  18.302  0.00  0.00    +0.000 C 
ENDBRANCH   7   9
BRANCH   7  10
ATOM     10  N   UNL     1      47.902   6.995  18.297  0.00  0.00    +0.000 NA
ATOM     11  H   UNL     1      47.219   7.435  18.911  0.00  0.00    +0.000 HD
BRANCH  10  12
ATOM     12  C   UNL     1      48.558   5.930  19.055  0.00  0.00    +0.000 C 
BRANCH  12  13
ATOM     13  C   UNL     1      48.639   4.644  18.267  0.00  0.00    +0.000 A 
ATOM     14  C   UNL     1      47.556   4.243  17.466  0.00  0.00    +0.000 A 
ATOM     15  C   UNL     1      47.650   3.115  16.652  0.00  0.00    +0.000 A 
ATOM     16  C   UNL     1      48.830   2.374  16.629  0.00  0.00    +0.000 A 
ATOM     17  C   UNL     1      49.907   2.754  17.426  0.00  0.00    +0.000 A 
ATOM     18  C   UNL     1      49.817   3.883  18.239  0.00  0.00    +0.000 A 
ENDBRANCH  12  13
ENDBRANCH  10  12
ENDBRANCH   7  10
ENDBRANCH   1   7
BRANCH   4  19
ATOM     19  C   UNL     1      48.398   8.099  11.898  0.00  0.00    +0.000 C 
BRANCH  19  20
ATOM     20  N   UNL     1      47.668   6.967  11.392  0.00  0.00    +0.000 N 
ATOM     21  C   UNL     1      46.298   6.988  11.328  0.00  0.00    +0.000 C 
ATOM     22  O   UNL     1      45.644   7.972  11.657  0.00  0.00    +0.000 OA
ATOM     23  H   UNL     1      48.155   6.076  11.383  0.00  0.00    +0.000 HD
BRANCH  21  24
ATOM     24  C   UNL     1      45.659   5.789  10.777  0.00  0.00    +0.000 A 
ATOM     25  C   UNL     1      45.782   5.507   9.423  0.00  0.00    +0.000 A 
ATOM     26  S   UNL     1      45.039   4.043   8.961  0.00  0.00    +0.000 S 
ATOM     27  C   UNL     1      44.477   3.766  10.544  0.00  0.00    +0.000 A 
ATOM     28  N   UNL     1      43.727   2.668  10.840  0.00  0.00    +0.000 NA
ATOM     29  C   UNL     1      43.348   2.598  12.071  0.00  0.00    +0.000 A 
ATOM     30  N   UNL     1      43.648   3.525  13.033  0.00  0.00    +0.000 N 
ATOM     31  C   UNL     1      44.420   4.633  12.795  0.00  0.00    +0.000 A 
ATOM     32  O   UNL     1      44.705   5.426  13.683  0.00  0.00    +0.000 OA
ATOM     33  C   UNL     1      44.867   4.766  11.417  0.00  0.00    +0.000 A 
ATOM     34  H   UNL     1      43.325   3.403  13.984  0.00  0.00    +0.000 HD
ENDBRANCH  21  24
ENDBRANCH  19  20
ENDBRANCH   4  19
TORSDOF 8
ENDMDL
MODEL 8
REMARK VINA RESULT:    -7.115      4.017     10.113
REMARK INTER + INTRA:         -11.627
REMARK INTER:                  -9.755
REMARK INTRA:                  -1.872
REMARK UNBOUND:                -1.184
REMARK  Name = 
REMARK  9 active torsions:
REMARK  status: ('A' for Active; 'I' for Inactive)
REMARK    1  A    between atoms: C_1  and  C_2
REMARK    2  A    between atoms: C_2  and  C_3
REMARK    3  A    between atoms: C_3  and  N_4
REMARK    4  A    between atoms: C_3  and  C_12
REMARK    5  A    between atoms: N_4  and  C_5
REMARK    6  A    between atoms: C_5  and  C_6
REMARK    7  A    between atoms: C_15  and  C_16
REMARK    8  A    between atoms: C_16  and  N_17
REMARK    9  A    between atoms: C_18  and  C_20
REMARK                            x       y       z     vdW  Elec       q    Type
REMARK                         _______ _______ _______ _____ _____    ______ ____
ROOT
ATOM      1  C   UNL     1      51.513   3.843  17.625  0.00  0.00    +0.000 A 
ATOM      2  C   UNL     1      50.911   2.573  17.531  0.00  0.00    +0.000 A 
ATOM      3  C   UNL     1      49.536   2.440  17.277  0.00  0.00    +0.000 A 
ATOM      4  C   UNL     1      48.722   3.572  17.138  0.00  0.00    +0.000 A 
ATOM      5  C   UNL     1      49.303   4.830  17.273  0.00  0.00    +0.000 A 
ATOM      6  C   UNL     1      50.675   4.957  17.459  0.00  0.00    +0.000 A 
ENDROOT
BRANCH   1   7
ATOM      7  C   UNL     1      53.021   3.981  17.914  0.00  0.00    +0.000 C 
BRANCH   7   9
ATOM      8  C   UNL     1      54.746   2.099  17.395  0.00  0.00    +0.000 C 
ATOM      9  C   UNL     1      53.693   2.645  18.355  0.00  0.00    +0.000 C 
ENDBRANCH   7   9
BRANCH   7  10
ATOM     10  N   UNL     1      53.219   5.021  18.945  0.00  0.00    +0.000 NA
ATOM     11  H   UNL     1      54.211   5.245  19.007  0.00  0.00    +0.000 HD
BRANCH  10  12
ATOM     12  C   UNL     1      52.766   4.644  20.283  0.00  0.00    +0.000 C 
BRANCH  12  13
ATOM     13  C   UNL     1      51.546   5.427  20.707  0.00  0.00    +0.000 A 
ATOM     14  C   UNL     1      51.512   6.821  20.531  0.00  0.00    +0.000 A 
ATOM     15  C   UNL     1      50.358   7.547  20.820  0.00  0.00    +0.000 A 
ATOM     16  C   UNL     1      49.223   6.888  21.287  0.00  0.00    +0.000 A 
ATOM     17  C   UNL     1      49.246   5.508  21.476  0.00  0.00    +0.000 A 
ATOM     18  C   UNL     1      50.398   4.779  21.186  0.00  0.00    +0.000 A 
ENDBRANCH  12  13
ENDBRANCH  10  12
ENDBRANCH   7  10
ENDBRANCH   1   7
BRANCH   4  19
ATOM     19  C   UNL     1      47.247   3.483  16.866  0.00  0.00    +0.000 C 
BRANCH  19  20
ATOM     20  N   UNL     1      46.832   4.475  15.910  0.00  0.00    +0.000 N 
ATOM     21  C   UNL     1      46.878   4.214  14.564  0.00  0.00    +0.000 C 
ATOM     22  O   UNL     1      47.232   3.126  14.122  0.00  0.00    +0.000 OA
ATOM     23  H   UNL     1      46.807   5.438  16.231  0.00  0.00    +0.000 HD
BRANCH  21  24
ATOM     24  C   UNL     1      46.413   5.287  13.681  0.00  0.00    +0.000 A 
ATOM     25  C   UNL     1      47.234   6.379  13.437  0.00  0.00    +0.000 A 
ATOM     26  S   UNL     1      46.571   7.499  12.336  0.00  0.00    +0.000 S 
ATOM     27  C   UNL     1      45.137   6.592  12.192  0.00  0.00    +0.000 A 
ATOM     28  N   UNL     1      44.114   7.018  11.402  0.00  0.00    +0.000 NA
ATOM     29  C   UNL     1      43.080   6.247  11.408  0.00  0.00    +0.000 A 
ATOM     30  N   UNL     1      42.974   5.089  12.133  0.00  0.00    +0.000 N 
ATOM     31  C   UNL     1      43.984   4.602  12.922  0.00  0.00    +0.000 A 
ATOM     32  O   UNL     1      43.877   3.545  13.529  0.00  0.00    +0.000 OA
ATOM     33  C   UNL     1      45.172   5.441  12.959  0.00  0.00    +0.000 A 
ATOM     34  H   UNL     1      42.136   4.525  12.083  0.00  0.00    +0.000 HD
ENDBRANCH  21  24
ENDBRANCH  19  20
ENDBRANCH   4  19
TORSDOF 8
ENDMDL
MODEL 9
REMARK VINA RESULT:    -6.622      3.568      8.572
REMARK INTER + INTRA:         -10.903
REMARK INTER:                  -8.934
REMARK INTRA:                  -1.969
REMARK UNBOUND:                -1.184
REMARK  Name = 
REMARK  9 active torsions:
REMARK  status: ('A' for Active; 'I' for Inactive)
REMARK    1  A    between atoms: C_1  and  C_2
REMARK    2  A    between atoms: C_2  and  C_3
REMARK    3  A    between atoms: C_3  and  N_4
REMARK    4  A    between atoms: C_3  and  C_12
REMARK    5  A    between atoms: N_4  and  C_5
REMARK    6  A    between atoms: C_5  and  C_6
REMARK    7  A    between atoms: C_15  and  C_16
REMARK    8  A    between atoms: C_16  and  N_17
REMARK    9  A    between atoms: C_18  and  C_20
REMARK                            x       y       z     vdW  Elec       q    Type
REMARK                         _______ _______ _______ _____ _____    ______ ____
ROOT
ATOM      1  C   UNL     1      48.953   7.814  18.035  0.00  0.00    +0.000 A 
ATOM      2  C   UNL     1      49.297   6.929  16.994  0.00  0.00    +0.000 A 
ATOM      3  C   UNL     1      49.020   7.246  15.653  0.00  0.00    +0.000 A 
ATOM      4  C   UNL     1      48.370   8.442  15.321  0.00  0.00    +0.000 A 
ATOM      5  C   UNL     1      47.990   9.301  16.348  0.00  0.00    +0.000 A 
ATOM      6  C   UNL     1      48.324   9.013  17.668  0.00  0.00    +0.000 A 
ENDROOT
BRANCH   1   7
ATOM      7  C   UNL     1      49.251   7.454  19.505  0.00  0.00    +0.000 C 
BRANCH   7   9
ATOM      8  C   UNL     1      51.756   8.132  19.272  0.00  0.00    +0.000 C 
ATOM      9  C   UNL     1      50.746   7.099  19.765  0.00  0.00    +0.000 C 
ENDBRANCH   7   9
BRANCH   7  10
ATOM     10  N   UNL     1      48.378   6.333  19.910  0.00  0.00    +0.000 NA
ATOM     11  H   UNL     1      47.958   6.547  20.814  0.00  0.00    +0.000 HD
BRANCH  10  12
ATOM     12  C   UNL     1      49.060   5.046  20.032  0.00  0.00    +0.000 C 
BRANCH  12  13
ATOM     13  C   UNL     1      48.786   4.148  18.848  0.00  0.00    +0.000 A 
ATOM     14  C   UNL     1      47.513   4.141  18.254  0.00  0.00    +0.000 A 
ATOM     15  C   UNL     1      47.270   3.398  17.099  0.00  0.00    +0.000 A 
ATOM     16  C   UNL     1      48.298   2.655  16.524  0.00  0.00    +0.000 A 
ATOM     17  C   UNL     1      49.562   2.644  17.110  0.00  0.00    +0.000 A 
ATOM     18  C   UNL     1      49.809   3.387  18.263  0.00  0.00    +0.000 A 
ENDBRANCH  12  13
ENDBRANCH  10  12
ENDBRANCH   7  10
ENDBRANCH   1   7
BRANCH   4  19
ATOM     19  C   UNL     1      48.052   8.826  13.904  0.00  0.00    +0.000 C 
BRANCH  19  20
ATOM     20  N   UNL     1      46.842   8.192  13.451  0.00  0.00    +0.000 N 
ATOM     21  C   UNL     1      46.891   7.082  12.647  0.00  0.00    +0.000 C 
ATOM     22  O   UNL     1      47.951   6.563  12.315  0.00  0.00    +0.000 OA
ATOM     23  H   UNL     1      45.994   8.750  13.480  0.00  0.00    +0.000 HD
BRANCH  21  24
ATOM     24  C   UNL     1      45.599   6.505  12.263  0.00  0.00    +0.000 A 
ATOM     25  C   UNL     1      44.618   7.322  11.718  0.00  0.00    +0.000 A 
ATOM     26  S   UNL     1      43.206   6.482  11.263  0.00  0.00    +0.000 S 
ATOM     27  C   UNL     1      43.835   5.006  11.832  0.00  0.00    +0.000 A 
ATOM     28  N   UNL     1      43.103   3.860  11.765  0.00  0.00    +0.000 NA
ATOM     29  C   UNL     1      43.693   2.822  12.256  0.00  0.00    +0.000 A 
ATOM     30  N   UNL     1      44.946   2.826  12.808  0.00  0.00    +0.000 N 
ATOM     31  C   UNL     1      45.735   3.945  12.876  0.00  0.00    +0.000 A 
ATOM     32  O   UNL     1      46.866   3.913  13.341  0.00  0.00    +0.000 OA
ATOM     33  C   UNL     1      45.112   5.148  12.345  0.00  0.00    +0.000 A 
ATOM     34  H   UNL     1      45.354   1.972  13.167  0.00  0.00    +0.000 HD
ENDBRANCH  21  24
ENDBRANCH  19  20
ENDBRANCH   4  19
TORSDOF 8
ENDMDL
