MODEL 1
REMARK VINA RESULT:    -8.429      0.000      0.000
REMARK INTER + INTRA:         -12.910
REMARK INTER:                 -11.879
REMARK INTRA:                  -1.031
REMARK UNBOUND:                -1.031
REMARK  Name = 
REMARK  7 active torsions:
REMARK  status: ('A' for Active; 'I' for Inactive)
REMARK    1  A    between atoms: C_2  and  C_20
REMARK    2  A    between atoms: N_3  and  C_4
REMARK    3  A    between atoms: C_4  and  C_5
REMARK    4  A    between atoms: C_8  and  C_9
REMARK    5  A    between atoms: C_9  and  N_10
REMARK    6  A    between atoms: N_10  and  C_11
REMARK    7  A    between atoms: C_11  and  C_12
REMARK                            x       y       z     vdW  Elec       q    Type
REMARK                         _______ _______ _______ _____ _____    ______ ____
ROOT
ATOM      1  C   UNL     1      46.852   5.817  12.692  0.00  0.00    +0.000 A 
ATOM      2  C   UNL     1      46.217   6.214  11.510  0.00  0.00    +0.000 A 
ATOM      3  C   UNL     1      45.182   5.446  10.972  0.00  0.00    +0.000 A 
ATOM      4  C   UNL     1      44.755   4.268  11.605  0.00  0.00    +0.000 A 
ATOM      5  C   UNL     1      45.372   3.887  12.803  0.00  0.00    +0.000 A 
ATOM      6  C   UNL     1      46.406   4.658  13.345  0.00  0.00    +0.000 A 
ENDROOT
BRANCH   1   7
ATOM      7  C   UNL     1      47.966   6.649  13.269  0.00  0.00    +0.000 C 
BRANCH   7  10
ATOM      8  O   UNL     1      50.180   6.841  14.999  0.00  0.00    +0.000 OA
ATOM      9  C   UNL     1      49.052   6.795  15.478  0.00  0.00    +0.000 C 
ATOM     10  N   UNL     1      47.930   6.629  14.709  0.00  0.00    +0.000 N 
ATOM     11  H   UNL     1      47.018   6.781  15.128  0.00  0.00    +0.000 HD
BRANCH   9  12
ATOM     12  C   UNL     1      48.836   6.857  16.931  0.00  0.00    +0.000 A 
ATOM     13  C   UNL     1      48.513   8.069  17.526  0.00  0.00    +0.000 A 
ATOM     14  S   UNL     1      48.315   7.969  19.217  0.00  0.00    +0.000 S 
ATOM     15  C   UNL     1      48.605   6.292  19.208  0.00  0.00    +0.000 A 
ATOM     16  N   UNL     1      48.552   5.568  20.358  0.00  0.00    +0.000 NA
ATOM     17  C   UNL     1      48.746   4.301  20.200  0.00  0.00    +0.000 A 
ATOM     18  N   UNL     1      49.003   3.694  18.998  0.00  0.00    +0.000 N 
ATOM     19  C   UNL     1      49.144   4.396  17.826  0.00  0.00    +0.000 A 
ATOM     20  O   UNL     1      49.512   3.839  16.797  0.00  0.00    +0.000 OA
ATOM     21  C   UNL     1      48.881   5.820  17.937  0.00  0.00    +0.000 A 
ATOM     22  H   UNL     1      49.179   2.702  18.947  0.00  0.00    +0.000 HD
ENDBRANCH   9  12
ENDBRANCH   7  10
ENDBRANCH   1   7
BRANCH   4  23
ATOM     23  C   UNL     1      43.666   3.418  10.982  0.00  0.00    +0.000 C 
BRANCH  23  24
ATOM     24  N   UNL     1      43.942   3.237   9.563  0.00  0.00    +0.000 NA
ATOM     25  H   UNL     1      44.407   4.070   9.206  0.00  0.00    +0.000 HD
BRANCH  24  26
ATOM     26  C   UNL     1      44.723   2.046   9.246  0.00  0.00    +0.000 C 
BRANCH  26  27
ATOM     27  C   UNL     1      45.949   2.462   8.403  0.00  0.00    +0.000 C 
ATOM     28  C   UNL     1      46.608   1.249   7.727  0.00  0.00    +0.000 C 
ATOM     29  C   UNL     1      47.759   1.698   6.822  0.00  0.00    +0.000 C 
ATOM     30  C   UNL     1      47.314   2.780   5.842  0.00  0.00    +0.000 C 
ATOM     31  N   UNL     1      46.730   3.918   6.546  0.00  0.00    +0.000 NA
ATOM     32  C   UNL     1      45.570   3.512   7.343  0.00  0.00    +0.000 C 
ATOM     33  H   UNL     1      46.437   4.625   5.873  0.00  0.00    +0.000 HD
ENDBRANCH  26  27
ENDBRANCH  24  26
ENDBRANCH  23  24
ENDBRANCH   4  23
TORSDOF 7
ENDMDL
MODEL 2
REMARK VINA RESULT:    -8.404      0.885      1.284
REMARK INTER + INTRA:         -12.874
REMARK INTER:                 -11.624
REMARK INTRA:                  -1.250
REMARK UNBOUND:                -1.031
REMARK  Name = 
REMARK  7 active torsions:
REMARK  status: ('A' for Active; 'I' for Inactive)
REMARK    1  A    between atoms: C_2  and  C_20
REMARK    2  A    between atoms: N_3  and  C_4
REMARK    3  A    between atoms: C_4  and  C_5
REMARK    4  A    between atoms: C_8  and  C_9
REMARK    5  A    between atoms: C_9  and  N_10
REMARK    6  A    between atoms: N_10  and  C_11
REMARK    7  A    between atoms: C_11  and  C_12
REMARK                            x       y       z     vdW  Elec       q    Type
REMARK                         _______ _______ _______ _____ _____    ______ ____
ROOT
ATOM      1  C   UNL     1      46.364   6.275  12.572  0.00  0.00    +0.000 A 
ATOM      2  C   UNL     1      45.820   5.251  13.354  0.00  0.00    +0.000 A 
ATOM      3  C   UNL     1      44.937   4.326  12.793  0.00  0.00    +0.000 A 
ATOM      4  C   UNL     1      44.583   4.400  11.435  0.00  0.00    +0.000 A 
ATOM      5  C   UNL     1      45.151   5.407  10.648  0.00  0.00    +0.000 A 
ATOM      6  C   UNL     1      46.039   6.332  11.207  0.00  0.00    +0.000 A 
ENDROOT
BRANCH   1   7
ATOM      7  C   UNL     1      47.317   7.269  13.181  0.00  0.00    +0.000 C 
BRANCH   7  10
ATOM      8  O   UNL     1      49.931   7.090  14.212  0.00  0.00    +0.000 OA
ATOM      9  C   UNL     1      48.981   6.881  14.958  0.00  0.00    +0.000 C 
ATOM     10  N   UNL     1      47.683   6.877  14.518  0.00  0.00    +0.000 N 
ATOM     11  H   UNL     1      46.931   6.883  15.199  0.00  0.00    +0.000 HD
BRANCH   9  12
ATOM     12  C   UNL     1      49.182   6.558  16.379  0.00  0.00    +0.000 A 
ATOM     13  C   UNL     1      49.729   7.510  17.228  0.00  0.00    +0.000 A 
ATOM     14  S   UNL     1      49.911   6.969  18.835  0.00  0.00    +0.000 S 
ATOM     15  C   UNL     1      49.220   5.459  18.463  0.00  0.00    +0.000 A 
ATOM     16  N   UNL     1      49.050   4.513  19.426  0.00  0.00    +0.000 NA
ATOM     17  C   UNL     1      48.472   3.434  19.016  0.00  0.00    +0.000 A 
ATOM     18  N   UNL     1      48.063   3.207  17.727  0.00  0.00    +0.000 N 
ATOM     19  C   UNL     1      48.288   4.100  16.708  0.00  0.00    +0.000 A 
ATOM     20  O   UNL     1      48.036   3.806  15.544  0.00  0.00    +0.000 OA
ATOM     21  C   UNL     1      48.885   5.357  17.125  0.00  0.00    +0.000 A 
ATOM     22  H   UNL     1      47.648   2.326  17.463  0.00  0.00    +0.000 HD
ENDBRANCH   9  12
ENDBRANCH   7  10
ENDBRANCH   1   7
BRANCH   4  23
ATOM     23  C   UNL     1      43.585   3.419  10.853  0.00  0.00    +0.000 C 
BRANCH  23  24
ATOM     24  N   UNL     1      43.934   3.138   9.466  0.00  0.00    +0.000 NA
ATOM     25  H   UNL     1      44.343   3.973   9.050  0.00  0.00    +0.000 HD
BRANCH  24  26
ATOM     26  C   UNL     1      44.821   1.994   9.285  0.00  0.00    +0.000 C 
BRANCH  26  27
ATOM     27  C   UNL     1      46.017   2.423   8.407  0.00  0.00    +0.000 C 
ATOM     28  C   UNL     1      46.645   1.224   7.679  0.00  0.00    +0.000 C 
ATOM     29  C   UNL     1      47.764   1.688   6.744  0.00  0.00    +0.000 C 
ATOM     30  C   UNL     1      47.289   2.795   5.806  0.00  0.00    +0.000 C 
ATOM     31  N   UNL     1      46.739   3.918   6.557  0.00  0.00    +0.000 NA
ATOM     32  C   UNL     1      45.606   3.500   7.386  0.00  0.00    +0.000 C 
ATOM     33  H   UNL     1      46.425   4.643   5.912  0.00  0.00    +0.000 HD
ENDBRANCH  26  27
ENDBRANCH  24  26
ENDBRANCH  23  24
ENDBRANCH   4  23
TORSDOF 7
ENDMDL
MODEL 3
REMARK VINA RESULT:    -7.787      1.668      2.558
REMARK INTER + INTRA:         -12.005
REMARK INTER:                 -10.834
REMARK INTRA:                  -1.171
REMARK UNBOUND:                -1.031
REMARK  Name = 
REMARK  7 active torsions:
REMARK  status: ('A' for Active; 'I' for Inactive)
REMARK    1  A    between atoms: C_2  and  C_20
REMARK    2  A    between atoms: N_3  and  C_4
REMARK    3  A    between atoms: C_4  and  C_5
REMARK    4  A    between atoms: C_8  and  C_9
REMARK    5  A    between atoms: C_9  and  N_10
REMARK    6  A    between atoms: N_10  and  C_11
REMARK    7  A    between atoms: C_11  and  C_12
REMARK                            x       y       z     vdW  Elec       q    Type
REMARK                         _______ _______ _______ _____ _____    ______ ____
ROOT
ATOM      1  C   UNL     1      47.081   6.127  13.134  0.00  0.00    +0.000 A 
ATOM      2  C   UNL     1      46.228   5.131  13.621  0.00  0.00    +0.000 A 
ATOM      3  C   UNL     1      45.087   4.764  12.904  0.00  0.00    +0.000 A 
ATOM      4  C   UNL     1      44.776   5.380  11.681  0.00  0.00    +0.000 A 
ATOM      5  C   UNL     1      45.645   6.357  11.181  0.00  0.00    +0.000 A 
ATOM      6  C   UNL     1      46.790   6.722  11.896  0.00  0.00    +0.000 A 
ENDROOT
BRANCH   1   7
ATOM      7  C   UNL     1      48.310   6.519  13.909  0.00  0.00    +0.000 C 
BRANCH   7  10
ATOM      8  O   UNL     1      50.217   6.131  15.945  0.00  0.00    +0.000 OA
ATOM      9  C   UNL     1      49.053   6.365  16.255  0.00  0.00    +0.000 C 
ATOM     10  N   UNL     1      48.054   6.494  15.326  0.00  0.00    +0.000 N 
ATOM     11  H   UNL     1      47.156   6.866  15.617  0.00  0.00    +0.000 HD
BRANCH   9  12
ATOM     12  C   UNL     1      48.643   6.464  17.664  0.00  0.00    +0.000 A 
ATOM     13  C   UNL     1      48.737   5.351  18.487  0.00  0.00    +0.000 A 
ATOM     14  S   UNL     1      48.205   5.633  20.082  0.00  0.00    +0.000 S 
ATOM     15  C   UNL     1      47.877   7.268  19.743  0.00  0.00    +0.000 A 
ATOM     16  N   UNL     1      47.413   8.103  20.712  0.00  0.00    +0.000 NA
ATOM     17  C   UNL     1      47.251   9.325  20.329  0.00  0.00    +0.000 A 
ATOM     18  N   UNL     1      47.496   9.786  19.061  0.00  0.00    +0.000 N 
ATOM     19  C   UNL     1      47.887   8.963  18.033  0.00  0.00    +0.000 A 
ATOM     20  O   UNL     1      47.962   9.382  16.883  0.00  0.00    +0.000 OA
ATOM     21  C   UNL     1      48.139   7.587  18.422  0.00  0.00    +0.000 A 
ATOM     22  H   UNL     1      47.317  10.748  18.817  0.00  0.00    +0.000 HD
ENDBRANCH   9  12
ENDBRANCH   7  10
ENDBRANCH   1   7
BRANCH   4  23
ATOM     23  C   UNL     1      43.508   5.007  10.940  0.00  0.00    +0.000 C 
BRANCH  23  24
ATOM     24  N   UNL     1      43.853   4.421   9.651  0.00  0.00    +0.000 NA
ATOM     25  H   UNL     1      44.515   5.032   9.174  0.00  0.00    +0.000 HD
BRANCH  24  26
ATOM     26  C   UNL     1      44.379   3.063   9.724  0.00  0.00    +0.000 C 
BRANCH  26  27
ATOM     27  C   UNL     1      45.669   2.980   8.880  0.00  0.00    +0.000 C 
ATOM     28  C   UNL     1      45.881   1.570   8.305  0.00  0.00    +0.000 C 
ATOM     29  C   UNL     1      47.111   1.539   7.395  0.00  0.00    +0.000 C 
ATOM     30  C   UNL     1      47.052   2.633   6.331  0.00  0.00    +0.000 C 
ATOM     31  N   UNL     1      46.887   3.949   6.942  0.00  0.00    +0.000 NA
ATOM     32  C   UNL     1      45.661   4.016   7.740  0.00  0.00    +0.000 C 
ATOM     33  H   UNL     1      46.847   4.662   6.214  0.00  0.00    +0.000 HD
ENDBRANCH  26  27
ENDBRANCH  24  26
ENDBRANCH  23  24
ENDBRANCH   4  23
TORSDOF 7
ENDMDL
MODEL 4
REMARK VINA RESULT:    -7.631      3.468      5.394
REMARK INTER + INTRA:         -11.786
REMARK INTER:                 -10.791
REMARK INTRA:                  -0.995
REMARK UNBOUND:                -1.031
REMARK  Name = 
REMARK  7 active torsions:
REMARK  status: ('A' for Active; 'I' for Inactive)
REMARK    1  A    between atoms: C_2  and  C_20
REMARK    2  A    between atoms: N_3  and  C_4
REMARK    3  A    between atoms: C_4  and  C_5
REMARK    4  A    between atoms: C_8  and  C_9
REMARK    5  A    between atoms: C_9  and  N_10
REMARK    6  A    between atoms: N_10  and  C_11
REMARK    7  A    between atoms: C_11  and  C_12
REMARK                            x       y       z     vdW  Elec       q    Type
REMARK                         _______ _______ _______ _____ _____    ______ ____
ROOT
ATOM      1  C   UNL     1      46.438   5.175  13.650  0.00  0.00    +0.000 A 
ATOM      2  C   UNL     1      46.676   3.836  13.323  0.00  0.00    +0.000 A 
ATOM      3  C   UNL     1      45.705   3.089  12.652  0.00  0.00    +0.000 A 
ATOM      4  C   UNL     1      44.478   3.666  12.286  0.00  0.00    +0.000 A 
ATOM      5  C   UNL     1      44.253   5.014  12.588  0.00  0.00    +0.000 A 
ATOM      6  C   UNL     1      45.226   5.764  13.257  0.00  0.00    +0.000 A 
ENDROOT
BRANCH   1   7
ATOM      7  C   UNL     1      47.488   5.977  14.372  0.00  0.00    +0.000 C 
BRANCH   7  10
ATOM      8  O   UNL     1      49.079   6.730  12.174  0.00  0.00    +0.000 OA
ATOM      9  C   UNL     1      48.350   7.567  12.696  0.00  0.00    +0.000 C 
ATOM     10  N   UNL     1      47.601   7.299  13.812  0.00  0.00    +0.000 N 
ATOM     11  H   UNL     1      46.883   7.959  14.093  0.00  0.00    +0.000 HD
BRANCH   9  12
ATOM     12  C   UNL     1      48.279   8.944  12.184  0.00  0.00    +0.000 A 
ATOM     13  C   UNL     1      49.423   9.550  11.684  0.00  0.00    +0.000 A 
ATOM     14  S   UNL     1      49.170  11.150  11.150  0.00  0.00    +0.000 S 
ATOM     15  C   UNL     1      47.512  11.072  11.522  0.00  0.00    +0.000 A 
ATOM     16  N   UNL     1      46.690  12.126  11.273  0.00  0.00    +0.000 NA
ATOM     17  C   UNL     1      45.449  11.914  11.561  0.00  0.00    +0.000 A 
ATOM     18  N   UNL     1      44.957  10.749  12.090  0.00  0.00    +0.000 N 
ATOM     19  C   UNL     1      45.762   9.690  12.431  0.00  0.00    +0.000 A 
ATOM     20  O   UNL     1      45.309   8.720  13.031  0.00  0.00    +0.000 OA
ATOM     21  C   UNL     1      47.161   9.853  12.077  0.00  0.00    +0.000 A 
ATOM     22  H   UNL     1      43.980  10.659  12.324  0.00  0.00    +0.000 HD
ENDBRANCH   9  12
ENDBRANCH   7  10
ENDBRANCH   1   7
BRANCH   4  23
ATOM     23  C   UNL     1      43.415   2.829  11.604  0.00  0.00    +0.000 C 
BRANCH  23  24
ATOM     24  N   UNL     1      43.945   2.292  10.357  0.00  0.00    +0.000 NA
ATOM     25  H   UNL     1      43.257   1.662   9.947  0.00  0.00    +0.000 HD
BRANCH  24  26
ATOM     26  C   UNL     1      44.348   3.303   9.386  0.00  0.00    +0.000 C 
BRANCH  26  27
ATOM     27  C   UNL     1      45.687   2.875   8.745  0.00  0.00    +0.000 C 
ATOM     28  C   UNL     1      45.679   1.388   8.356  0.00  0.00    +0.000 C 
ATOM     29  C   UNL     1      46.978   1.013   7.637  0.00  0.00    +0.000 C 
ATOM     30  C   UNL     1      47.264   1.952   6.468  0.00  0.00    +0.000 C 
ATOM     31  N   UNL     1      47.294   3.343   6.908  0.00  0.00    +0.000 NA
ATOM     32  C   UNL     1      46.020   3.737   7.514  0.00  0.00    +0.000 C 
ATOM     33  H   UNL     1      47.483   3.951   6.111  0.00  0.00    +0.000 HD
ENDBRANCH  26  27
ENDBRANCH  24  26
ENDBRANCH  23  24
ENDBRANCH   4  23
TORSDOF 7
ENDMDL
MODEL 5
REMARK VINA RESULT:    -7.578      1.612      2.258
REMARK INTER + INTRA:         -11.710
REMARK INTER:                 -10.768
REMARK INTRA:                  -0.942
REMARK UNBOUND:                -1.031
REMARK  Name = 
REMARK  7 active torsions:
REMARK  status: ('A' for Active; 'I' for Inactive)
REMARK    1  A    between atoms: C_2  and  C_20
REMARK    2  A    between atoms: N_3  and  C_4
REMARK    3  A    between atoms: C_4  and  C_5
REMARK    4  A    between atoms: C_8  and  C_9
REMARK    5  A    between atoms: C_9  and  N_10
REMARK    6  A    between atoms: N_10  and  C_11
REMARK    7  A    between atoms: C_11  and  C_12
REMARK                            x       y       z     vdW  Elec       q    Type
REMARK                         _______ _______ _______ _____ _____    ______ ____
ROOT
ATOM      1  C   UNL     1      46.979   6.155  12.835  0.00  0.00    +0.000 A 
ATOM      2  C   UNL     1      46.681   6.722  11.592  0.00  0.00    +0.000 A 
ATOM      3  C   UNL     1      45.568   6.292  10.868  0.00  0.00    +0.000 A 
ATOM      4  C   UNL     1      44.723   5.289  11.372  0.00  0.00    +0.000 A 
ATOM      5  C   UNL     1      45.007   4.743  12.630  0.00  0.00    +0.000 A 
ATOM      6  C   UNL     1      46.119   5.176  13.358  0.00  0.00    +0.000 A 
ENDROOT
BRANCH   1   7
ATOM      7  C   UNL     1      48.180   6.623  13.614  0.00  0.00    +0.000 C 
BRANCH   7  10
ATOM      8  O   UNL     1      49.511   7.671  15.863  0.00  0.00    +0.000 OA
ATOM      9  C   UNL     1      48.803   6.679  15.998  0.00  0.00    +0.000 C 
ATOM     10  N   UNL     1      48.181   6.067  14.942  0.00  0.00    +0.000 N 
ATOM     11  H   UNL     1      47.467   5.370  15.127  0.00  0.00    +0.000 HD
BRANCH   9  12
ATOM     12  C   UNL     1      48.623   6.043  17.312  0.00  0.00    +0.000 A 
ATOM     13  C   UNL     1      48.915   4.695  17.468  0.00  0.00    +0.000 A 
ATOM     14  S   UNL     1      48.634   4.113  19.046  0.00  0.00    +0.000 S 
ATOM     15  C   UNL     1      48.160   5.653  19.590  0.00  0.00    +0.000 A 
ATOM     16  N   UNL     1      47.812   5.859  20.889  0.00  0.00    +0.000 NA
ATOM     17  C   UNL     1      47.518   7.083  21.175  0.00  0.00    +0.000 A 
ATOM     18  N   UNL     1      47.526   8.119  20.277  0.00  0.00    +0.000 N 
ATOM     19  C   UNL     1      47.792   7.942  18.941  0.00  0.00    +0.000 A 
ATOM     20  O   UNL     1      47.653   8.863  18.142  0.00  0.00    +0.000 OA
ATOM     21  C   UNL     1      48.184   6.593  18.574  0.00  0.00    +0.000 A 
ATOM     22  H   UNL     1      47.253   9.049  20.557  0.00  0.00    +0.000 HD
ENDBRANCH   9  12
ENDBRANCH   7  10
ENDBRANCH   1   7
BRANCH   4  23
ATOM     23  C   UNL     1      43.548   4.797  10.552  0.00  0.00    +0.000 C 
BRANCH  23  24
ATOM     24  N   UNL     1      44.030   4.256   9.288  0.00  0.00    +0.000 NA
ATOM     25  H   UNL     1      44.772   4.855   8.931  0.00  0.00    +0.000 HD
BRANCH  24  26
ATOM     26  C   UNL     1      44.484   2.872   9.357  0.00  0.00    +0.000 C 
BRANCH  26  27
ATOM     27  C   UNL     1      45.312   2.554   8.092  0.00  0.00    +0.000 C 
ATOM     28  C   UNL     1      46.104   3.781   7.610  0.00  0.00    +0.000 C 
ATOM     29  C   UNL     1      46.988   3.415   6.416  0.00  0.00    +0.000 C 
ATOM     30  C   UNL     1      47.863   2.199   6.715  0.00  0.00    +0.000 C 
ATOM     31  N   UNL     1      47.051   1.060   7.132  0.00  0.00    +0.000 NA
ATOM     32  C   UNL     1      46.270   1.373   8.331  0.00  0.00    +0.000 C 
ATOM     33  H   UNL     1      47.655   0.263   7.330  0.00  0.00    +0.000 HD
ENDBRANCH  26  27
ENDBRANCH  24  26
ENDBRANCH  23  24
ENDBRANCH   4  23
TORSDOF 7
ENDMDL
MODEL 6
REMARK VINA RESULT:    -7.406      1.821      2.279
REMARK INTER + INTRA:         -11.468
REMARK INTER:                 -10.501
REMARK INTRA:                  -0.967
REMARK UNBOUND:                -1.031
REMARK  Name = 
REMARK  7 active torsions:
REMARK  status: ('A' for Active; 'I' for Inactive)
REMARK    1  A    between atoms: C_2  and  C_20
REMARK    2  A    between atoms: N_3  and  C_4
REMARK    3  A    between atoms: C_4  and  C_5
REMARK    4  A    between atoms: C_8  and  C_9
REMARK    5  A    between atoms: C_9  and  N_10
REMARK    6  A    between atoms: N_10  and  C_11
REMARK    7  A    between atoms: C_11  and  C_12
REMARK                            x       y       z     vdW  Elec       q    Type
REMARK                         _______ _______ _______ _____ _____    ______ ____
ROOT
ATOM      1  C   UNL     1      46.779   6.271  12.661  0.00  0.00    +0.000 A 
ATOM      2  C   UNL     1      46.497   6.484  11.308  0.00  0.00    +0.000 A 
ATOM      3  C   UNL     1      45.463   5.785  10.683  0.00  0.00    +0.000 A 
ATOM      4  C   UNL     1      44.683   4.861  11.397  0.00  0.00    +0.000 A 
ATOM      5  C   UNL     1      44.948   4.670  12.758  0.00  0.00    +0.000 A 
ATOM      6  C   UNL     1      45.981   5.372  13.387  0.00  0.00    +0.000 A 
ENDROOT
BRANCH   1   7
ATOM      7  C   UNL     1      47.895   7.028  13.332  0.00  0.00    +0.000 C 
BRANCH   7  10
ATOM      8  O   UNL     1      48.821   8.089  15.770  0.00  0.00    +0.000 OA
ATOM      9  C   UNL     1      48.798   6.872  15.620  0.00  0.00    +0.000 C 
ATOM     10  N   UNL     1      48.430   6.280  14.440  0.00  0.00    +0.000 N 
ATOM     11  H   UNL     1      48.251   5.282  14.424  0.00  0.00    +0.000 HD
BRANCH   9  12
ATOM     12  C   UNL     1      49.226   5.962  16.694  0.00  0.00    +0.000 A 
ATOM     13  C   UNL     1      48.272   5.274  17.431  0.00  0.00    +0.000 A 
ATOM     14  S   UNL     1      48.934   4.277  18.645  0.00  0.00    +0.000 S 
ATOM     15  C   UNL     1      50.523   4.693  18.198  0.00  0.00    +0.000 A 
ATOM     16  N   UNL     1      51.593   4.149  18.837  0.00  0.00    +0.000 NA
ATOM     17  C   UNL     1      52.738   4.515  18.365  0.00  0.00    +0.000 A 
ATOM     18  N   UNL     1      52.910   5.389  17.323  0.00  0.00    +0.000 N 
ATOM     19  C   UNL     1      51.861   6.023  16.703  0.00  0.00    +0.000 A 
ATOM     20  O   UNL     1      52.058   6.902  15.870  0.00  0.00    +0.000 OA
ATOM     21  C   UNL     1      50.547   5.604  17.157  0.00  0.00    +0.000 A 
ATOM     22  H   UNL     1      53.834   5.662  17.023  0.00  0.00    +0.000 HD
ENDBRANCH   9  12
ENDBRANCH   7  10
ENDBRANCH   1   7
BRANCH   4  23
ATOM     23  C   UNL     1      43.597   4.073  10.693  0.00  0.00    +0.000 C 
BRANCH  23  24
ATOM     24  N   UNL     1      44.068   3.665   9.376  0.00  0.00    +0.000 NA
ATOM     25  H   UNL     1      44.571   4.441   8.948  0.00  0.00    +0.000 HD
BRANCH  24  26
ATOM     26  C   UNL     1      44.895   2.464   9.374  0.00  0.00    +0.000 C 
BRANCH  26  27
ATOM     27  C   UNL     1      45.549   2.309   7.983  0.00  0.00    +0.000 C 
ATOM     28  C   UNL     1      46.205   3.618   7.516  0.00  0.00    +0.000 C 
ATOM     29  C   UNL     1      46.927   3.411   6.182  0.00  0.00    +0.000 C 
ATOM     30  C   UNL     1      47.891   2.229   6.242  0.00  0.00    +0.000 C 
ATOM     31  N   UNL     1      47.201   1.011   6.655  0.00  0.00    +0.000 NA
ATOM     32  C   UNL     1      46.585   1.170   7.975  0.00  0.00    +0.000 C 
ATOM     33  H   UNL     1      47.863   0.237   6.692  0.00  0.00    +0.000 HD
ENDBRANCH  26  27
ENDBRANCH  24  26
ENDBRANCH  23  24
ENDBRANCH   4  23
TORSDOF 7
ENDMDL
MODEL 7
REMARK VINA RESULT:    -7.389      3.961      5.729
REMARK INTER + INTRA:         -11.444
REMARK INTER:                 -10.212
REMARK INTRA:                  -1.232
REMARK UNBOUND:                -1.031
REMARK  Name = 
REMARK  7 active torsions:
REMARK  status: ('A' for Active; 'I' for Inactive)
REMARK    1  A    between atoms: C_2  and  C_20
REMARK    2  A    between atoms: N_3  and  C_4
REMARK    3  A    between atoms: C_4  and  C_5
REMARK    4  A    between atoms: C_8  and  C_9
REMARK    5  A    between atoms: C_9  and  N_10
REMARK    6  A    between atoms: N_10  and  C_11
REMARK    7  A    between atoms: C_11  and  C_12
REMARK                            x       y       z     vdW  Elec       q    Type
REMARK                         _______ _______ _______ _____ _____    ______ ____
ROOT
ATOM      1  C   UNL     1      46.852   5.743  12.673  0.00  0.00    +0.000 A 
ATOM      2  C   UNL     1      46.410   4.563  13.279  0.00  0.00    +0.000 A 
ATOM      3  C   UNL     1      45.381   3.815  12.703  0.00  0.00    +0.000 A 
ATOM      4  C   UNL     1      44.776   4.226  11.504  0.00  0.00    +0.000 A 
ATOM      5  C   UNL     1      45.239   5.392  10.884  0.00  0.00    +0.000 A 
ATOM      6  C   UNL     1      46.272   6.140  11.458  0.00  0.00    +0.000 A 
ENDROOT
BRANCH   1   7
ATOM      7  C   UNL     1      47.962   6.546  13.297  0.00  0.00    +0.000 C 
BRANCH   7  10
ATOM      8  O   UNL     1      47.891   9.270  14.007  0.00  0.00    +0.000 OA
ATOM      9  C   UNL     1      48.326   8.953  12.906  0.00  0.00    +0.000 C 
ATOM     10  N   UNL     1      48.328   7.657  12.458  0.00  0.00    +0.000 N 
ATOM     11  H   UNL     1      48.861   7.424  11.627  0.00  0.00    +0.000 HD
BRANCH   9  12
ATOM     12  C   UNL     1      48.827   9.964  11.962  0.00  0.00    +0.000 A 
ATOM     13  C   UNL     1      48.094  11.122  11.744  0.00  0.00    +0.000 A 
ATOM     14  S   UNL     1      48.806  12.177  10.609  0.00  0.00    +0.000 S 
ATOM     15  C   UNL     1      50.144  11.147  10.406  0.00  0.00    +0.000 A 
ATOM     16  N   UNL     1      51.165  11.483   9.573  0.00  0.00    +0.000 NA
ATOM     17  C   UNL     1      52.137  10.633   9.549  0.00  0.00    +0.000 A 
ATOM     18  N   UNL     1      52.174   9.469  10.272  0.00  0.00    +0.000 N 
ATOM     19  C   UNL     1      51.131   9.051  11.062  0.00  0.00    +0.000 A 
ATOM     20  O   UNL     1      51.139   7.940  11.582  0.00  0.00    +0.000 OA
ATOM     21  C   UNL     1      50.035   9.997  11.169  0.00  0.00    +0.000 A 
ATOM     22  H   UNL     1      52.949   8.829  10.183  0.00  0.00    +0.000 HD
ENDBRANCH   9  12
ENDBRANCH   7  10
ENDBRANCH   1   7
BRANCH   4  23
ATOM     23  C   UNL     1      43.627   3.431  10.917  0.00  0.00    +0.000 C 
BRANCH  23  24
ATOM     24  N   UNL     1      43.893   3.157   9.511  0.00  0.00    +0.000 NA
ATOM     25  H   UNL     1      44.293   3.989   9.080  0.00  0.00    +0.000 HD
BRANCH  24  26
ATOM     26  C   UNL     1      44.750   2.001   9.272  0.00  0.00    +0.000 C 
BRANCH  26  27
ATOM     27  C   UNL     1      45.964   2.445   8.427  0.00  0.00    +0.000 C 
ATOM     28  C   UNL     1      46.634   1.252   7.727  0.00  0.00    +0.000 C 
ATOM     29  C   UNL     1      47.773   1.729   6.822  0.00  0.00    +0.000 C 
ATOM     30  C   UNL     1      47.308   2.822   5.862  0.00  0.00    +0.000 C 
ATOM     31  N   UNL     1      46.716   3.940   6.589  0.00  0.00    +0.000 NA
ATOM     32  C   UNL     1      45.565   3.507   7.387  0.00  0.00    +0.000 C 
ATOM     33  H   UNL     1      46.410   4.655   5.929  0.00  0.00    +0.000 HD
ENDBRANCH  26  27
ENDBRANCH  24  26
ENDBRANCH  23  24
ENDBRANCH   4  23
TORSDOF 7
ENDMDL
MODEL 8
REMARK VINA RESULT:    -7.344      2.105      2.624
REMARK INTER + INTRA:         -11.381
REMARK INTER:                 -10.125
REMARK INTRA:                  -1.256
REMARK UNBOUND:                -1.031
REMARK  Name = 
REMARK  7 active torsions:
REMARK  status: ('A' for Active; 'I' for Inactive)
REMARK    1  A    between atoms: C_2  and  C_20
REMARK    2  A    between atoms: N_3  and  C_4
REMARK    3  A    between atoms: C_4  and  C_5
REMARK    4  A    between atoms: C_8  and  C_9
REMARK    5  A    between atoms: C_9  and  N_10
REMARK    6  A    between atoms: N_10  and  C_11
REMARK    7  A    between atoms: C_11  and  C_12
REMARK                            x       y       z     vdW  Elec       q    Type
REMARK                         _______ _______ _______ _____ _____    ______ ____
ROOT
ATOM      1  C   UNL     1      47.315   6.587  12.732  0.00  0.00    +0.000 A 
ATOM      2  C   UNL     1      46.088   7.211  12.488  0.00  0.00    +0.000 A 
ATOM      3  C   UNL     1      44.892   6.511  12.659  0.00  0.00    +0.000 A 
ATOM      4  C   UNL     1      44.895   5.173  13.086  0.00  0.00    +0.000 A 
ATOM      5  C   UNL     1      46.123   4.558  13.357  0.00  0.00    +0.000 A 
ATOM      6  C   UNL     1      47.321   5.259  13.190  0.00  0.00    +0.000 A 
ENDROOT
BRANCH   1   7
ATOM      7  C   UNL     1      48.602   7.346  12.547  0.00  0.00    +0.000 C 
BRANCH   7  10
ATOM      8  O   UNL     1      49.743   9.009  14.511  0.00  0.00    +0.000 OA
ATOM      9  C   UNL     1      50.031   7.817  14.500  0.00  0.00    +0.000 C 
ATOM     10  N   UNL     1      49.575   6.957  13.535  0.00  0.00    +0.000 N 
ATOM     11  H   UNL     1      49.688   5.958  13.672  0.00  0.00    +0.000 HD
BRANCH   9  12
ATOM     12  C   UNL     1      50.941   7.242  15.501  0.00  0.00    +0.000 A 
ATOM     13  C   UNL     1      52.272   7.633  15.524  0.00  0.00    +0.000 A 
ATOM     14  S   UNL     1      53.192   6.858  16.733  0.00  0.00    +0.000 S 
ATOM     15  C   UNL     1      51.831   6.008  17.301  0.00  0.00    +0.000 A 
ATOM     16  N   UNL     1      51.927   5.169  18.368  0.00  0.00    +0.000 NA
ATOM     17  C   UNL     1      50.810   4.626  18.721  0.00  0.00    +0.000 A 
ATOM     18  N   UNL     1      49.609   4.832  18.094  0.00  0.00    +0.000 N 
ATOM     19  C   UNL     1      49.481   5.606  16.966  0.00  0.00    +0.000 A 
ATOM     20  O   UNL     1      48.421   5.655  16.351  0.00  0.00    +0.000 OA
ATOM     21  C   UNL     1      50.698   6.287  16.558  0.00  0.00    +0.000 A 
ATOM     22  H   UNL     1      48.776   4.350  18.398  0.00  0.00    +0.000 HD
ENDBRANCH   9  12
ENDBRANCH   7  10
ENDBRANCH   1   7
BRANCH   4  23
ATOM     23  C   UNL     1      43.592   4.411  13.219  0.00  0.00    +0.000 C 
BRANCH  23  24
ATOM     24  N   UNL     1      43.770   3.053  12.722  0.00  0.00    +0.000 NA
ATOM     25  H   UNL     1      43.313   2.403  13.360  0.00  0.00    +0.000 HD
BRANCH  24  26
ATOM     26  C   UNL     1      43.297   2.841  11.359  0.00  0.00    +0.000 C 
BRANCH  26  27
ATOM     27  C   UNL     1      44.451   3.141  10.377  0.00  0.00    +0.000 C 
ATOM     28  C   UNL     1      44.680   1.978   9.398  0.00  0.00    +0.000 C 
ATOM     29  C   UNL     1      45.761   2.339   8.377  0.00  0.00    +0.000 C 
ATOM     30  C   UNL     1      45.462   3.670   7.689  0.00  0.00    +0.000 C 
ATOM     31  N   UNL     1      45.291   4.739   8.668  0.00  0.00    +0.000 NA
ATOM     32  C   UNL     1      44.195   4.442   9.594  0.00  0.00    +0.000 C 
ATOM     33  H   UNL     1      45.089   5.615   8.188  0.00  0.00    +0.000 HD
ENDBRANCH  26  27
ENDBRANCH  24  26
ENDBRANCH  23  24
ENDBRANCH   4  23
TORSDOF 7
ENDMDL
MODEL 9
REMARK VINA RESULT:    -7.331      2.739      4.586
REMARK INTER + INTRA:         -11.362
REMARK INTER:                 -10.150
REMARK INTRA:                  -1.212
REMARK UNBOUND:                -1.031
REMARK  Name = 
REMARK  7 active torsions:
REMARK  status: ('A' for Active; 'I' for Inactive)
REMARK    1  A    between atoms: C_2  and  C_20
REMARK    2  A    between atoms: N_3  and  C_4
REMARK    3  A    between atoms: C_4  and  C_5
REMARK    4  A    between atoms: C_8  and  C_9
REMARK    5  A    between atoms: C_9  and  N_10
REMARK    6  A    between atoms: N_10  and  C_11
REMARK    7  A    between atoms: C_11  and  C_12
REMARK                            x       y       z     vdW  Elec       q    Type
REMARK                         _______ _______ _______ _____ _____    ______ ____
ROOT
ATOM      1  C   UNL     1      46.541   5.066  13.574  0.00  0.00    +0.000 A 
ATOM      2  C   UNL     1      46.229   3.735  13.278  0.00  0.00    +0.000 A 
ATOM      3  C   UNL     1      45.226   3.433  12.355  0.00  0.00    +0.000 A 
ATOM      4  C   UNL     1      44.517   4.454  11.701  0.00  0.00    +0.000 A 
ATOM      5  C   UNL     1      44.851   5.785  11.977  0.00  0.00    +0.000 A 
ATOM      6  C   UNL     1      45.858   6.089  12.899  0.00  0.00    +0.000 A 
ENDROOT
BRANCH   1   7
ATOM      7  C   UNL     1      47.624   5.387  14.570  0.00  0.00    +0.000 C 
BRANCH   7  10
ATOM      8  O   UNL     1      50.047   6.572  15.378  0.00  0.00    +0.000 OA
ATOM      9  C   UNL     1      49.164   7.282  14.908  0.00  0.00    +0.000 C 
ATOM     10  N   UNL     1      47.932   6.793  14.559  0.00  0.00    +0.000 N 
ATOM     11  H   UNL     1      47.309   7.376  14.010  0.00  0.00    +0.000 HD
BRANCH   9  12
ATOM     12  C   UNL     1      49.356   8.731  14.743  0.00  0.00    +0.000 A 
ATOM     13  C   UNL     1      49.725   9.504  15.835  0.00  0.00    +0.000 A 
ATOM     14  S   UNL     1      49.887  11.163  15.474  0.00  0.00    +0.000 S 
ATOM     15  C   UNL     1      49.517  10.900  13.834  0.00  0.00    +0.000 A 
ATOM     16  N   UNL     1      49.513  11.929  12.945  0.00  0.00    +0.000 NA
ATOM     17  C   UNL     1      49.262  11.581  11.728  0.00  0.00    +0.000 A 
ATOM     18  N   UNL     1      48.998  10.299  11.320  0.00  0.00    +0.000 N 
ATOM     19  C   UNL     1      48.912   9.244  12.195  0.00  0.00    +0.000 A 
ATOM     20  O   UNL     1      48.537   8.139  11.816  0.00  0.00    +0.000 OA
ATOM     21  C   UNL     1      49.242   9.569  13.571  0.00  0.00    +0.000 A 
ATOM     22  H   UNL     1      48.775  10.098  10.357  0.00  0.00    +0.000 HD
ENDBRANCH   9  12
ENDBRANCH   7  10
ENDBRANCH   1   7
BRANCH   4  23
ATOM     23  C   UNL     1      43.398   4.111  10.739  0.00  0.00    +0.000 C 
BRANCH  23  24
ATOM     24  N   UNL     1      43.914   3.258   9.677  0.00  0.00    +0.000 NA
ATOM     25  H   UNL     1      43.169   2.642   9.354  0.00  0.00    +0.000 HD
BRANCH  24  26
ATOM     26  C   UNL     1      44.499   3.979   8.552  0.00  0.00    +0.000 C 
BRANCH  26  27
ATOM     27  C   UNL     1      45.297   2.984   7.681  0.00  0.00    +0.000 C 
ATOM     28  C   UNL     1      46.434   3.683   6.918  0.00  0.00    +0.000 C 
ATOM     29  C   UNL     1      47.268   2.662   6.140  0.00  0.00    +0.000 C 
ATOM     30  C   UNL     1      47.743   1.523   7.039  0.00  0.00    +0.000 C 
ATOM     31  N   UNL     1      46.616   0.877   7.705  0.00  0.00    +0.000 NA
ATOM     32  C   UNL     1      45.866   1.830   8.527  0.00  0.00    +0.000 C 
ATOM     33  H   UNL     1      46.956   0.123   8.301  0.00  0.00    +0.000 HD
ENDBRANCH  26  27
ENDBRANCH  24  26
ENDBRANCH  23  24
ENDBRANCH   4  23
TORSDOF 7
ENDMDL
