MODEL 1
REMARK VINA RESULT:    -8.375      0.000      0.000
REMARK INTER + INTRA:         -12.790
REMARK INTER:                 -11.803
REMARK INTRA:                  -0.987
REMARK UNBOUND:                -0.987
REMARK  Name = 
REMARK  7 active torsions:
REMARK  status: ('A' for Active; 'I' for Inactive)
REMARK    1  A    between atoms: C_2  and  C_4
REMARK    2  A    between atoms: C_7  and  O_8
REMARK    3  A    between atoms: O_8  and  C_9
REMARK    4  A    between atoms: C_9  and  C_10
REMARK    5  A    between atoms: C_10  and  C_11
REMARK    6  A    between atoms: C_15  and  O_16
REMARK    7  A    between atoms: O_16  and  C_17
REMARK                            x       y       z     vdW  Elec       q    Type
REMARK                         _______ _______ _______ _____ _____    ______ ____
ROOT
ATOM      1  C   UNL     1      43.267   4.042  11.170  0.00  0.00    +0.000 C 
ENDROOT
BRANCH   1   2
ATOM      2  O   UNL     1      43.657   4.705   9.957  0.00  0.00    +0.000 OA
BRANCH   2   6
ATOM      3  C   UNL     1      46.377   2.466   7.811  0.00  0.00    +0.000 A 
ATOM      4  C   UNL     1      45.517   1.831   8.711  0.00  0.00    +0.000 A 
ATOM      5  C   UNL     1      44.601   2.600   9.435  0.00  0.00    +0.000 A 
ATOM      6  C   UNL     1      44.578   3.971   9.234  0.00  0.00    +0.000 A 
ATOM      7  N   UNL     1      45.406   4.608   8.377  0.00  0.00    +0.000 NA
ATOM      8  C   UNL     1      46.291   3.847   7.694  0.00  0.00    +0.000 A 
BRANCH   3  10
ATOM      9  N   UNL     1      48.434   2.491   6.517  0.00  0.00    +0.000 N 
ATOM     10  C   UNL     1      47.382   1.761   6.990  0.00  0.00    +0.000 C 
ATOM     11  O   UNL     1      47.304   0.559   6.780  0.00  0.00    +0.000 OA
ATOM     12  H   UNL     1      49.173   1.962   6.069  0.00  0.00    +0.000 HD
ATOM     13  H   UNL     1      48.669   3.405   6.878  0.00  0.00    +0.000 HD
ENDBRANCH   3  10
ENDBRANCH   2   6
ENDBRANCH   1   2
BRANCH   1  14
ATOM     14  C   UNL     1      43.369   5.026  12.336  0.00  0.00    +0.000 C 
BRANCH  14  15
ATOM     15  C   UNL     1      44.793   5.239  12.788  0.00  0.00    +0.000 A 
ATOM     16  C   UNL     1      45.460   6.435  12.501  0.00  0.00    +0.000 A 
ATOM     17  C   UNL     1      46.772   6.636  12.936  0.00  0.00    +0.000 A 
ATOM     18  C   UNL     1      47.441   5.639  13.653  0.00  0.00    +0.000 A 
ATOM     19  C   UNL     1      46.798   4.435  13.921  0.00  0.00    +0.000 A 
ATOM     20  C   UNL     1      45.479   4.239  13.493  0.00  0.00    +0.000 A 
BRANCH  19  21
ATOM     21  O   UNL     1      47.345   3.397  14.635  0.00  0.00    +0.000 OA
BRANCH  21  22
ATOM     22  C   UNL     1      48.026   3.675  15.878  0.00  0.00    +0.000 C 
ATOM     23  C   UNL     1      48.596   2.463  16.654  0.00  0.00    +0.000 C 
ATOM     24  C   UNL     1      47.930   2.986  17.933  0.00  0.00    +0.000 C 
ATOM     25  C   UNL     1      47.070   3.917  17.072  0.00  0.00    +0.000 C 
ENDBRANCH  21  22
ENDBRANCH  19  21
ENDBRANCH  14  15
ENDBRANCH   1  14
TORSDOF 7
ENDMDL
MODEL 2
REMARK VINA RESULT:    -7.205      2.560      3.349
REMARK INTER + INTRA:         -11.140
REMARK INTER:                 -10.441
REMARK INTRA:                  -0.699
REMARK UNBOUND:                -0.987
REMARK  Name = 
REMARK  7 active torsions:
REMARK  status: ('A' for Active; 'I' for Inactive)
REMARK    1  A    between atoms: C_2  and  C_4
REMARK    2  A    between atoms: C_7  and  O_8
REMARK    3  A    between atoms: O_8  and  C_9
REMARK    4  A    between atoms: C_9  and  C_10
REMARK    5  A    between atoms: C_10  and  C_11
REMARK    6  A    between atoms: C_15  and  O_16
REMARK    7  A    between atoms: O_16  and  C_17
REMARK                            x       y       z     vdW  Elec       q    Type
REMARK                         _______ _______ _______ _____ _____    ______ ____
ROOT
ATOM      1  C   UNL     1      44.081   3.158  11.800  0.00  0.00    +0.000 C 
ENDROOT
BRANCH   1   2
ATOM      2  O   UNL     1      43.549   3.294  10.472  0.00  0.00    +0.000 OA
BRANCH   2   6
ATOM      3  C   UNL     1      46.421   2.689   7.575  0.00  0.00    +0.000 A 
ATOM      4  C   UNL     1      46.006   3.990   7.874  0.00  0.00    +0.000 A 
ATOM      5  C   UNL     1      45.030   4.183   8.856  0.00  0.00    +0.000 A 
ATOM      6  C   UNL     1      44.506   3.073   9.501  0.00  0.00    +0.000 A 
ATOM      7  N   UNL     1      44.885   1.807   9.221  0.00  0.00    +0.000 NA
ATOM      8  C   UNL     1      45.823   1.642   8.261  0.00  0.00    +0.000 A 
BRANCH   3  10
ATOM      9  N   UNL     1      47.374   3.011   5.363  0.00  0.00    +0.000 N 
ATOM     10  C   UNL     1      47.445   2.362   6.561  0.00  0.00    +0.000 C 
ATOM     11  O   UNL     1      48.349   1.574   6.799  0.00  0.00    +0.000 OA
ATOM     12  H   UNL     1      48.157   2.867   4.735  0.00  0.00    +0.000 HD
ATOM     13  H   UNL     1      46.814   3.841   5.223  0.00  0.00    +0.000 HD
ENDBRANCH   3  10
ENDBRANCH   2   6
ENDBRANCH   1   2
BRANCH   1  14
ATOM     14  C   UNL     1      43.591   4.323  12.659  0.00  0.00    +0.000 C 
BRANCH  14  15
ATOM     15  C   UNL     1      44.416   5.573  12.462  0.00  0.00    +0.000 A 
ATOM     16  C   UNL     1      43.971   6.593  11.613  0.00  0.00    +0.000 A 
ATOM     17  C   UNL     1      44.728   7.754  11.446  0.00  0.00    +0.000 A 
ATOM     18  C   UNL     1      45.946   7.908  12.114  0.00  0.00    +0.000 A 
ATOM     19  C   UNL     1      46.412   6.890  12.940  0.00  0.00    +0.000 A 
ATOM     20  C   UNL     1      45.647   5.730  13.114  0.00  0.00    +0.000 A 
BRANCH  19  21
ATOM     21  O   UNL     1      47.578   6.939  13.663  0.00  0.00    +0.000 OA
BRANCH  21  22
ATOM     22  C   UNL     1      48.844   6.864  12.969  0.00  0.00    +0.000 C 
ATOM     23  C   UNL     1      49.814   8.058  13.146  0.00  0.00    +0.000 C 
ATOM     24  C   UNL     1      49.996   8.117  11.624  0.00  0.00    +0.000 C 
ATOM     25  C   UNL     1      48.754   7.232  11.468  0.00  0.00    +0.000 C 
ENDBRANCH  21  22
ENDBRANCH  19  21
ENDBRANCH  14  15
ENDBRANCH   1  14
TORSDOF 7
ENDMDL
MODEL 3
REMARK VINA RESULT:    -7.012      3.228      7.975
REMARK INTER + INTRA:         -10.869
REMARK INTER:                  -9.970
REMARK INTRA:                  -0.899
REMARK UNBOUND:                -0.987
REMARK  Name = 
REMARK  7 active torsions:
REMARK  status: ('A' for Active; 'I' for Inactive)
REMARK    1  A    between atoms: C_2  and  C_4
REMARK    2  A    between atoms: C_7  and  O_8
REMARK    3  A    between atoms: O_8  and  C_9
REMARK    4  A    between atoms: C_9  and  C_10
REMARK    5  A    between atoms: C_10  and  C_11
REMARK    6  A    between atoms: C_15  and  O_16
REMARK    7  A    between atoms: O_16  and  C_17
REMARK                            x       y       z     vdW  Elec       q    Type
REMARK                         _______ _______ _______ _____ _____    ______ ____
ROOT
ATOM      1  C   UNL     1      46.058   6.590  12.755  0.00  0.00    +0.000 C 
ENDROOT
BRANCH   1   2
ATOM      2  O   UNL     1      47.357   5.989  12.880  0.00  0.00    +0.000 OA
BRANCH   2   6
ATOM      3  C   UNL     1      48.115   4.698  16.724  0.00  0.00    +0.000 A 
ATOM      4  C   UNL     1      47.249   3.966  15.908  0.00  0.00    +0.000 A 
ATOM      5  C   UNL     1      46.996   4.414  14.608  0.00  0.00    +0.000 A 
ATOM      6  C   UNL     1      47.618   5.574  14.172  0.00  0.00    +0.000 A 
ATOM      7  N   UNL     1      48.452   6.303  14.946  0.00  0.00    +0.000 NA
ATOM      8  C   UNL     1      48.674   5.858  16.203  0.00  0.00    +0.000 A 
BRANCH   3  10
ATOM      9  N   UNL     1      47.812   3.250  18.651  0.00  0.00    +0.000 N 
ATOM     10  C   UNL     1      48.460   4.323  18.111  0.00  0.00    +0.000 C 
ATOM     11  O   UNL     1      49.324   4.920  18.737  0.00  0.00    +0.000 OA
ATOM     12  H   UNL     1      48.155   2.934  19.551  0.00  0.00    +0.000 HD
ATOM     13  H   UNL     1      47.296   2.586  18.093  0.00  0.00    +0.000 HD
ENDBRANCH   3  10
ENDBRANCH   2   6
ENDBRANCH   1   2
BRANCH   1  14
ATOM     14  C   UNL     1      45.665   6.634  11.279  0.00  0.00    +0.000 C 
BRANCH  14  15
ATOM     15  C   UNL     1      45.198   5.294  10.766  0.00  0.00    +0.000 A 
ATOM     16  C   UNL     1      44.547   4.393  11.616  0.00  0.00    +0.000 A 
ATOM     17  C   UNL     1      44.101   3.161  11.134  0.00  0.00    +0.000 A 
ATOM     18  C   UNL     1      44.311   2.805   9.798  0.00  0.00    +0.000 A 
ATOM     19  C   UNL     1      44.981   3.680   8.950  0.00  0.00    +0.000 A 
ATOM     20  C   UNL     1      45.419   4.919   9.432  0.00  0.00    +0.000 A 
BRANCH  19  21
ATOM     21  O   UNL     1      45.223   3.449   7.618  0.00  0.00    +0.000 OA
BRANCH  21  22
ATOM     22  C   UNL     1      46.588   3.340   7.155  0.00  0.00    +0.000 C 
ATOM     23  C   UNL     1      46.802   3.153   5.634  0.00  0.00    +0.000 C 
ATOM     24  C   UNL     1      47.746   1.979   5.925  0.00  0.00    +0.000 C 
ATOM     25  C   UNL     1      47.203   1.933   7.358  0.00  0.00    +0.000 C 
ENDBRANCH  21  22
ENDBRANCH  19  21
ENDBRANCH  14  15
ENDBRANCH   1  14
TORSDOF 7
ENDMDL
MODEL 4
REMARK VINA RESULT:    -6.975      2.162      3.878
REMARK INTER + INTRA:         -10.816
REMARK INTER:                  -9.921
REMARK INTRA:                  -0.895
REMARK UNBOUND:                -0.987
REMARK  Name = 
REMARK  7 active torsions:
REMARK  status: ('A' for Active; 'I' for Inactive)
REMARK    1  A    between atoms: C_2  and  C_4
REMARK    2  A    between atoms: C_7  and  O_8
REMARK    3  A    between atoms: O_8  and  C_9
REMARK    4  A    between atoms: C_9  and  C_10
REMARK    5  A    between atoms: C_10  and  C_11
REMARK    6  A    between atoms: C_15  and  O_16
REMARK    7  A    between atoms: O_16  and  C_17
REMARK                            x       y       z     vdW  Elec       q    Type
REMARK                         _______ _______ _______ _____ _____    ______ ____
ROOT
ATOM      1  C   UNL     1      44.064   4.069  11.346  0.00  0.00    +0.000 C 
ENDROOT
BRANCH   1   2
ATOM      2  O   UNL     1      43.678   3.104  10.354  0.00  0.00    +0.000 OA
BRANCH   2   6
ATOM      3  C   UNL     1      46.440   2.742   7.313  0.00  0.00    +0.000 A 
ATOM      4  C   UNL     1      46.071   1.613   8.048  0.00  0.00    +0.000 A 
ATOM      5  C   UNL     1      45.136   1.747   9.079  0.00  0.00    +0.000 A 
ATOM      6  C   UNL     1      44.606   3.002   9.336  0.00  0.00    +0.000 A 
ATOM      7  N   UNL     1      44.954   4.109   8.644  0.00  0.00    +0.000 NA
ATOM      8  C   UNL     1      45.868   3.959   7.659  0.00  0.00    +0.000 A 
BRANCH   3  10
ATOM      9  N   UNL     1      48.713   2.436   6.509  0.00  0.00    +0.000 N 
ATOM     10  C   UNL     1      47.414   2.723   6.202  0.00  0.00    +0.000 C 
ATOM     11  O   UNL     1      47.066   2.912   5.046  0.00  0.00    +0.000 OA
ATOM     12  H   UNL     1      49.335   2.302   5.720  0.00  0.00    +0.000 HD
ATOM     13  H   UNL     1      48.988   2.027   7.391  0.00  0.00    +0.000 HD
ENDBRANCH   3  10
ENDBRANCH   2   6
ENDBRANCH   1   2
BRANCH   1  14
ATOM     14  C   UNL     1      45.104   3.445  12.276  0.00  0.00    +0.000 C 
BRANCH  14  15
ATOM     15  C   UNL     1      46.018   4.476  12.893  0.00  0.00    +0.000 A 
ATOM     16  C   UNL     1      46.610   4.247  14.141  0.00  0.00    +0.000 A 
ATOM     17  C   UNL     1      47.468   5.195  14.701  0.00  0.00    +0.000 A 
ATOM     18  C   UNL     1      47.738   6.391  14.030  0.00  0.00    +0.000 A 
ATOM     19  C   UNL     1      47.135   6.642  12.801  0.00  0.00    +0.000 A 
ATOM     20  C   UNL     1      46.282   5.686  12.236  0.00  0.00    +0.000 A 
BRANCH  19  21
ATOM     21  O   UNL     1      47.343   7.767  12.042  0.00  0.00    +0.000 OA
BRANCH  21  22
ATOM     22  C   UNL     1      48.471   8.620  12.336  0.00  0.00    +0.000 C 
ATOM     23  C   UNL     1      48.542   9.974  11.590  0.00  0.00    +0.000 C 
ATOM     24  C   UNL     1      50.000   9.677  11.217  0.00  0.00    +0.000 C 
ATOM     25  C   UNL     1      49.771   8.211  11.600  0.00  0.00    +0.000 C 
ENDBRANCH  21  22
ENDBRANCH  19  21
ENDBRANCH  14  15
ENDBRANCH   1  14
TORSDOF 7
ENDMDL
MODEL 5
REMARK VINA RESULT:    -6.969      3.496      8.256
REMARK INTER + INTRA:         -10.808
REMARK INTER:                 -10.094
REMARK INTRA:                  -0.714
REMARK UNBOUND:                -0.987
REMARK  Name = 
REMARK  7 active torsions:
REMARK  status: ('A' for Active; 'I' for Inactive)
REMARK    1  A    between atoms: C_2  and  C_4
REMARK    2  A    between atoms: C_7  and  O_8
REMARK    3  A    between atoms: O_8  and  C_9
REMARK    4  A    between atoms: C_9  and  C_10
REMARK    5  A    between atoms: C_10  and  C_11
REMARK    6  A    between atoms: C_15  and  O_16
REMARK    7  A    between atoms: O_16  and  C_17
REMARK                            x       y       z     vdW  Elec       q    Type
REMARK                         _______ _______ _______ _____ _____    ______ ____
ROOT
ATOM      1  C   UNL     1      47.281   5.782  13.324  0.00  0.00    +0.000 C 
ENDROOT
BRANCH   1   2
ATOM      2  O   UNL     1      46.735   4.671  14.055  0.00  0.00    +0.000 OA
BRANCH   2   6
ATOM      3  C   UNL     1      48.344   4.424  17.844  0.00  0.00    +0.000 A 
ATOM      4  C   UNL     1      48.741   5.458  16.993  0.00  0.00    +0.000 A 
ATOM      5  C   UNL     1      48.191   5.531  15.709  0.00  0.00    +0.000 A 
ATOM      6  C   UNL     1      47.268   4.570  15.326  0.00  0.00    +0.000 A 
ATOM      7  N   UNL     1      46.877   3.557  16.129  0.00  0.00    +0.000 NA
ATOM      8  C   UNL     1      47.429   3.499  17.362  0.00  0.00    +0.000 A 
BRANCH   3  10
ATOM      9  N   UNL     1      48.320   3.232  19.962  0.00  0.00    +0.000 N 
ATOM     10  C   UNL     1      48.853   4.246  19.220  0.00  0.00    +0.000 C 
ATOM     11  O   UNL     1      49.749   4.949  19.665  0.00  0.00    +0.000 OA
ATOM     12  H   UNL     1      48.773   3.049  20.850  0.00  0.00    +0.000 HD
ATOM     13  H   UNL     1      47.780   2.482  19.553  0.00  0.00    +0.000 HD
ENDBRANCH   3  10
ENDBRANCH   2   6
ENDBRANCH   1   2
BRANCH   1  14
ATOM     14  C   UNL     1      46.137   6.600  12.726  0.00  0.00    +0.000 C 
BRANCH  14  15
ATOM     15  C   UNL     1      45.339   5.819  11.710  0.00  0.00    +0.000 A 
ATOM     16  C   UNL     1      44.064   5.337  12.024  0.00  0.00    +0.000 A 
ATOM     17  C   UNL     1      43.321   4.630  11.077  0.00  0.00    +0.000 A 
ATOM     18  C   UNL     1      43.847   4.384   9.805  0.00  0.00    +0.000 A 
ATOM     19  C   UNL     1      45.124   4.835   9.489  0.00  0.00    +0.000 A 
ATOM     20  C   UNL     1      45.864   5.552  10.437  0.00  0.00    +0.000 A 
BRANCH  19  21
ATOM     21  O   UNL     1      45.733   4.673   8.269  0.00  0.00    +0.000 OA
BRANCH  21  22
ATOM     22  C   UNL     1      45.625   3.403   7.588  0.00  0.00    +0.000 C 
ATOM     23  C   UNL     1      46.105   2.149   8.358  0.00  0.00    +0.000 C 
ATOM     24  C   UNL     1      46.926   1.728   7.132  0.00  0.00    +0.000 C 
ATOM     25  C   UNL     1      46.763   3.144   6.569  0.00  0.00    +0.000 C 
ENDBRANCH  21  22
ENDBRANCH  19  21
ENDBRANCH  14  15
ENDBRANCH   1  14
TORSDOF 7
ENDMDL
MODEL 6
REMARK VINA RESULT:    -6.590      3.712      8.369
REMARK INTER + INTRA:         -10.274
REMARK INTER:                  -9.702
REMARK INTRA:                  -0.572
REMARK UNBOUND:                -0.987
REMARK  Name = 
REMARK  7 active torsions:
REMARK  status: ('A' for Active; 'I' for Inactive)
REMARK    1  A    between atoms: C_2  and  C_4
REMARK    2  A    between atoms: C_7  and  O_8
REMARK    3  A    between atoms: O_8  and  C_9
REMARK    4  A    between atoms: C_9  and  C_10
REMARK    5  A    between atoms: C_10  and  C_11
REMARK    6  A    between atoms: C_15  and  O_16
REMARK    7  A    between atoms: O_16  and  C_17
REMARK                            x       y       z     vdW  Elec       q    Type
REMARK                         _______ _______ _______ _____ _____    ______ ____
ROOT
ATOM      1  C   UNL     1      47.030   4.487  13.937  0.00  0.00    +0.000 C 
ENDROOT
BRANCH   1   2
ATOM      2  O   UNL     1      46.571   4.204  15.269  0.00  0.00    +0.000 OA
BRANCH   2   6
ATOM      3  C   UNL     1      49.636   4.176  18.028  0.00  0.00    +0.000 A 
ATOM      4  C   UNL     1      48.707   3.132  18.019  0.00  0.00    +0.000 A 
ATOM      5  C   UNL     1      47.670   3.153  17.080  0.00  0.00    +0.000 A 
ATOM      6  C   UNL     1      47.601   4.213  16.190  0.00  0.00    +0.000 A 
ATOM      7  N   UNL     1      48.482   5.237  16.186  0.00  0.00    +0.000 NA
ATOM      8  C   UNL     1      49.471   5.202  17.108  0.00  0.00    +0.000 A 
BRANCH   3  10
ATOM      9  N   UNL     1      50.498   4.612  20.258  0.00  0.00    +0.000 N 
ATOM     10  C   UNL     1      50.773   4.261  18.968  0.00  0.00    +0.000 C 
ATOM     11  O   UNL     1      51.911   3.983  18.619  0.00  0.00    +0.000 OA
ATOM     12  H   UNL     1      51.270   4.539  20.911  0.00  0.00    +0.000 HD
ATOM     13  H   UNL     1      49.563   4.594  20.641  0.00  0.00    +0.000 HD
ENDBRANCH   3  10
ENDBRANCH   2   6
ENDBRANCH   1   2
BRANCH   1  14
ATOM     14  C   UNL     1      46.099   5.514  13.293  0.00  0.00    +0.000 C 
BRANCH  14  15
ATOM     15  C   UNL     1      45.237   4.910  12.209  0.00  0.00    +0.000 A 
ATOM     16  C   UNL     1      44.046   4.250  12.531  0.00  0.00    +0.000 A 
ATOM     17  C   UNL     1      43.243   3.708  11.526  0.00  0.00    +0.000 A 
ATOM     18  C   UNL     1      43.625   3.807  10.184  0.00  0.00    +0.000 A 
ATOM     19  C   UNL     1      44.820   4.437   9.853  0.00  0.00    +0.000 A 
ATOM     20  C   UNL     1      45.619   4.988  10.862  0.00  0.00    +0.000 A 
BRANCH  19  21
ATOM     21  O   UNL     1      45.284   4.614   8.573  0.00  0.00    +0.000 OA
BRANCH  21  22
ATOM     22  C   UNL     1      45.446   3.463   7.714  0.00  0.00    +0.000 C 
ATOM     23  C   UNL     1      45.889   2.141   8.385  0.00  0.00    +0.000 C 
ATOM     24  C   UNL     1      46.977   1.979   7.316  0.00  0.00    +0.000 C 
ATOM     25  C   UNL     1      46.785   3.451   6.935  0.00  0.00    +0.000 C 
ENDBRANCH  21  22
ENDBRANCH  19  21
ENDBRANCH  14  15
ENDBRANCH   1  14
TORSDOF 7
ENDMDL
MODEL 7
REMARK VINA RESULT:    -6.018      2.896      4.421
REMARK INTER + INTRA:          -9.467
REMARK INTER:                  -8.357
REMARK INTRA:                  -1.110
REMARK UNBOUND:                -0.987
REMARK  Name = 
REMARK  7 active torsions:
REMARK  status: ('A' for Active; 'I' for Inactive)
REMARK    1  A    between atoms: C_2  and  C_4
REMARK    2  A    between atoms: C_7  and  O_8
REMARK    3  A    between atoms: O_8  and  C_9
REMARK    4  A    between atoms: C_9  and  C_10
REMARK    5  A    between atoms: C_10  and  C_11
REMARK    6  A    between atoms: C_15  and  O_16
REMARK    7  A    between atoms: O_16  and  C_17
REMARK                            x       y       z     vdW  Elec       q    Type
REMARK                         _______ _______ _______ _____ _____    ______ ____
ROOT
ATOM      1  C   UNL     1      46.793   8.539  12.255  0.00  0.00    +0.000 C 
ENDROOT
BRANCH   1   2
ATOM      2  O   UNL     1      45.963   7.821  13.183  0.00  0.00    +0.000 OA
BRANCH   2   6
ATOM      3  C   UNL     1      44.606   4.234  11.665  0.00  0.00    +0.000 A 
ATOM      4  C   UNL     1      45.442   4.237  12.784  0.00  0.00    +0.000 A 
ATOM      5  C   UNL     1      45.899   5.459  13.289  0.00  0.00    +0.000 A 
ATOM      6  C   UNL     1      45.504   6.628  12.658  0.00  0.00    +0.000 A 
ATOM      7  N   UNL     1      44.704   6.649  11.570  0.00  0.00    +0.000 NA
ATOM      8  C   UNL     1      44.282   5.456  11.092  0.00  0.00    +0.000 A 
BRANCH   3  10
ATOM      9  N   UNL     1      44.830   2.381  10.109  0.00  0.00    +0.000 N 
ATOM     10  C   UNL     1      44.060   3.009  11.046  0.00  0.00    +0.000 C 
ATOM     11  O   UNL     1      42.982   2.547  11.389  0.00  0.00    +0.000 OA
ATOM     12  H   UNL     1      44.494   1.478   9.794  0.00  0.00    +0.000 HD
ATOM     13  H   UNL     1      45.813   2.577   9.990  0.00  0.00    +0.000 HD
ENDBRANCH   3  10
ENDBRANCH   2   6
ENDBRANCH   1   2
BRANCH   1  14
ATOM     14  C   UNL     1      48.262   8.289  12.598  0.00  0.00    +0.000 C 
BRANCH  14  15
ATOM     15  C   UNL     1      48.488   8.125  14.082  0.00  0.00    +0.000 A 
ATOM     16  C   UNL     1      48.285   9.198  14.956  0.00  0.00    +0.000 A 
ATOM     17  C   UNL     1      48.478   9.039  16.329  0.00  0.00    +0.000 A 
ATOM     18  C   UNL     1      48.890   7.808  16.848  0.00  0.00    +0.000 A 
ATOM     19  C   UNL     1      49.122   6.741  15.987  0.00  0.00    +0.000 A 
ATOM     20  C   UNL     1      48.918   6.899  14.611  0.00  0.00    +0.000 A 
BRANCH  19  21
ATOM     21  O   UNL     1      49.505   5.483  16.383  0.00  0.00    +0.000 OA
BRANCH  21  22
ATOM     22  C   UNL     1      48.701   4.770  17.349  0.00  0.00    +0.000 C 
ATOM     23  C   UNL     1      49.023   3.271  17.563  0.00  0.00    +0.000 C 
ATOM     24  C   UNL     1      47.532   2.943  17.407  0.00  0.00    +0.000 C 
ATOM     25  C   UNL     1      47.316   4.337  16.808  0.00  0.00    +0.000 C 
ENDBRANCH  21  22
ENDBRANCH  19  21
ENDBRANCH  14  15
ENDBRANCH   1  14
TORSDOF 7
ENDMDL
MODEL 8
REMARK VINA RESULT:    -5.991      3.249      6.271
REMARK INTER + INTRA:          -9.430
REMARK INTER:                  -8.742
REMARK INTRA:                  -0.688
REMARK UNBOUND:                -0.987
REMARK  Name = 
REMARK  7 active torsions:
REMARK  status: ('A' for Active; 'I' for Inactive)
REMARK    1  A    between atoms: C_2  and  C_4
REMARK    2  A    between atoms: C_7  and  O_8
REMARK    3  A    between atoms: O_8  and  C_9
REMARK    4  A    between atoms: C_9  and  C_10
REMARK    5  A    between atoms: C_10  and  C_11
REMARK    6  A    between atoms: C_15  and  O_16
REMARK    7  A    between atoms: O_16  and  C_17
REMARK                            x       y       z     vdW  Elec       q    Type
REMARK                         _______ _______ _______ _____ _____    ______ ____
ROOT
ATOM      1  C   UNL     1      47.406   3.817  15.858  0.00  0.00    +0.000 C 
ENDROOT
BRANCH   1   2
ATOM      2  O   UNL     1      47.634   3.407  14.500  0.00  0.00    +0.000 OA
BRANCH   2   6
ATOM      3  C   UNL     1      44.781   4.912  11.929  0.00  0.00    +0.000 A 
ATOM      4  C   UNL     1      45.580   5.791  12.664  0.00  0.00    +0.000 A 
ATOM      5  C   UNL     1      46.543   5.270  13.535  0.00  0.00    +0.000 A 
ATOM      6  C   UNL     1      46.670   3.894  13.638  0.00  0.00    +0.000 A 
ATOM      7  N   UNL     1      45.902   3.025  12.945  0.00  0.00    +0.000 NA
ATOM      8  C   UNL     1      44.971   3.550  12.117  0.00  0.00    +0.000 A 
BRANCH   3  10
ATOM      9  N   UNL     1      43.791   4.841   9.711  0.00  0.00    +0.000 N 
ATOM     10  C   UNL     1      43.736   5.344  10.979  0.00  0.00    +0.000 C 
ATOM     11  O   UNL     1      42.827   6.086  11.324  0.00  0.00    +0.000 OA
ATOM     12  H   UNL     1      42.996   5.048   9.118  0.00  0.00    +0.000 HD
ATOM     13  H   UNL     1      44.358   4.042   9.465  0.00  0.00    +0.000 HD
ENDBRANCH   3  10
ENDBRANCH   2   6
ENDBRANCH   1   2
BRANCH   1  14
ATOM     14  C   UNL     1      48.098   2.835  16.802  0.00  0.00    +0.000 C 
BRANCH  14  15
ATOM     15  C   UNL     1      48.978   3.530  17.814  0.00  0.00    +0.000 A 
ATOM     16  C   UNL     1      50.358   3.631  17.608  0.00  0.00    +0.000 A 
ATOM     17  C   UNL     1      51.166   4.290  18.537  0.00  0.00    +0.000 A 
ATOM     18  C   UNL     1      50.608   4.847  19.691  0.00  0.00    +0.000 A 
ATOM     19  C   UNL     1      49.241   4.730  19.921  0.00  0.00    +0.000 A 
ATOM     20  C   UNL     1      48.431   4.077  18.984  0.00  0.00    +0.000 A 
BRANCH  19  21
ATOM     21  O   UNL     1      48.581   5.256  21.004  0.00  0.00    +0.000 OA
BRANCH  21  22
ATOM     22  C   UNL     1      47.585   6.282  20.795  0.00  0.00    +0.000 C 
ATOM     23  C   UNL     1      48.001   7.503  19.941  0.00  0.00    +0.000 C 
ATOM     24  C   UNL     1      47.446   8.435  21.027  0.00  0.00    +0.000 C 
ATOM     25  C   UNL     1      47.425   7.247  21.996  0.00  0.00    +0.000 C 
ENDBRANCH  21  22
ENDBRANCH  19  21
ENDBRANCH  14  15
ENDBRANCH   1  14
TORSDOF 7
ENDMDL
MODEL 9
REMARK VINA RESULT:    -5.809      3.941      5.805
REMARK INTER + INTRA:          -9.174
REMARK INTER:                  -8.195
REMARK INTRA:                  -0.979
REMARK UNBOUND:                -0.987
REMARK  Name = 
REMARK  7 active torsions:
REMARK  status: ('A' for Active; 'I' for Inactive)
REMARK    1  A    between atoms: C_2  and  C_4
REMARK    2  A    between atoms: C_7  and  O_8
REMARK    3  A    between atoms: O_8  and  C_9
REMARK    4  A    between atoms: C_9  and  C_10
REMARK    5  A    between atoms: C_10  and  C_11
REMARK    6  A    between atoms: C_15  and  O_16
REMARK    7  A    between atoms: O_16  and  C_17
REMARK                            x       y       z     vdW  Elec       q    Type
REMARK                         _______ _______ _______ _____ _____    ______ ____
ROOT
ATOM      1  C   UNL     1      49.258   7.801  13.560  0.00  0.00    +0.000 C 
ENDROOT
BRANCH   1   2
ATOM      2  O   UNL     1      49.119   6.528  12.910  0.00  0.00    +0.000 OA
BRANCH   2   6
ATOM      3  C   UNL     1      45.232   5.151  12.979  0.00  0.00    +0.000 A 
ATOM      4  C   UNL     1      45.607   6.112  12.036  0.00  0.00    +0.000 A 
ATOM      5  C   UNL     1      46.927   6.574  12.024  0.00  0.00    +0.000 A 
ATOM      6  C   UNL     1      47.820   6.059  12.951  0.00  0.00    +0.000 A 
ATOM      7  N   UNL     1      47.477   5.137  13.877  0.00  0.00    +0.000 NA
ATOM      8  C   UNL     1      46.193   4.712  13.878  0.00  0.00    +0.000 A 
BRANCH   3  10
ATOM      9  N   UNL     1      42.832   5.467  13.203  0.00  0.00    +0.000 N 
ATOM     10  C   UNL     1      43.870   4.587  13.087  0.00  0.00    +0.000 C 
ATOM     11  O   UNL     1      43.672   3.383  13.028  0.00  0.00    +0.000 OA
ATOM     12  H   UNL     1      41.904   5.064  13.146  0.00  0.00    +0.000 HD
ATOM     13  H   UNL     1      42.925   6.451  12.997  0.00  0.00    +0.000 HD
ENDBRANCH   3  10
ENDBRANCH   2   6
ENDBRANCH   1   2
BRANCH   1  14
ATOM     14  C   UNL     1      50.258   7.673  14.709  0.00  0.00    +0.000 C 
BRANCH  14  15
ATOM     15  C   UNL     1      49.580   7.525  16.050  0.00  0.00    +0.000 A 
ATOM     16  C   UNL     1      48.747   8.536  16.541  0.00  0.00    +0.000 A 
ATOM     17  C   UNL     1      48.107   8.390  17.774  0.00  0.00    +0.000 A 
ATOM     18  C   UNL     1      48.302   7.236  18.540  0.00  0.00    +0.000 A 
ATOM     19  C   UNL     1      49.149   6.235  18.074  0.00  0.00    +0.000 A 
ATOM     20  C   UNL     1      49.782   6.380  16.834  0.00  0.00    +0.000 A 
BRANCH  19  21
ATOM     21  O   UNL     1      49.397   5.053  18.726  0.00  0.00    +0.000 OA
BRANCH  21  22
ATOM     22  C   UNL     1      48.571   3.901  18.441  0.00  0.00    +0.000 C 
ATOM     23  C   UNL     1      49.160   2.832  17.490  0.00  0.00    +0.000 C 
ATOM     24  C   UNL     1      47.857   2.853  16.681  0.00  0.00    +0.000 C 
ATOM     25  C   UNL     1      47.479   4.166  17.376  0.00  0.00    +0.000 C 
ENDBRANCH  21  22
ENDBRANCH  19  21
ENDBRANCH  14  15
ENDBRANCH   1  14
TORSDOF 7
ENDMDL
