MODEL 1
REMARK VINA RESULT:    -8.475      0.000      0.000
REMARK INTER + INTRA:         -13.629
REMARK INTER:                 -12.439
REMARK INTRA:                  -1.190
REMARK UNBOUND:                -1.190
REMARK  Name = 
REMARK  9 active torsions:
REMARK  status: ('A' for Active; 'I' for Inactive)
REMARK    1  A    between atoms: C_1  and  C_2
REMARK    2  A    between atoms: C_2  and  N_3
REMARK    3  A    between atoms: C_2  and  C_20
REMARK    4  A    between atoms: N_3  and  C_4
REMARK    5  A    between atoms: C_4  and  C_5
REMARK    6  A    between atoms: C_8  and  C_9
REMARK    7  A    between atoms: C_9  and  N_10
REMARK    8  A    between atoms: N_10  and  C_11
REMARK    9  A    between atoms: C_11  and  C_12
REMARK                            x       y       z     vdW  Elec       q    Type
REMARK                         _______ _______ _______ _____ _____    ______ ____
ROOT
ATOM      1  C   UNL     1      47.398   4.952  14.941  0.00  0.00    +0.000 C 
ENDROOT
BRANCH   1   2
ATOM      2  C   UNL     1      46.450   4.739  13.786  0.00  0.00    +0.000 A 
ATOM      3  C   UNL     1      46.223   3.468  13.244  0.00  0.00    +0.000 A 
ATOM      4  C   UNL     1      45.319   3.304  12.189  0.00  0.00    +0.000 A 
ATOM      5  C   UNL     1      44.613   4.400  11.668  0.00  0.00    +0.000 A 
ATOM      6  C   UNL     1      44.831   5.665  12.223  0.00  0.00    +0.000 A 
ATOM      7  C   UNL     1      45.739   5.832  13.267  0.00  0.00    +0.000 A 
BRANCH   5   8
ATOM      8  C   UNL     1      43.654   4.231  10.512  0.00  0.00    +0.000 C 
BRANCH   8   9
ATOM      9  N   UNL     1      44.175   3.287   9.528  0.00  0.00    +0.000 NA
ATOM     10  H   UNL     1      43.392   2.789   9.104  0.00  0.00    +0.000 HD
BRANCH   9  11
ATOM     11  C   UNL     1      44.930   3.969   8.481  0.00  0.00    +0.000 C 
BRANCH  11  12
ATOM     12  C   UNL     1      45.895   3.021   7.811  0.00  0.00    +0.000 A 
ATOM     13  C   UNL     1      46.629   3.421   6.691  0.00  0.00    +0.000 A 
ATOM     14  C   UNL     1      47.496   2.513   6.104  0.00  0.00    +0.000 A 
ATOM     15  N   UNL     1      47.682   1.252   6.547  0.00  0.00    +0.000 NA
ATOM     16  C   UNL     1      46.967   0.884   7.632  0.00  0.00    +0.000 A 
ATOM     17  C   UNL     1      46.079   1.721   8.292  0.00  0.00    +0.000 A 
ENDBRANCH  11  12
ENDBRANCH   9  11
ENDBRANCH   8   9
ENDBRANCH   5   8
ENDBRANCH   1   2
BRANCH   1  18
ATOM     18  N   UNL     1      47.827   3.696  15.564  0.00  0.00    +0.000 NA
ATOM     19  H   UNL     1      47.138   2.979  15.340  0.00  0.00    +0.000 HD
BRANCH  18  21
ATOM     20  C   UNL     1      46.982   4.918  17.575  0.00  0.00    +0.000 C 
ATOM     21  C   UNL     1      47.901   3.814  17.029  0.00  0.00    +0.000 C 
BRANCH  21  22
ATOM     22  C   UNL     1      49.335   4.097  17.438  0.00  0.00    +0.000 A 
ATOM     23  C   UNL     1      49.812   5.269  18.009  0.00  0.00    +0.000 A 
ATOM     24  S   UNL     1      51.456   5.176  18.473  0.00  0.00    +0.000 S 
ATOM     25  C   UNL     1      51.576   3.558  17.951  0.00  0.00    +0.000 A 
ATOM     26  N   UNL     1      52.709   2.828  18.136  0.00  0.00    +0.000 NA
ATOM     27  C   UNL     1      52.622   1.602  17.729  0.00  0.00    +0.000 A 
ATOM     28  N   UNL     1      51.523   1.051  17.124  0.00  0.00    +0.000 N 
ATOM     29  C   UNL     1      50.382   1.769  16.851  0.00  0.00    +0.000 A 
ATOM     30  O   UNL     1      49.455   1.280  16.216  0.00  0.00    +0.000 OA
ATOM     31  C   UNL     1      50.399   3.123  17.369  0.00  0.00    +0.000 A 
ATOM     32  H   UNL     1      51.533   0.097  16.798  0.00  0.00    +0.000 HD
ENDBRANCH  21  22
ENDBRANCH  18  21
ENDBRANCH   1  18
TORSDOF 8
ENDMDL
MODEL 2
REMARK VINA RESULT:    -7.677      1.884      2.340
REMARK INTER + INTRA:         -12.457
REMARK INTER:                 -11.103
REMARK INTRA:                  -1.354
REMARK UNBOUND:                -1.190
REMARK  Name = 
REMARK  9 active torsions:
REMARK  status: ('A' for Active; 'I' for Inactive)
REMARK    1  A    between atoms: C_1  and  C_2
REMARK    2  A    between atoms: C_2  and  N_3
REMARK    3  A    between atoms: C_2  and  C_20
REMARK    4  A    between atoms: N_3  and  C_4
REMARK    5  A    between atoms: C_4  and  C_5
REMARK    6  A    between atoms: C_8  and  C_9
REMARK    7  A    between atoms: C_9  and  N_10
REMARK    8  A    between atoms: N_10  and  C_11
REMARK    9  A    between atoms: C_11  and  C_12
REMARK                            x       y       z     vdW  Elec       q    Type
REMARK                         _______ _______ _______ _____ _____    ______ ____
ROOT
ATOM      1  C   UNL     1      48.272   6.475  13.533  0.00  0.00    +0.000 C 
ENDROOT
BRANCH   1   2
ATOM      2  C   UNL     1      47.057   6.041  12.749  0.00  0.00    +0.000 A 
ATOM      3  C   UNL     1      46.700   6.654  11.542  0.00  0.00    +0.000 A 
ATOM      4  C   UNL     1      45.582   6.210  10.830  0.00  0.00    +0.000 A 
ATOM      5  C   UNL     1      44.809   5.135  11.299  0.00  0.00    +0.000 A 
ATOM      6  C   UNL     1      45.178   4.514  12.497  0.00  0.00    +0.000 A 
ATOM      7  C   UNL     1      46.286   4.964  13.213  0.00  0.00    +0.000 A 
BRANCH   5   8
ATOM      8  C   UNL     1      43.585   4.667  10.545  0.00  0.00    +0.000 C 
BRANCH   8   9
ATOM      9  N   UNL     1      43.937   4.202   9.206  0.00  0.00    +0.000 NA
ATOM     10  H   UNL     1      44.704   4.773   8.852  0.00  0.00    +0.000 HD
BRANCH   9  11
ATOM     11  C   UNL     1      44.351   2.802   9.219  0.00  0.00    +0.000 C 
BRANCH  11  12
ATOM     12  C   UNL     1      45.556   2.591   8.336  0.00  0.00    +0.000 A 
ATOM     13  C   UNL     1      46.141   3.663   7.655  0.00  0.00    +0.000 A 
ATOM     14  C   UNL     1      47.241   3.419   6.848  0.00  0.00    +0.000 A 
ATOM     15  N   UNL     1      47.792   2.200   6.673  0.00  0.00    +0.000 NA
ATOM     16  C   UNL     1      47.218   1.177   7.340  0.00  0.00    +0.000 A 
ATOM     17  C   UNL     1      46.119   1.320   8.175  0.00  0.00    +0.000 A 
ENDBRANCH  11  12
ENDBRANCH   9  11
ENDBRANCH   8   9
ENDBRANCH   5   8
ENDBRANCH   1   2
BRANCH   1  18
ATOM     18  N   UNL     1      48.311   5.903  14.883  0.00  0.00    +0.000 NA
ATOM     19  H   UNL     1      47.357   5.671  15.157  0.00  0.00    +0.000 HD
BRANCH  18  21
ATOM     20  C   UNL     1      48.691   8.320  15.401  0.00  0.00    +0.000 C 
ATOM     21  C   UNL     1      48.846   6.862  15.862  0.00  0.00    +0.000 C 
BRANCH  21  22
ATOM     22  C   UNL     1      50.313   6.559  16.111  0.00  0.00    +0.000 A 
ATOM     23  C   UNL     1      51.395   7.298  15.652  0.00  0.00    +0.000 A 
ATOM     24  S   UNL     1      52.897   6.742  16.251  0.00  0.00    +0.000 S 
ATOM     25  C   UNL     1      52.149   5.514  17.165  0.00  0.00    +0.000 A 
ATOM     26  N   UNL     1      52.860   4.706  17.997  0.00  0.00    +0.000 NA
ATOM     27  C   UNL     1      52.138   3.858  18.657  0.00  0.00    +0.000 A 
ATOM     28  N   UNL     1      50.780   3.719  18.536  0.00  0.00    +0.000 N 
ATOM     29  C   UNL     1      50.029   4.463  17.655  0.00  0.00    +0.000 A 
ATOM     30  O   UNL     1      48.834   4.246  17.492  0.00  0.00    +0.000 OA
ATOM     31  C   UNL     1      50.781   5.488  16.959  0.00  0.00    +0.000 A 
ATOM     32  H   UNL     1      50.281   3.013  19.055  0.00  0.00    +0.000 HD
ENDBRANCH  21  22
ENDBRANCH  18  21
ENDBRANCH   1  18
TORSDOF 8
ENDMDL
MODEL 3
REMARK VINA RESULT:    -7.451      2.896      3.873
REMARK INTER + INTRA:         -12.125
REMARK INTER:                 -11.086
REMARK INTRA:                  -1.039
REMARK UNBOUND:                -1.190
REMARK  Name = 
REMARK  9 active torsions:
REMARK  status: ('A' for Active; 'I' for Inactive)
REMARK    1  A    between atoms: C_1  and  C_2
REMARK    2  A    between atoms: C_2  and  N_3
REMARK    3  A    between atoms: C_2  and  C_20
REMARK    4  A    between atoms: N_3  and  C_4
REMARK    5  A    between atoms: C_4  and  C_5
REMARK    6  A    between atoms: C_8  and  C_9
REMARK    7  A    between atoms: C_9  and  N_10
REMARK    8  A    between atoms: N_10  and  C_11
REMARK    9  A    between atoms: C_11  and  C_12
REMARK                            x       y       z     vdW  Elec       q    Type
REMARK                         _______ _______ _______ _____ _____    ______ ____
ROOT
ATOM      1  C   UNL     1      48.108   6.392  13.843  0.00  0.00    +0.000 C 
ENDROOT
BRANCH   1   2
ATOM      2  C   UNL     1      46.951   6.006  12.952  0.00  0.00    +0.000 A 
ATOM      3  C   UNL     1      46.765   6.586  11.692  0.00  0.00    +0.000 A 
ATOM      4  C   UNL     1      45.696   6.186  10.883  0.00  0.00    +0.000 A 
ATOM      5  C   UNL     1      44.803   5.189  11.309  0.00  0.00    +0.000 A 
ATOM      6  C   UNL     1      45.002   4.601  12.563  0.00  0.00    +0.000 A 
ATOM      7  C   UNL     1      46.061   5.006  13.374  0.00  0.00    +0.000 A 
BRANCH   5   8
ATOM      8  C   UNL     1      43.633   4.772  10.450  0.00  0.00    +0.000 C 
BRANCH   8   9
ATOM      9  N   UNL     1      44.080   4.302   9.142  0.00  0.00    +0.000 NA
ATOM     10  H   UNL     1      44.906   4.834   8.867  0.00  0.00    +0.000 HD
BRANCH   9  11
ATOM     11  C   UNL     1      44.417   2.882   9.171  0.00  0.00    +0.000 C 
BRANCH  11  12
ATOM     12  C   UNL     1      45.635   2.601   8.324  0.00  0.00    +0.000 A 
ATOM     13  C   UNL     1      46.308   3.639   7.673  0.00  0.00    +0.000 A 
ATOM     14  C   UNL     1      47.415   3.331   6.899  0.00  0.00    +0.000 A 
ATOM     15  N   UNL     1      47.894   2.081   6.729  0.00  0.00    +0.000 NA
ATOM     16  C   UNL     1      47.234   1.092   7.368  0.00  0.00    +0.000 A 
ATOM     17  C   UNL     1      46.120   1.298   8.169  0.00  0.00    +0.000 A 
ENDBRANCH  11  12
ENDBRANCH   9  11
ENDBRANCH   8   9
ENDBRANCH   5   8
ENDBRANCH   1   2
BRANCH   1  18
ATOM     18  N   UNL     1      48.023   5.790  15.177  0.00  0.00    +0.000 NA
ATOM     19  H   UNL     1      47.038   5.721  15.432  0.00  0.00    +0.000 HD
BRANCH  18  21
ATOM     20  C   UNL     1      50.191   6.817  15.884  0.00  0.00    +0.000 C 
ATOM     21  C   UNL     1      48.698   6.619  16.188  0.00  0.00    +0.000 C 
BRANCH  21  22
ATOM     22  C   UNL     1      48.538   5.973  17.553  0.00  0.00    +0.000 A 
ATOM     23  C   UNL     1      48.806   4.649  17.874  0.00  0.00    +0.000 A 
ATOM     24  S   UNL     1      48.650   4.312  19.544  0.00  0.00    +0.000 S 
ATOM     25  C   UNL     1      48.247   5.930  19.896  0.00  0.00    +0.000 A 
ATOM     26  N   UNL     1      48.065   6.360  21.174  0.00  0.00    +0.000 NA
ATOM     27  C   UNL     1      47.814   7.626  21.275  0.00  0.00    +0.000 A 
ATOM     28  N   UNL     1      47.691   8.491  20.219  0.00  0.00    +0.000 N 
ATOM     29  C   UNL     1      47.794   8.087  18.908  0.00  0.00    +0.000 A 
ATOM     30  O   UNL     1      47.577   8.861  17.982  0.00  0.00    +0.000 OA
ATOM     31  C   UNL     1      48.165   6.696  18.747  0.00  0.00    +0.000 A 
ATOM     32  H   UNL     1      47.458   9.461  20.366  0.00  0.00    +0.000 HD
ENDBRANCH  21  22
ENDBRANCH  18  21
ENDBRANCH   1  18
TORSDOF 8
ENDMDL
MODEL 4
REMARK VINA RESULT:    -7.397      2.240      3.186
REMARK INTER + INTRA:         -12.046
REMARK INTER:                 -10.618
REMARK INTRA:                  -1.428
REMARK UNBOUND:                -1.190
REMARK  Name = 
REMARK  9 active torsions:
REMARK  status: ('A' for Active; 'I' for Inactive)
REMARK    1  A    between atoms: C_1  and  C_2
REMARK    2  A    between atoms: C_2  and  N_3
REMARK    3  A    between atoms: C_2  and  C_20
REMARK    4  A    between atoms: N_3  and  C_4
REMARK    5  A    between atoms: C_4  and  C_5
REMARK    6  A    between atoms: C_8  and  C_9
REMARK    7  A    between atoms: C_9  and  N_10
REMARK    8  A    between atoms: N_10  and  C_11
REMARK    9  A    between atoms: C_11  and  C_12
REMARK                            x       y       z     vdW  Elec       q    Type
REMARK                         _______ _______ _______ _____ _____    ______ ____
ROOT
ATOM      1  C   UNL     1      48.401   8.498  12.990  0.00  0.00    +0.000 C 
ENDROOT
BRANCH   1   2
ATOM      2  C   UNL     1      47.177   7.745  12.528  0.00  0.00    +0.000 A 
ATOM      3  C   UNL     1      45.886   8.130  12.911  0.00  0.00    +0.000 A 
ATOM      4  C   UNL     1      44.773   7.424  12.444  0.00  0.00    +0.000 A 
ATOM      5  C   UNL     1      44.924   6.333  11.573  0.00  0.00    +0.000 A 
ATOM      6  C   UNL     1      46.215   5.961  11.179  0.00  0.00    +0.000 A 
ATOM      7  C   UNL     1      47.326   6.658  11.653  0.00  0.00    +0.000 A 
BRANCH   5   8
ATOM      8  C   UNL     1      43.727   5.552  11.085  0.00  0.00    +0.000 C 
BRANCH   8   9
ATOM      9  N   UNL     1      43.958   5.012   9.748  0.00  0.00    +0.000 NA
ATOM     10  H   UNL     1      44.827   5.402   9.383  0.00  0.00    +0.000 HD
BRANCH   9  11
ATOM     11  C   UNL     1      44.061   3.556   9.770  0.00  0.00    +0.000 C 
BRANCH  11  12
ATOM     12  C   UNL     1      45.154   3.081   8.843  0.00  0.00    +0.000 A 
ATOM     13  C   UNL     1      45.832   3.981   8.017  0.00  0.00    +0.000 A 
ATOM     14  C   UNL     1      46.821   3.497   7.175  0.00  0.00    +0.000 A 
ATOM     15  N   UNL     1      47.178   2.198   7.099  0.00  0.00    +0.000 NA
ATOM     16  C   UNL     1      46.515   1.343   7.906  0.00  0.00    +0.000 A 
ATOM     17  C   UNL     1      45.514   1.731   8.786  0.00  0.00    +0.000 A 
ENDBRANCH  11  12
ENDBRANCH   9  11
ENDBRANCH   8   9
ENDBRANCH   5   8
ENDBRANCH   1   2
BRANCH   1  18
ATOM     18  N   UNL     1      49.157   7.776  14.018  0.00  0.00    +0.000 NA
ATOM     19  H   UNL     1      49.307   6.822  13.691  0.00  0.00    +0.000 HD
BRANCH  18  21
ATOM     20  C   UNL     1      48.358   9.067  16.005  0.00  0.00    +0.000 C 
ATOM     21  C   UNL     1      48.417   7.710  15.288  0.00  0.00    +0.000 C 
BRANCH  21  22
ATOM     22  C   UNL     1      49.070   6.682  16.195  0.00  0.00    +0.000 A 
ATOM     23  C   UNL     1      50.157   6.896  17.032  0.00  0.00    +0.000 A 
ATOM     24  S   UNL     1      50.528   5.548  18.017  0.00  0.00    +0.000 S 
ATOM     25  C   UNL     1      49.232   4.645  17.378  0.00  0.00    +0.000 A 
ATOM     26  N   UNL     1      48.919   3.409  17.852  0.00  0.00    +0.000 NA
ATOM     27  C   UNL     1      47.878   2.877  17.295  0.00  0.00    +0.000 A 
ATOM     28  N   UNL     1      47.145   3.450  16.288  0.00  0.00    +0.000 N 
ATOM     29  C   UNL     1      47.468   4.664  15.729  0.00  0.00    +0.000 A 
ATOM     30  O   UNL     1      46.858   5.104  14.760  0.00  0.00    +0.000 OA
ATOM     31  C   UNL     1      48.573   5.339  16.379  0.00  0.00    +0.000 A 
ATOM     32  H   UNL     1      46.364   2.965  15.873  0.00  0.00    +0.000 HD
ENDBRANCH  21  22
ENDBRANCH  18  21
ENDBRANCH   1  18
TORSDOF 8
ENDMDL
MODEL 5
REMARK VINA RESULT:    -7.136      2.497      3.325
REMARK INTER + INTRA:         -11.662
REMARK INTER:                 -11.409
REMARK INTRA:                  -0.254
REMARK UNBOUND:                -1.190
REMARK  Name = 
REMARK  9 active torsions:
REMARK  status: ('A' for Active; 'I' for Inactive)
REMARK    1  A    between atoms: C_1  and  C_2
REMARK    2  A    between atoms: C_2  and  N_3
REMARK    3  A    between atoms: C_2  and  C_20
REMARK    4  A    between atoms: N_3  and  C_4
REMARK    5  A    between atoms: C_4  and  C_5
REMARK    6  A    between atoms: C_8  and  C_9
REMARK    7  A    between atoms: C_9  and  N_10
REMARK    8  A    between atoms: N_10  and  C_11
REMARK    9  A    between atoms: C_11  and  C_12
REMARK                            x       y       z     vdW  Elec       q    Type
REMARK                         _______ _______ _______ _____ _____    ______ ____
ROOT
ATOM      1  C   UNL     1      48.124   6.558  13.288  0.00  0.00    +0.000 C 
ENDROOT
BRANCH   1   2
ATOM      2  C   UNL     1      46.949   5.888  12.617  0.00  0.00    +0.000 A 
ATOM      3  C   UNL     1      46.313   6.454  11.506  0.00  0.00    +0.000 A 
ATOM      4  C   UNL     1      45.244   5.793  10.893  0.00  0.00    +0.000 A 
ATOM      5  C   UNL     1      44.799   4.548  11.367  0.00  0.00    +0.000 A 
ATOM      6  C   UNL     1      45.448   3.978  12.468  0.00  0.00    +0.000 A 
ATOM      7  C   UNL     1      46.507   4.641  13.086  0.00  0.00    +0.000 A 
BRANCH   5   8
ATOM      8  C   UNL     1      43.628   3.842  10.725  0.00  0.00    +0.000 C 
BRANCH   8   9
ATOM      9  N   UNL     1      44.068   2.981   9.630  0.00  0.00    +0.000 NA
ATOM     10  H   UNL     1      43.249   2.534   9.216  0.00  0.00    +0.000 HD
BRANCH   9  11
ATOM     11  C   UNL     1      44.767   3.743   8.599  0.00  0.00    +0.000 C 
BRANCH  11  12
ATOM     12  C   UNL     1      45.823   2.897   7.931  0.00  0.00    +0.000 A 
ATOM     13  C   UNL     1      46.642   3.432   6.932  0.00  0.00    +0.000 A 
ATOM     14  C   UNL     1      47.591   2.613   6.340  0.00  0.00    +0.000 A 
ATOM     15  N   UNL     1      47.780   1.318   6.667  0.00  0.00    +0.000 NA
ATOM     16  C   UNL     1      46.983   0.819   7.636  0.00  0.00    +0.000 A 
ATOM     17  C   UNL     1      46.009   1.558   8.291  0.00  0.00    +0.000 A 
ENDBRANCH  11  12
ENDBRANCH   9  11
ENDBRANCH   8   9
ENDBRANCH   5   8
ENDBRANCH   1   2
BRANCH   1  18
ATOM     18  N   UNL     1      47.894   6.813  14.714  0.00  0.00    +0.000 NA
ATOM     19  H   UNL     1      46.933   7.134  14.828  0.00  0.00    +0.000 HD
BRANCH  18  21
ATOM     20  C   UNL     1      50.267   7.571  14.930  0.00  0.00    +0.000 C 
ATOM     21  C   UNL     1      48.788   7.862  15.227  0.00  0.00    +0.000 C 
BRANCH  21  22
ATOM     22  C   UNL     1      48.587   8.003  16.726  0.00  0.00    +0.000 A 
ATOM     23  C   UNL     1      48.254   9.165  17.407  0.00  0.00    +0.000 A 
ATOM     24  S   UNL     1      47.966   8.915  19.074  0.00  0.00    +0.000 S 
ATOM     25  C   UNL     1      48.250   7.241  18.935  0.00  0.00    +0.000 A 
ATOM     26  N   UNL     1      48.086   6.398  19.990  0.00  0.00    +0.000 NA
ATOM     27  C   UNL     1      48.293   5.151  19.708  0.00  0.00    +0.000 A 
ATOM     28  N   UNL     1      48.683   4.676  18.483  0.00  0.00    +0.000 N 
ATOM     29  C   UNL     1      48.932   5.498  17.408  0.00  0.00    +0.000 A 
ATOM     30  O   UNL     1      49.380   5.056  16.356  0.00  0.00    +0.000 OA
ATOM     31  C   UNL     1      48.627   6.893  17.650  0.00  0.00    +0.000 A 
ATOM     32  H   UNL     1      48.862   3.693  18.339  0.00  0.00    +0.000 HD
ENDBRANCH  21  22
ENDBRANCH  18  21
ENDBRANCH   1  18
TORSDOF 8
ENDMDL
MODEL 6
REMARK VINA RESULT:    -6.949      3.784      8.818
REMARK INTER + INTRA:         -11.389
REMARK INTER:                  -9.785
REMARK INTRA:                  -1.604
REMARK UNBOUND:                -1.190
REMARK  Name = 
REMARK  9 active torsions:
REMARK  status: ('A' for Active; 'I' for Inactive)
REMARK    1  A    between atoms: C_1  and  C_2
REMARK    2  A    between atoms: C_2  and  N_3
REMARK    3  A    between atoms: C_2  and  C_20
REMARK    4  A    between atoms: N_3  and  C_4
REMARK    5  A    between atoms: C_4  and  C_5
REMARK    6  A    between atoms: C_8  and  C_9
REMARK    7  A    between atoms: C_9  and  N_10
REMARK    8  A    between atoms: N_10  and  C_11
REMARK    9  A    between atoms: C_11  and  C_12
REMARK                            x       y       z     vdW  Elec       q    Type
REMARK                         _______ _______ _______ _____ _____    ______ ____
ROOT
ATOM      1  C   UNL     1      48.049   8.540  13.924  0.00  0.00    +0.000 C 
ENDROOT
BRANCH   1   2
ATOM      2  C   UNL     1      48.818   8.194  15.176  0.00  0.00    +0.000 A 
ATOM      3  C   UNL     1      48.425   8.664  16.435  0.00  0.00    +0.000 A 
ATOM      4  C   UNL     1      49.147   8.303  17.578  0.00  0.00    +0.000 A 
ATOM      5  C   UNL     1      50.263   7.455  17.488  0.00  0.00    +0.000 A 
ATOM      6  C   UNL     1      50.643   6.976  16.229  0.00  0.00    +0.000 A 
ATOM      7  C   UNL     1      49.930   7.343  15.089  0.00  0.00    +0.000 A 
BRANCH   5   8
ATOM      8  C   UNL     1      51.061   7.083  18.715  0.00  0.00    +0.000 C 
BRANCH   8   9
ATOM      9  N   UNL     1      51.330   5.648  18.754  0.00  0.00    +0.000 NA
ATOM     10  H   UNL     1      52.068   5.471  19.437  0.00  0.00    +0.000 HD
BRANCH   9  11
ATOM     11  C   UNL     1      50.140   4.891  19.130  0.00  0.00    +0.000 C 
BRANCH  11  12
ATOM     12  C   UNL     1      49.838   3.824  18.107  0.00  0.00    +0.000 A 
ATOM     13  C   UNL     1      48.584   3.756  17.493  0.00  0.00    +0.000 A 
ATOM     14  C   UNL     1      48.350   2.752  16.567  0.00  0.00    +0.000 A 
ATOM     15  N   UNL     1      49.262   1.823  16.214  0.00  0.00    +0.000 NA
ATOM     16  C   UNL     1      50.469   1.905  16.814  0.00  0.00    +0.000 A 
ATOM     17  C   UNL     1      50.802   2.875  17.748  0.00  0.00    +0.000 A 
ENDBRANCH  11  12
ENDBRANCH   9  11
ENDBRANCH   8   9
ENDBRANCH   5   8
ENDBRANCH   1   2
BRANCH   1  18
ATOM     18  N   UNL     1      46.772   7.826  13.825  0.00  0.00    +0.000 NA
ATOM     19  H   UNL     1      46.544   7.455  14.748  0.00  0.00    +0.000 HD
BRANCH  18  21
ATOM     20  C   UNL     1      47.795   6.978  11.707  0.00  0.00    +0.000 C 
ATOM     21  C   UNL     1      46.855   6.694  12.889  0.00  0.00    +0.000 C 
BRANCH  21  22
ATOM     22  C   UNL     1      45.466   6.371  12.368  0.00  0.00    +0.000 A 
ATOM     23  C   UNL     1      44.576   7.264  11.789  0.00  0.00    +0.000 A 
ATOM     24  S   UNL     1      43.160   6.516  11.187  0.00  0.00    +0.000 S 
ATOM     25  C   UNL     1      43.704   4.971  11.656  0.00  0.00    +0.000 A 
ATOM     26  N   UNL     1      43.001   3.844  11.358  0.00  0.00    +0.000 NA
ATOM     27  C   UNL     1      43.573   2.747  11.740  0.00  0.00    +0.000 A 
ATOM     28  N   UNL     1      44.760   2.675  12.421  0.00  0.00    +0.000 N 
ATOM     29  C   UNL     1      45.469   3.789  12.806  0.00  0.00    +0.000 A 
ATOM     30  O   UNL     1      46.472   3.698  13.504  0.00  0.00    +0.000 OA
ATOM     31  C   UNL     1      44.913   5.037  12.323  0.00  0.00    +0.000 A 
ATOM     32  H   UNL     1      45.134   1.787  12.721  0.00  0.00    +0.000 HD
ENDBRANCH  21  22
ENDBRANCH  18  21
ENDBRANCH   1  18
TORSDOF 8
ENDMDL
MODEL 7
REMARK VINA RESULT:    -6.719      4.086      4.771
REMARK INTER + INTRA:         -11.051
REMARK INTER:                  -9.939
REMARK INTRA:                  -1.112
REMARK UNBOUND:                -1.190
REMARK  Name = 
REMARK  9 active torsions:
REMARK  status: ('A' for Active; 'I' for Inactive)
REMARK    1  A    between atoms: C_1  and  C_2
REMARK    2  A    between atoms: C_2  and  N_3
REMARK    3  A    between atoms: C_2  and  C_20
REMARK    4  A    between atoms: N_3  and  C_4
REMARK    5  A    between atoms: C_4  and  C_5
REMARK    6  A    between atoms: C_8  and  C_9
REMARK    7  A    between atoms: C_9  and  N_10
REMARK    8  A    between atoms: N_10  and  C_11
REMARK    9  A    between atoms: C_11  and  C_12
REMARK                            x       y       z     vdW  Elec       q    Type
REMARK                         _______ _______ _______ _____ _____    ______ ____
ROOT
ATOM      1  C   UNL     1      47.475   7.250  13.739  0.00  0.00    +0.000 C 
ENDROOT
BRANCH   1   2
ATOM      2  C   UNL     1      46.452   6.489  12.930  0.00  0.00    +0.000 A 
ATOM      3  C   UNL     1      45.572   7.138  12.056  0.00  0.00    +0.000 A 
ATOM      4  C   UNL     1      44.654   6.398  11.303  0.00  0.00    +0.000 A 
ATOM      5  C   UNL     1      44.608   4.997  11.396  0.00  0.00    +0.000 A 
ATOM      6  C   UNL     1      45.500   4.352  12.260  0.00  0.00    +0.000 A 
ATOM      7  C   UNL     1      46.408   5.089  13.018  0.00  0.00    +0.000 A 
BRANCH   5   8
ATOM      8  C   UNL     1      43.601   4.196  10.604  0.00  0.00    +0.000 C 
BRANCH   8   9
ATOM      9  N   UNL     1      44.265   3.237   9.725  0.00  0.00    +0.000 NA
ATOM     10  H   UNL     1      43.574   2.564   9.393  0.00  0.00    +0.000 HD
BRANCH   9  11
ATOM     11  C   UNL     1      44.877   3.900   8.577  0.00  0.00    +0.000 C 
BRANCH  11  12
ATOM     12  C   UNL     1      45.865   2.986   7.894  0.00  0.00    +0.000 A 
ATOM     13  C   UNL     1      46.007   1.655   8.299  0.00  0.00    +0.000 A 
ATOM     14  C   UNL     1      46.934   0.857   7.648  0.00  0.00    +0.000 A 
ATOM     15  N   UNL     1      47.719   1.283   6.637  0.00  0.00    +0.000 NA
ATOM     16  C   UNL     1      47.567   2.570   6.257  0.00  0.00    +0.000 A 
ATOM     17  C   UNL     1      46.664   3.446   6.842  0.00  0.00    +0.000 A 
ENDBRANCH  11  12
ENDBRANCH   9  11
ENDBRANCH   8   9
ENDBRANCH   5   8
ENDBRANCH   1   2
BRANCH   1  18
ATOM     18  N   UNL     1      47.060   8.626  14.029  0.00  0.00    +0.000 NA
ATOM     19  H   UNL     1      46.223   8.827  13.482  0.00  0.00    +0.000 HD
BRANCH  18  21
ATOM     20  C   UNL     1      48.177   9.800  12.124  0.00  0.00    +0.000 C 
ATOM     21  C   UNL     1      48.097   9.597  13.645  0.00  0.00    +0.000 C 
BRANCH  21  22
ATOM     22  C   UNL     1      49.442   9.126  14.167  0.00  0.00    +0.000 A 
ATOM     23  C   UNL     1      50.543   8.766  13.401  0.00  0.00    +0.000 A 
ATOM     24  S   UNL     1      51.936   8.428  14.333  0.00  0.00    +0.000 S 
ATOM     25  C   UNL     1      51.123   8.778  15.789  0.00  0.00    +0.000 A 
ATOM     26  N   UNL     1      51.766   8.770  16.988  0.00  0.00    +0.000 NA
ATOM     27  C   UNL     1      51.020   9.106  17.991  0.00  0.00    +0.000 A 
ATOM     28  N   UNL     1      49.687   9.413  17.912  0.00  0.00    +0.000 N 
ATOM     29  C   UNL     1      48.978   9.364  16.734  0.00  0.00    +0.000 A 
ATOM     30  O   UNL     1      47.766   9.541  16.709  0.00  0.00    +0.000 OA
ATOM     31  C   UNL     1      49.791   9.079  15.568  0.00  0.00    +0.000 A 
ATOM     32  H   UNL     1      49.154   9.633  18.740  0.00  0.00    +0.000 HD
ENDBRANCH  21  22
ENDBRANCH  18  21
ENDBRANCH   1  18
TORSDOF 8
ENDMDL
MODEL 8
REMARK VINA RESULT:    -6.562      4.805      5.693
REMARK INTER + INTRA:         -10.821
REMARK INTER:                  -9.713
REMARK INTRA:                  -1.108
REMARK UNBOUND:                -1.190
REMARK  Name = 
REMARK  9 active torsions:
REMARK  status: ('A' for Active; 'I' for Inactive)
REMARK    1  A    between atoms: C_1  and  C_2
REMARK    2  A    between atoms: C_2  and  N_3
REMARK    3  A    between atoms: C_2  and  C_20
REMARK    4  A    between atoms: N_3  and  C_4
REMARK    5  A    between atoms: C_4  and  C_5
REMARK    6  A    between atoms: C_8  and  C_9
REMARK    7  A    between atoms: C_9  and  N_10
REMARK    8  A    between atoms: N_10  and  C_11
REMARK    9  A    between atoms: C_11  and  C_12
REMARK                            x       y       z     vdW  Elec       q    Type
REMARK                         _______ _______ _______ _____ _____    ______ ____
ROOT
ATOM      1  C   UNL     1      47.735   7.367  13.374  0.00  0.00    +0.000 C 
ENDROOT
BRANCH   1   2
ATOM      2  C   UNL     1      46.754   6.385  12.780  0.00  0.00    +0.000 A 
ATOM      3  C   UNL     1      46.193   6.579  11.511  0.00  0.00    +0.000 A 
ATOM      4  C   UNL     1      45.306   5.636  10.981  0.00  0.00    +0.000 A 
ATOM      5  C   UNL     1      44.976   4.475  11.698  0.00  0.00    +0.000 A 
ATOM      6  C   UNL     1      45.551   4.277  12.959  0.00  0.00    +0.000 A 
ATOM      7  C   UNL     1      46.426   5.221  13.492  0.00  0.00    +0.000 A 
BRANCH   5   8
ATOM      8  C   UNL     1      43.999   3.466  11.141  0.00  0.00    +0.000 C 
BRANCH   8   9
ATOM      9  N   UNL     1      44.670   2.515  10.259  0.00  0.00    +0.000 NA
ATOM     10  H   UNL     1      44.222   1.603  10.358  0.00  0.00    +0.000 HD
BRANCH   9  11
ATOM     11  C   UNL     1      44.594   2.935   8.863  0.00  0.00    +0.000 C 
BRANCH  11  12
ATOM     12  C   UNL     1      45.794   2.447   8.089  0.00  0.00    +0.000 A 
ATOM     13  C   UNL     1      46.155   1.096   8.105  0.00  0.00    +0.000 A 
ATOM     14  C   UNL     1      47.271   0.697   7.387  0.00  0.00    +0.000 A 
ATOM     15  N   UNL     1      48.042   1.534   6.664  0.00  0.00    +0.000 NA
ATOM     16  C   UNL     1      47.677   2.834   6.656  0.00  0.00    +0.000 A 
ATOM     17  C   UNL     1      46.575   3.331   7.338  0.00  0.00    +0.000 A 
ENDBRANCH  11  12
ENDBRANCH   9  11
ENDBRANCH   8   9
ENDBRANCH   5   8
ENDBRANCH   1   2
BRANCH   1  18
ATOM     18  N   UNL     1      48.723   7.842  12.401  0.00  0.00    +0.000 NA
ATOM     19  H   UNL     1      49.608   7.374  12.594  0.00  0.00    +0.000 HD
BRANCH  18  21
ATOM     20  C   UNL     1      47.801  10.109  11.889  0.00  0.00    +0.000 C 
ATOM     21  C   UNL     1      48.942   9.293  12.516  0.00  0.00    +0.000 C 
BRANCH  21  22
ATOM     22  C   UNL     1      50.255   9.656  11.846  0.00  0.00    +0.000 A 
ATOM     23  C   UNL     1      50.409  10.403  10.687  0.00  0.00    +0.000 A 
ATOM     24  S   UNL     1      52.044  10.737  10.308  0.00  0.00    +0.000 S 
ATOM     25  C   UNL     1      52.597   9.919  11.696  0.00  0.00    +0.000 A 
ATOM     26  N   UNL     1      53.915   9.894  12.035  0.00  0.00    +0.000 NA
ATOM     27  C   UNL     1      54.165   9.274  13.143  0.00  0.00    +0.000 A 
ATOM     28  N   UNL     1      53.228   8.647  13.923  0.00  0.00    +0.000 N 
ATOM     29  C   UNL     1      51.896   8.584  13.584  0.00  0.00    +0.000 A 
ATOM     30  O   UNL     1      51.099   7.929  14.245  0.00  0.00    +0.000 OA
ATOM     31  C   UNL     1      51.553   9.341  12.397  0.00  0.00    +0.000 A 
ATOM     32  H   UNL     1      53.495   8.150  14.759  0.00  0.00    +0.000 HD
ENDBRANCH  21  22
ENDBRANCH  18  21
ENDBRANCH   1  18
TORSDOF 8
ENDMDL
MODEL 9
REMARK VINA RESULT:    -6.460      2.849      4.335
REMARK INTER + INTRA:         -10.670
REMARK INTER:                  -9.537
REMARK INTRA:                  -1.133
REMARK UNBOUND:                -1.190
REMARK  Name = 
REMARK  9 active torsions:
REMARK  status: ('A' for Active; 'I' for Inactive)
REMARK    1  A    between atoms: C_1  and  C_2
REMARK    2  A    between atoms: C_2  and  N_3
REMARK    3  A    between atoms: C_2  and  C_20
REMARK    4  A    between atoms: N_3  and  C_4
REMARK    5  A    between atoms: C_4  and  C_5
REMARK    6  A    between atoms: C_8  and  C_9
REMARK    7  A    between atoms: C_9  and  N_10
REMARK    8  A    between atoms: N_10  and  C_11
REMARK    9  A    between atoms: C_11  and  C_12
REMARK                            x       y       z     vdW  Elec       q    Type
REMARK                         _______ _______ _______ _____ _____    ______ ____
ROOT
ATOM      1  C   UNL     1      50.507   8.020  14.179  0.00  0.00    +0.000 C 
ENDROOT
BRANCH   1   2
ATOM      2  C   UNL     1      49.170   7.976  13.479  0.00  0.00    +0.000 A 
ATOM      3  C   UNL     1      48.972   7.222  12.316  0.00  0.00    +0.000 A 
ATOM      4  C   UNL     1      47.713   7.184  11.708  0.00  0.00    +0.000 A 
ATOM      5  C   UNL     1      46.625   7.883  12.256  0.00  0.00    +0.000 A 
ATOM      6  C   UNL     1      46.824   8.622  13.428  0.00  0.00    +0.000 A 
ATOM      7  C   UNL     1      48.081   8.669  14.029  0.00  0.00    +0.000 A 
BRANCH   5   8
ATOM      8  C   UNL     1      45.270   7.865  11.589  0.00  0.00    +0.000 C 
BRANCH   8   9
ATOM      9  N   UNL     1      44.274   7.213  12.436  0.00  0.00    +0.000 NA
ATOM     10  H   UNL     1      43.445   7.017  11.875  0.00  0.00    +0.000 HD
BRANCH   9  11
ATOM     11  C   UNL     1      44.782   5.962  12.991  0.00  0.00    +0.000 C 
BRANCH  11  12
ATOM     12  C   UNL     1      44.434   4.798  12.095  0.00  0.00    +0.000 A 
ATOM     13  C   UNL     1      44.895   4.747  10.776  0.00  0.00    +0.000 A 
ATOM     14  C   UNL     1      44.542   3.662   9.989  0.00  0.00    +0.000 A 
ATOM     15  N   UNL     1      43.773   2.639  10.415  0.00  0.00    +0.000 NA
ATOM     16  C   UNL     1      43.340   2.702  11.692  0.00  0.00    +0.000 A 
ATOM     17  C   UNL     1      43.643   3.742  12.560  0.00  0.00    +0.000 A 
ENDBRANCH  11  12
ENDBRANCH   9  11
ENDBRANCH   8   9
ENDBRANCH   5   8
ENDBRANCH   1   2
BRANCH   1  18
ATOM     18  N   UNL     1      50.649   6.978  15.200  0.00  0.00    +0.000 NA
ATOM     19  H   UNL     1      50.248   6.116  14.831  0.00  0.00    +0.000 HD
BRANCH  18  21
ATOM     20  C   UNL     1      50.535   8.539  17.150  0.00  0.00    +0.000 C 
ATOM     21  C   UNL     1      49.925   7.325  16.433  0.00  0.00    +0.000 C 
BRANCH  21  22
ATOM     22  C   UNL     1      49.925   6.129  17.368  0.00  0.00    +0.000 A 
ATOM     23  C   UNL     1      50.693   5.980  18.514  0.00  0.00    +0.000 A 
ATOM     24  S   UNL     1      50.322   4.564  19.399  0.00  0.00    +0.000 S 
ATOM     25  C   UNL     1      49.104   4.119  18.295  0.00  0.00    +0.000 A 
ATOM     26  N   UNL     1      48.314   3.030  18.501  0.00  0.00    +0.000 NA
ATOM     27  C   UNL     1      47.404   2.857  17.597  0.00  0.00    +0.000 A 
ATOM     28  N   UNL     1      47.235   3.647  16.490  0.00  0.00    +0.000 N 
ATOM     29  C   UNL     1      48.055   4.714  16.202  0.00  0.00    +0.000 A 
ATOM     30  O   UNL     1      47.946   5.338  15.153  0.00  0.00    +0.000 OA
ATOM     31  C   UNL     1      49.032   5.001  17.232  0.00  0.00    +0.000 A 
ATOM     32  H   UNL     1      46.527   3.435  15.803  0.00  0.00    +0.000 HD
ENDBRANCH  21  22
ENDBRANCH  18  21
ENDBRANCH   1  18
TORSDOF 8
ENDMDL
