MODEL 1
REMARK VINA RESULT:    -7.289      0.000      0.000
REMARK INTER + INTRA:         -14.320
REMARK INTER:                 -11.124
REMARK INTRA:                  -3.196
REMARK UNBOUND:                -3.196
REMARK  Name = 
REMARK  12 active torsions:
REMARK  status: ('A' for Active; 'I' for Inactive)
REMARK    1  A    between atoms: C_1  and  C_2
REMARK    2  A    between atoms: C_2  and  C_3
REMARK    3  A    between atoms: C_2  and  N_23
REMARK    4  A    between atoms: C_6  and  C_7
REMARK    5  A    between atoms: C_7  and  N_8
REMARK    6  A    between atoms: C_9  and  C_11
REMARK    7  A    between atoms: N_23  and  C_24
REMARK    8  A    between atoms: N_23  and  C_31
REMARK    9  A    between atoms: C_24  and  C_25
REMARK   10  A    between atoms: C_31  and  C_32
REMARK   11  A    between atoms: C_31  and  C_33
REMARK   12  A    between atoms: C_31  and  C_34
REMARK                            x       y       z     vdW  Elec       q    Type
REMARK                         _______ _______ _______ _____ _____    ______ ____
ROOT
ATOM      1  C   UNL     1      50.350   7.737  15.366  0.00  0.00    +0.000 A 
ATOM      2  C   UNL     1      50.890   8.228  14.165  0.00  0.00    +0.000 A 
ATOM      3  C   UNL     1      50.103   8.326  13.019  0.00  0.00    +0.000 A 
ATOM      4  C   UNL     1      48.761   7.932  13.049  0.00  0.00    +0.000 A 
ATOM      5  C   UNL     1      48.215   7.452  14.247  0.00  0.00    +0.000 A 
ATOM      6  C   UNL     1      48.994   7.380  15.403  0.00  0.00    +0.000 A 
ENDROOT
BRANCH   1   8
ATOM      7  C   UNL     1      52.550   7.122  16.061  0.00  0.00    +0.000 C 
ATOM      8  C   UNL     1      51.208   7.654  16.631  0.00  0.00    +0.000 C 
BRANCH   8   9
ATOM      9  N   UNL     1      50.555   6.892  17.760  0.00  0.00    +0.000 NA
BRANCH   9  10
ATOM     10  C   UNL     1      50.538   7.624  19.117  0.00  0.00    +0.000 C 
ATOM     11  C   UNL     1      51.967   7.723  19.736  0.00  0.00    +0.000 C 
ATOM     12  C   UNL     1      50.023   9.098  19.124  0.00  0.00    +0.000 C 
BRANCH  10  13
ATOM     13  C   UNL     1      49.521   6.929  20.083  0.00  0.00    +0.000 A 
ATOM     14  C   UNL     1      48.135   6.910  19.844  0.00  0.00    +0.000 A 
ATOM     15  C   UNL     1      47.263   6.243  20.708  0.00  0.00    +0.000 A 
ATOM     16  C   UNL     1      47.756   5.576  21.825  0.00  0.00    +0.000 A 
ATOM     17  C   UNL     1      49.121   5.593  22.094  0.00  0.00    +0.000 A 
ATOM     18  C   UNL     1      49.993   6.273  21.240  0.00  0.00    +0.000 A 
ENDBRANCH  10  13
ENDBRANCH   9  10
BRANCH   9  19
ATOM     19  C   UNL     1      51.189   5.547  17.985  0.00  0.00    +0.000 C 
BRANCH  19  20
ATOM     20  C   UNL     1      50.416   4.304  17.606  0.00  0.00    +0.000 A 
ATOM     21  C   UNL     1      51.097   3.075  17.509  0.00  0.00    +0.000 A 
ATOM     22  C   UNL     1      50.440   1.934  17.051  0.00  0.00    +0.000 A 
ATOM     23  C   UNL     1      49.085   1.996  16.740  0.00  0.00    +0.000 A 
ATOM     24  C   UNL     1      48.380   3.189  16.914  0.00  0.00    +0.000 A 
ATOM     25  C   UNL     1      49.041   4.339  17.350  0.00  0.00    +0.000 A 
ENDBRANCH  19  20
ENDBRANCH   9  19
ENDBRANCH   8   9
ENDBRANCH   1   8
BRANCH   4  26
ATOM     26  C   UNL     1      47.940   7.931  11.787  0.00  0.00    +0.000 C 
BRANCH  26  27
ATOM     27  N   UNL     1      47.165   6.719  11.711  0.00  0.00    +0.000 N 
ATOM     28  C   UNL     1      45.799   6.717  11.807  0.00  0.00    +0.000 C 
ATOM     29  O   UNL     1      45.152   7.750  11.927  0.00  0.00    +0.000 OA
ATOM     30  H   UNL     1      47.676   5.850  11.834  0.00  0.00    +0.000 HD
BRANCH  28  31
ATOM     31  C   UNL     1      45.148   5.407  11.692  0.00  0.00    +0.000 A 
ATOM     32  C   UNL     1      44.508   4.854  12.793  0.00  0.00    +0.000 A 
ATOM     33  S   UNL     1      43.738   3.368  12.460  0.00  0.00    +0.000 S 
ATOM     34  C   UNL     1      44.281   3.384  10.848  0.00  0.00    +0.000 A 
ATOM     35  N   UNL     1      43.974   2.366   9.998  0.00  0.00    +0.000 NA
ATOM     36  C   UNL     1      44.469   2.496   8.810  0.00  0.00    +0.000 A 
ATOM     37  N   UNL     1      45.240   3.551   8.397  0.00  0.00    +0.000 N 
ATOM     38  C   UNL     1      45.555   4.607   9.215  0.00  0.00    +0.000 A 
ATOM     39  O   UNL     1      46.227   5.550   8.799  0.00  0.00    +0.000 OA
ATOM     40  C   UNL     1      45.027   4.512  10.561  0.00  0.00    +0.000 A 
ATOM     41  H   UNL     1      45.592   3.591   7.454  0.00  0.00    +0.000 HD
ENDBRANCH  28  31
ENDBRANCH  26  27
ENDBRANCH   4  26
TORSDOF 9
ENDMDL
MODEL 2
REMARK VINA RESULT:    -7.165      1.410      1.962
REMARK INTER + INTRA:         -14.130
REMARK INTER:                 -10.907
REMARK INTRA:                  -3.224
REMARK UNBOUND:                -3.196
REMARK  Name = 
REMARK  12 active torsions:
REMARK  status: ('A' for Active; 'I' for Inactive)
REMARK    1  A    between atoms: C_1  and  C_2
REMARK    2  A    between atoms: C_2  and  C_3
REMARK    3  A    between atoms: C_2  and  N_23
REMARK    4  A    between atoms: C_6  and  C_7
REMARK    5  A    between atoms: C_7  and  N_8
REMARK    6  A    between atoms: C_9  and  C_11
REMARK    7  A    between atoms: N_23  and  C_24
REMARK    8  A    between atoms: N_23  and  C_31
REMARK    9  A    between atoms: C_24  and  C_25
REMARK   10  A    between atoms: C_31  and  C_32
REMARK   11  A    between atoms: C_31  and  C_33
REMARK   12  A    between atoms: C_31  and  C_34
REMARK                            x       y       z     vdW  Elec       q    Type
REMARK                         _______ _______ _______ _____ _____    ______ ____
ROOT
ATOM      1  C   UNL     1      49.659   8.117  15.832  0.00  0.00    +0.000 A 
ATOM      2  C   UNL     1      48.470   8.843  15.649  0.00  0.00    +0.000 A 
ATOM      3  C   UNL     1      47.769   8.769  14.447  0.00  0.00    +0.000 A 
ATOM      4  C   UNL     1      48.243   7.970  13.401  0.00  0.00    +0.000 A 
ATOM      5  C   UNL     1      49.423   7.236  13.582  0.00  0.00    +0.000 A 
ATOM      6  C   UNL     1      50.111   7.286  14.795  0.00  0.00    +0.000 A 
ENDROOT
BRANCH   1   8
ATOM      7  C   UNL     1      51.812   7.646  16.749  0.00  0.00    +0.000 C 
ATOM      8  C   UNL     1      50.414   8.180  17.161  0.00  0.00    +0.000 C 
BRANCH   8   9
ATOM      9  N   UNL     1      49.694   7.501  18.303  0.00  0.00    +0.000 NA
BRANCH   9  10
ATOM     10  C   UNL     1      49.813   8.213  19.665  0.00  0.00    +0.000 C 
ATOM     11  C   UNL     1      50.074   7.200  20.823  0.00  0.00    +0.000 C 
ATOM     12  C   UNL     1      50.956   9.265  19.822  0.00  0.00    +0.000 C 
BRANCH  10  13
ATOM     13  C   UNL     1      48.541   9.089  19.921  0.00  0.00    +0.000 A 
ATOM     14  C   UNL     1      48.111  10.085  19.027  0.00  0.00    +0.000 A 
ATOM     15  C   UNL     1      46.946  10.818  19.269  0.00  0.00    +0.000 A 
ATOM     16  C   UNL     1      46.182  10.567  20.405  0.00  0.00    +0.000 A 
ATOM     17  C   UNL     1      46.595   9.597  21.315  0.00  0.00    +0.000 A 
ATOM     18  C   UNL     1      47.767   8.875  21.082  0.00  0.00    +0.000 A 
ENDBRANCH  10  13
ENDBRANCH   9  10
BRANCH   9  19
ATOM     19  C   UNL     1      50.144   6.080  18.499  0.00  0.00    +0.000 C 
BRANCH  19  20
ATOM     20  C   UNL     1      49.352   4.967  17.851  0.00  0.00    +0.000 A 
ATOM     21  C   UNL     1      49.889   3.666  17.828  0.00  0.00    +0.000 A 
ATOM     22  C   UNL     1      49.240   2.642  17.138  0.00  0.00    +0.000 A 
ATOM     23  C   UNL     1      48.022   2.895  16.514  0.00  0.00    +0.000 A 
ATOM     24  C   UNL     1      47.439   4.161  16.604  0.00  0.00    +0.000 A 
ATOM     25  C   UNL     1      48.098   5.193  17.274  0.00  0.00    +0.000 A 
ENDBRANCH  19  20
ENDBRANCH   9  19
ENDBRANCH   8   9
ENDBRANCH   1   8
BRANCH   4  26
ATOM     26  C   UNL     1      47.550   7.975  12.064  0.00  0.00    +0.000 C 
BRANCH  26  27
ATOM     27  N   UNL     1      46.866   6.724  11.865  0.00  0.00    +0.000 N 
ATOM     28  C   UNL     1      45.506   6.610  11.970  0.00  0.00    +0.000 C 
ATOM     29  O   UNL     1      44.786   7.573  12.204  0.00  0.00    +0.000 OA
ATOM     30  H   UNL     1      47.441   5.887  11.892  0.00  0.00    +0.000 HD
BRANCH  28  31
ATOM     31  C   UNL     1      44.951   5.274  11.721  0.00  0.00    +0.000 A 
ATOM     32  C   UNL     1      44.287   4.601  12.738  0.00  0.00    +0.000 A 
ATOM     33  S   UNL     1      43.637   3.100  12.251  0.00  0.00    +0.000 S 
ATOM     34  C   UNL     1      44.270   3.271  10.681  0.00  0.00    +0.000 A 
ATOM     35  N   UNL     1      44.080   2.303   9.743  0.00  0.00    +0.000 NA
ATOM     36  C   UNL     1      44.632   2.553   8.601  0.00  0.00    +0.000 A 
ATOM     37  N   UNL     1      45.354   3.683   8.314  0.00  0.00    +0.000 N 
ATOM     38  C   UNL     1      45.551   4.691   9.223  0.00  0.00    +0.000 A 
ATOM     39  O   UNL     1      46.181   5.703   8.919  0.00  0.00    +0.000 OA
ATOM     40  C   UNL     1      44.954   4.462  10.523  0.00  0.00    +0.000 A 
ATOM     41  H   UNL     1      45.756   3.816   7.399  0.00  0.00    +0.000 HD
ENDBRANCH  28  31
ENDBRANCH  26  27
ENDBRANCH   4  26
TORSDOF 9
ENDMDL
MODEL 3
REMARK VINA RESULT:    -7.096      1.243      3.152
REMARK INTER + INTRA:         -14.026
REMARK INTER:                 -10.526
REMARK INTRA:                  -3.501
REMARK UNBOUND:                -3.196
REMARK  Name = 
REMARK  12 active torsions:
REMARK  status: ('A' for Active; 'I' for Inactive)
REMARK    1  A    between atoms: C_1  and  C_2
REMARK    2  A    between atoms: C_2  and  C_3
REMARK    3  A    between atoms: C_2  and  N_23
REMARK    4  A    between atoms: C_6  and  C_7
REMARK    5  A    between atoms: C_7  and  N_8
REMARK    6  A    between atoms: C_9  and  C_11
REMARK    7  A    between atoms: N_23  and  C_24
REMARK    8  A    between atoms: N_23  and  C_31
REMARK    9  A    between atoms: C_24  and  C_25
REMARK   10  A    between atoms: C_31  and  C_32
REMARK   11  A    between atoms: C_31  and  C_33
REMARK   12  A    between atoms: C_31  and  C_34
REMARK                            x       y       z     vdW  Elec       q    Type
REMARK                         _______ _______ _______ _____ _____    ______ ____
ROOT
ATOM      1  C   UNL     1      48.905   8.229  15.936  0.00  0.00    +0.000 A 
ATOM      2  C   UNL     1      49.195   7.055  15.220  0.00  0.00    +0.000 A 
ATOM      3  C   UNL     1      48.860   6.942  13.872  0.00  0.00    +0.000 A 
ATOM      4  C   UNL     1      48.223   7.999  13.212  0.00  0.00    +0.000 A 
ATOM      5  C   UNL     1      47.940   9.176  13.919  0.00  0.00    +0.000 A 
ATOM      6  C   UNL     1      48.301   9.302  15.262  0.00  0.00    +0.000 A 
ENDROOT
BRANCH   1   8
ATOM      7  C   UNL     1      50.099   9.690  17.399  0.00  0.00    +0.000 C 
ATOM      8  C   UNL     1      49.297   8.362  17.409  0.00  0.00    +0.000 C 
BRANCH   8   9
ATOM      9  N   UNL     1      49.957   7.128  17.977  0.00  0.00    +0.000 NA
BRANCH   9  10
ATOM     10  C   UNL     1      49.042   6.232  18.835  0.00  0.00    +0.000 C 
ATOM     11  C   UNL     1      49.577   6.093  20.294  0.00  0.00    +0.000 C 
ATOM     12  C   UNL     1      47.563   6.697  19.020  0.00  0.00    +0.000 C 
BRANCH  10  13
ATOM     13  C   UNL     1      48.852   4.843  18.139  0.00  0.00    +0.000 A 
ATOM     14  C   UNL     1      47.605   4.388  17.676  0.00  0.00    +0.000 A 
ATOM     15  C   UNL     1      47.482   3.160  17.021  0.00  0.00    +0.000 A 
ATOM     16  C   UNL     1      48.603   2.362  16.811  0.00  0.00    +0.000 A 
ATOM     17  C   UNL     1      49.846   2.781  17.274  0.00  0.00    +0.000 A 
ATOM     18  C   UNL     1      49.968   4.002  17.942  0.00  0.00    +0.000 A 
ENDBRANCH  10  13
ENDBRANCH   9  10
BRANCH   9  19
ATOM     19  C   UNL     1      51.168   7.456  18.806  0.00  0.00    +0.000 C 
BRANCH  19  20
ATOM     20  C   UNL     1      52.521   6.958  18.353  0.00  0.00    +0.000 A 
ATOM     21  C   UNL     1      52.672   6.480  17.037  0.00  0.00    +0.000 A 
ATOM     22  C   UNL     1      53.874   5.907  16.624  0.00  0.00    +0.000 A 
ATOM     23  C   UNL     1      54.953   5.859  17.501  0.00  0.00    +0.000 A 
ATOM     24  C   UNL     1      54.841   6.408  18.780  0.00  0.00    +0.000 A 
ATOM     25  C   UNL     1      53.631   6.961  19.205  0.00  0.00    +0.000 A 
ENDBRANCH  19  20
ENDBRANCH   9  19
ENDBRANCH   8   9
ENDBRANCH   1   8
BRANCH   4  26
ATOM     26  C   UNL     1      47.758   7.838  11.789  0.00  0.00    +0.000 C 
BRANCH  26  27
ATOM     27  N   UNL     1      47.026   6.605  11.652  0.00  0.00    +0.000 N 
ATOM     28  C   UNL     1      45.661   6.551  11.752  0.00  0.00    +0.000 C 
ATOM     29  O   UNL     1      44.979   7.552  11.928  0.00  0.00    +0.000 OA
ATOM     30  H   UNL     1      47.567   5.750  11.729  0.00  0.00    +0.000 HD
BRANCH  28  31
ATOM     31  C   UNL     1      45.056   5.226  11.570  0.00  0.00    +0.000 A 
ATOM     32  C   UNL     1      44.390   4.619  12.627  0.00  0.00    +0.000 A 
ATOM     33  S   UNL     1      43.679   3.123  12.217  0.00  0.00    +0.000 S 
ATOM     34  C   UNL     1      44.285   3.207  10.630  0.00  0.00    +0.000 A 
ATOM     35  N   UNL     1      44.043   2.208   9.737  0.00  0.00    +0.000 NA
ATOM     36  C   UNL     1      44.580   2.391   8.575  0.00  0.00    +0.000 A 
ATOM     37  N   UNL     1      45.334   3.481   8.226  0.00  0.00    +0.000 N 
ATOM     38  C   UNL     1      45.585   4.519   9.088  0.00  0.00    +0.000 A 
ATOM     39  O   UNL     1      46.243   5.494   8.729  0.00  0.00    +0.000 OA
ATOM     40  C   UNL     1      45.006   4.365  10.408  0.00  0.00    +0.000 A 
ATOM     41  H   UNL     1      45.722   3.562   7.299  0.00  0.00    +0.000 HD
ENDBRANCH  28  31
ENDBRANCH  26  27
ENDBRANCH   4  26
TORSDOF 9
ENDMDL
MODEL 4
REMARK VINA RESULT:    -6.787      2.244      3.868
REMARK INTER + INTRA:         -13.555
REMARK INTER:                 -10.150
REMARK INTRA:                  -3.405
REMARK UNBOUND:                -3.196
REMARK  Name = 
REMARK  12 active torsions:
REMARK  status: ('A' for Active; 'I' for Inactive)
REMARK    1  A    between atoms: C_1  and  C_2
REMARK    2  A    between atoms: C_2  and  C_3
REMARK    3  A    between atoms: C_2  and  N_23
REMARK    4  A    between atoms: C_6  and  C_7
REMARK    5  A    between atoms: C_7  and  N_8
REMARK    6  A    between atoms: C_9  and  C_11
REMARK    7  A    between atoms: N_23  and  C_24
REMARK    8  A    between atoms: N_23  and  C_31
REMARK    9  A    between atoms: C_24  and  C_25
REMARK   10  A    between atoms: C_31  and  C_32
REMARK   11  A    between atoms: C_31  and  C_33
REMARK   12  A    between atoms: C_31  and  C_34
REMARK                            x       y       z     vdW  Elec       q    Type
REMARK                         _______ _______ _______ _____ _____    ______ ____
ROOT
ATOM      1  C   UNL     1      49.983   7.689  18.106  0.00  0.00    +0.000 A 
ATOM      2  C   UNL     1      49.006   8.679  17.904  0.00  0.00    +0.000 A 
ATOM      3  C   UNL     1      48.481   8.913  16.635  0.00  0.00    +0.000 A 
ATOM      4  C   UNL     1      48.924   8.165  15.539  0.00  0.00    +0.000 A 
ATOM      5  C   UNL     1      49.891   7.169  15.736  0.00  0.00    +0.000 A 
ATOM      6  C   UNL     1      50.398   6.914  17.011  0.00  0.00    +0.000 A 
ENDROOT
BRANCH   1   8
ATOM      7  C   UNL     1      51.953   8.053  19.406  0.00  0.00    +0.000 C 
ATOM      8  C   UNL     1      50.541   7.416  19.504  0.00  0.00    +0.000 C 
BRANCH   8   9
ATOM      9  N   UNL     1      50.432   5.971  19.931  0.00  0.00    +0.000 NA
BRANCH   9  10
ATOM     10  C   UNL     1      48.994   5.459  20.146  0.00  0.00    +0.000 C 
ATOM     11  C   UNL     1      48.867   4.638  21.467  0.00  0.00    +0.000 C 
ATOM     12  C   UNL     1      47.866   6.533  20.261  0.00  0.00    +0.000 C 
BRANCH  10  13
ATOM     13  C   UNL     1      48.526   4.643  18.895  0.00  0.00    +0.000 A 
ATOM     14  C   UNL     1      47.383   4.981  18.149  0.00  0.00    +0.000 A 
ATOM     15  C   UNL     1      47.021   4.254  17.013  0.00  0.00    +0.000 A 
ATOM     16  C   UNL     1      47.797   3.177  16.593  0.00  0.00    +0.000 A 
ATOM     17  C   UNL     1      48.924   2.811  17.322  0.00  0.00    +0.000 A 
ATOM     18  C   UNL     1      49.278   3.528  18.467  0.00  0.00    +0.000 A 
ENDBRANCH  10  13
ENDBRANCH   9  10
BRANCH   9  19
ATOM     19  C   UNL     1      51.202   5.687  21.191  0.00  0.00    +0.000 C 
BRANCH  19  20
ATOM     20  C   UNL     1      52.378   4.738  21.131  0.00  0.00    +0.000 A 
ATOM     21  C   UNL     1      52.807   4.254  19.880  0.00  0.00    +0.000 A 
ATOM     22  C   UNL     1      53.811   3.291  19.798  0.00  0.00    +0.000 A 
ATOM     23  C   UNL     1      54.435   2.844  20.959  0.00  0.00    +0.000 A 
ATOM     24  C   UNL     1      54.076   3.380  22.198  0.00  0.00    +0.000 A 
ATOM     25  C   UNL     1      53.054   4.328  22.285  0.00  0.00    +0.000 A 
ENDBRANCH  19  20
ENDBRANCH   9  19
ENDBRANCH   8   9
ENDBRANCH   1   8
BRANCH   4  26
ATOM     26  C   UNL     1      48.443   8.490  14.150  0.00  0.00    +0.000 C 
BRANCH  26  27
ATOM     27  N   UNL     1      47.388   7.584  13.775  0.00  0.00    +0.000 N 
ATOM     28  C   UNL     1      47.622   6.455  13.037  0.00  0.00    +0.000 C 
ATOM     29  O   UNL     1      48.748   6.129  12.683  0.00  0.00    +0.000 OA
ATOM     30  H   UNL     1      46.440   7.938  13.860  0.00  0.00    +0.000 HD
BRANCH  28  31
ATOM     31  C   UNL     1      46.450   5.620  12.750  0.00  0.00    +0.000 A 
ATOM     32  C   UNL     1      46.491   4.257  13.014  0.00  0.00    +0.000 A 
ATOM     33  S   UNL     1      45.018   3.456  12.698  0.00  0.00    +0.000 S 
ATOM     34  C   UNL     1      44.292   4.891  12.144  0.00  0.00    +0.000 A 
ATOM     35  N   UNL     1      43.004   4.895  11.701  0.00  0.00    +0.000 NA
ATOM     36  C   UNL     1      42.587   6.048  11.290  0.00  0.00    +0.000 A 
ATOM     37  N   UNL     1      43.339   7.194  11.284  0.00  0.00    +0.000 N 
ATOM     38  C   UNL     1      44.633   7.238  11.740  0.00  0.00    +0.000 A 
ATOM     39  O   UNL     1      45.267   8.291  11.744  0.00  0.00    +0.000 OA
ATOM     40  C   UNL     1      45.152   5.970  12.212  0.00  0.00    +0.000 A 
ATOM     41  H   UNL     1      42.950   8.062  10.951  0.00  0.00    +0.000 HD
ENDBRANCH  28  31
ENDBRANCH  26  27
ENDBRANCH   4  26
TORSDOF 9
ENDMDL
MODEL 5
REMARK VINA RESULT:    -6.598      2.790      5.654
REMARK INTER + INTRA:         -13.266
REMARK INTER:                 -10.225
REMARK INTRA:                  -3.041
REMARK UNBOUND:                -3.196
REMARK  Name = 
REMARK  12 active torsions:
REMARK  status: ('A' for Active; 'I' for Inactive)
REMARK    1  A    between atoms: C_1  and  C_2
REMARK    2  A    between atoms: C_2  and  C_3
REMARK    3  A    between atoms: C_2  and  N_23
REMARK    4  A    between atoms: C_6  and  C_7
REMARK    5  A    between atoms: C_7  and  N_8
REMARK    6  A    between atoms: C_9  and  C_11
REMARK    7  A    between atoms: N_23  and  C_24
REMARK    8  A    between atoms: N_23  and  C_31
REMARK    9  A    between atoms: C_24  and  C_25
REMARK   10  A    between atoms: C_31  and  C_32
REMARK   11  A    between atoms: C_31  and  C_33
REMARK   12  A    between atoms: C_31  and  C_34
REMARK                            x       y       z     vdW  Elec       q    Type
REMARK                         _______ _______ _______ _____ _____    ______ ____
ROOT
ATOM      1  C   UNL     1      48.625   5.484  20.029  0.00  0.00    +0.000 A 
ATOM      2  C   UNL     1      47.572   5.986  19.245  0.00  0.00    +0.000 A 
ATOM      3  C   UNL     1      47.141   5.302  18.110  0.00  0.00    +0.000 A 
ATOM      4  C   UNL     1      47.756   4.104  17.732  0.00  0.00    +0.000 A 
ATOM      5  C   UNL     1      48.800   3.594  18.516  0.00  0.00    +0.000 A 
ATOM      6  C   UNL     1      49.214   4.262  19.669  0.00  0.00    +0.000 A 
ENDROOT
BRANCH   1   8
ATOM      7  C   UNL     1      47.877   5.984  22.241  0.00  0.00    +0.000 C 
ATOM      8  C   UNL     1      49.080   6.223  21.289  0.00  0.00    +0.000 C 
BRANCH   8   9
ATOM      9  N   UNL     1      49.523   7.644  21.035  0.00  0.00    +0.000 NA
BRANCH   9  10
ATOM     10  C   UNL     1      51.048   7.869  21.065  0.00  0.00    +0.000 C 
ATOM     11  C   UNL     1      51.405   9.386  21.137  0.00  0.00    +0.000 C 
ATOM     12  C   UNL     1      51.836   7.240  22.257  0.00  0.00    +0.000 C 
BRANCH  10  13
ATOM     13  C   UNL     1      51.715   7.161  19.838  0.00  0.00    +0.000 A 
ATOM     14  C   UNL     1      51.525   7.595  18.514  0.00  0.00    +0.000 A 
ATOM     15  C   UNL     1      52.171   6.964  17.448  0.00  0.00    +0.000 A 
ATOM     16  C   UNL     1      53.024   5.889  17.682  0.00  0.00    +0.000 A 
ATOM     17  C   UNL     1      53.216   5.429  18.981  0.00  0.00    +0.000 A 
ATOM     18  C   UNL     1      52.559   6.050  20.047  0.00  0.00    +0.000 A 
ENDBRANCH  10  13
ENDBRANCH   9  10
BRANCH   9  19
ATOM     19  C   UNL     1      48.908   8.617  22.002  0.00  0.00    +0.000 C 
BRANCH  19  20
ATOM     20  C   UNL     1      47.746   9.469  21.542  0.00  0.00    +0.000 A 
ATOM     21  C   UNL     1      47.859  10.193  20.340  0.00  0.00    +0.000 A 
ATOM     22  C   UNL     1      46.855  11.077  19.946  0.00  0.00    +0.000 A 
ATOM     23  C   UNL     1      45.704  11.202  20.719  0.00  0.00    +0.000 A 
ATOM     24  C   UNL     1      45.545  10.424  21.869  0.00  0.00    +0.000 A 
ATOM     25  C   UNL     1      46.559   9.557  22.277  0.00  0.00    +0.000 A 
ENDBRANCH  19  20
ENDBRANCH   9  19
ENDBRANCH   8   9
ENDBRANCH   1   8
BRANCH   4  26
ATOM     26  C   UNL     1      47.370   3.422  16.446  0.00  0.00    +0.000 C 
BRANCH  26  27
ATOM     27  N   UNL     1      46.758   4.373  15.555  0.00  0.00    +0.000 N 
ATOM     28  C   UNL     1      46.814   4.239  14.193  0.00  0.00    +0.000 C 
ATOM     29  O   UNL     1      47.356   3.284  13.653  0.00  0.00    +0.000 OA
ATOM     30  H   UNL     1      46.503   5.269  15.958  0.00  0.00    +0.000 HD
BRANCH  28  31
ATOM     31  C   UNL     1      46.126   5.277  13.416  0.00  0.00    +0.000 A 
ATOM     32  C   UNL     1      46.737   6.509  13.215  0.00  0.00    +0.000 A 
ATOM     33  S   UNL     1      45.834   7.564  12.224  0.00  0.00    +0.000 S 
ATOM     34  C   UNL     1      44.570   6.435  12.076  0.00  0.00    +0.000 A 
ATOM     35  N   UNL     1      43.456   6.726  11.350  0.00  0.00    +0.000 NA
ATOM     36  C   UNL     1      42.567   5.787  11.339  0.00  0.00    +0.000 A 
ATOM     37  N   UNL     1      42.693   4.585  11.987  0.00  0.00    +0.000 N 
ATOM     38  C   UNL     1      43.807   4.244  12.713  0.00  0.00    +0.000 A 
ATOM     39  O   UNL     1      43.895   3.145  13.257  0.00  0.00    +0.000 OA
ATOM     40  C   UNL     1      44.836   5.263  12.759  0.00  0.00    +0.000 A 
ATOM     41  H   UNL     1      41.961   3.895  11.935  0.00  0.00    +0.000 HD
ENDBRANCH  28  31
ENDBRANCH  26  27
ENDBRANCH   4  26
TORSDOF 9
ENDMDL
MODEL 6
REMARK VINA RESULT:    -6.456      1.935      4.025
REMARK INTER + INTRA:         -13.049
REMARK INTER:                 -10.400
REMARK INTRA:                  -2.649
REMARK UNBOUND:                -3.196
REMARK  Name = 
REMARK  12 active torsions:
REMARK  status: ('A' for Active; 'I' for Inactive)
REMARK    1  A    between atoms: C_1  and  C_2
REMARK    2  A    between atoms: C_2  and  C_3
REMARK    3  A    between atoms: C_2  and  N_23
REMARK    4  A    between atoms: C_6  and  C_7
REMARK    5  A    between atoms: C_7  and  N_8
REMARK    6  A    between atoms: C_9  and  C_11
REMARK    7  A    between atoms: N_23  and  C_24
REMARK    8  A    between atoms: N_23  and  C_31
REMARK    9  A    between atoms: C_24  and  C_25
REMARK   10  A    between atoms: C_31  and  C_32
REMARK   11  A    between atoms: C_31  and  C_33
REMARK   12  A    between atoms: C_31  and  C_34
REMARK                            x       y       z     vdW  Elec       q    Type
REMARK                         _______ _______ _______ _____ _____    ______ ____
ROOT
ATOM      1  C   UNL     1      49.172   8.013  17.161  0.00  0.00    +0.000 A 
ATOM      2  C   UNL     1      50.128   7.241  16.478  0.00  0.00    +0.000 A 
ATOM      3  C   UNL     1      50.160   7.217  15.085  0.00  0.00    +0.000 A 
ATOM      4  C   UNL     1      49.235   7.961  14.345  0.00  0.00    +0.000 A 
ATOM      5  C   UNL     1      48.287   8.741  15.020  0.00  0.00    +0.000 A 
ATOM      6  C   UNL     1      48.271   8.789  16.415  0.00  0.00    +0.000 A 
ENDROOT
BRANCH   1   8
ATOM      7  C   UNL     1      49.823   9.431  18.968  0.00  0.00    +0.000 C 
ATOM      8  C   UNL     1      49.154   8.058  18.690  0.00  0.00    +0.000 C 
BRANCH   8   9
ATOM      9  N   UNL     1      49.739   6.828  19.342  0.00  0.00    +0.000 NA
BRANCH   9  10
ATOM     10  C   UNL     1      48.715   5.742  19.728  0.00  0.00    +0.000 C 
ATOM     11  C   UNL     1      49.098   5.039  21.067  0.00  0.00    +0.000 C 
ATOM     12  C   UNL     1      47.240   6.203  19.954  0.00  0.00    +0.000 C 
BRANCH  10  13
ATOM     13  C   UNL     1      48.550   4.725  18.550  0.00  0.00    +0.000 A 
ATOM     14  C   UNL     1      49.492   3.717  18.277  0.00  0.00    +0.000 A 
ATOM     15  C   UNL     1      49.289   2.800  17.242  0.00  0.00    +0.000 A 
ATOM     16  C   UNL     1      48.138   2.866  16.462  0.00  0.00    +0.000 A 
ATOM     17  C   UNL     1      47.197   3.864  16.700  0.00  0.00    +0.000 A 
ATOM     18  C   UNL     1      47.406   4.791  17.725  0.00  0.00    +0.000 A 
ENDBRANCH  10  13
ENDBRANCH   9  10
BRANCH   9  19
ATOM     19  C   UNL     1      50.529   7.157  20.579  0.00  0.00    +0.000 C 
BRANCH  19  20
ATOM     20  C   UNL     1      52.024   6.933  20.571  0.00  0.00    +0.000 A 
ATOM     21  C   UNL     1      52.650   6.441  21.732  0.00  0.00    +0.000 A 
ATOM     22  C   UNL     1      54.039   6.332  21.798  0.00  0.00    +0.000 A 
ATOM     23  C   UNL     1      54.810   6.659  20.686  0.00  0.00    +0.000 A 
ATOM     24  C   UNL     1      54.193   7.066  19.501  0.00  0.00    +0.000 A 
ATOM     25  C   UNL     1      52.805   7.198  19.440  0.00  0.00    +0.000 A 
ENDBRANCH  19  20
ENDBRANCH   9  19
ENDBRANCH   8   9
ENDBRANCH   1   8
BRANCH   4  26
ATOM     26  C   UNL     1      49.195   7.850  12.843  0.00  0.00    +0.000 C 
BRANCH  26  27
ATOM     27  N   UNL     1      47.875   7.461  12.419  0.00  0.00    +0.000 N 
ATOM     28  C   UNL     1      47.370   6.211  12.657  0.00  0.00    +0.000 C 
ATOM     29  O   UNL     1      47.996   5.361  13.277  0.00  0.00    +0.000 OA
ATOM     30  H   UNL     1      47.432   8.055  11.725  0.00  0.00    +0.000 HD
BRANCH  28  31
ATOM     31  C   UNL     1      46.002   5.969  12.182  0.00  0.00    +0.000 A 
ATOM     32  C   UNL     1      45.266   7.011  11.634  0.00  0.00    +0.000 A 
ATOM     33  S   UNL     1      43.731   6.535  11.061  0.00  0.00    +0.000 S 
ATOM     34  C   UNL     1      43.973   4.932  11.577  0.00  0.00    +0.000 A 
ATOM     35  N   UNL     1      43.010   3.987  11.395  0.00  0.00    +0.000 NA
ATOM     36  C   UNL     1      43.318   2.818  11.854  0.00  0.00    +0.000 A 
ATOM     37  N   UNL     1      44.500   2.510  12.474  0.00  0.00    +0.000 N 
ATOM     38  C   UNL     1      45.505   3.426  12.659  0.00  0.00    +0.000 A 
ATOM     39  O   UNL     1      46.564   3.104  13.196  0.00  0.00    +0.000 OA
ATOM     40  C   UNL     1      45.212   4.756  12.165  0.00  0.00    +0.000 A 
ATOM     41  H   UNL     1      44.677   1.575  12.806  0.00  0.00    +0.000 HD
ENDBRANCH  28  31
ENDBRANCH  26  27
ENDBRANCH   4  26
TORSDOF 9
ENDMDL
MODEL 7
REMARK VINA RESULT:    -6.449      1.973      4.471
REMARK INTER + INTRA:         -13.038
REMARK INTER:                 -10.089
REMARK INTRA:                  -2.949
REMARK UNBOUND:                -3.196
REMARK  Name = 
REMARK  12 active torsions:
REMARK  status: ('A' for Active; 'I' for Inactive)
REMARK    1  A    between atoms: C_1  and  C_2
REMARK    2  A    between atoms: C_2  and  C_3
REMARK    3  A    between atoms: C_2  and  N_23
REMARK    4  A    between atoms: C_6  and  C_7
REMARK    5  A    between atoms: C_7  and  N_8
REMARK    6  A    between atoms: C_9  and  C_11
REMARK    7  A    between atoms: N_23  and  C_24
REMARK    8  A    between atoms: N_23  and  C_31
REMARK    9  A    between atoms: C_24  and  C_25
REMARK   10  A    between atoms: C_31  and  C_32
REMARK   11  A    between atoms: C_31  and  C_33
REMARK   12  A    between atoms: C_31  and  C_34
REMARK                            x       y       z     vdW  Elec       q    Type
REMARK                         _______ _______ _______ _____ _____    ______ ____
ROOT
ATOM      1  C   UNL     1      49.213   5.674  17.098  0.00  0.00    +0.000 A 
ATOM      2  C   UNL     1      49.786   6.884  16.671  0.00  0.00    +0.000 A 
ATOM      3  C   UNL     1      49.423   7.452  15.451  0.00  0.00    +0.000 A 
ATOM      4  C   UNL     1      48.483   6.820  14.630  0.00  0.00    +0.000 A 
ATOM      5  C   UNL     1      47.900   5.619  15.056  0.00  0.00    +0.000 A 
ATOM      6  C   UNL     1      48.241   5.063  16.290  0.00  0.00    +0.000 A 
ENDROOT
BRANCH   1   8
ATOM      7  C   UNL     1      48.463   4.018  18.647  0.00  0.00    +0.000 C 
ATOM      8  C   UNL     1      49.593   5.064  18.449  0.00  0.00    +0.000 C 
BRANCH   8   9
ATOM      9  N   UNL     1      49.822   6.088  19.535  0.00  0.00    +0.000 NA
BRANCH   9  10
ATOM     10  C   UNL     1      51.090   5.866  20.385  0.00  0.00    +0.000 C 
ATOM     11  C   UNL     1      51.577   7.192  21.047  0.00  0.00    +0.000 C 
ATOM     12  C   UNL     1      50.980   4.867  21.579  0.00  0.00    +0.000 C 
BRANCH  10  13
ATOM     13  C   UNL     1      52.204   5.195  19.513  0.00  0.00    +0.000 A 
ATOM     14  C   UNL     1      52.658   3.883  19.736  0.00  0.00    +0.000 A 
ATOM     15  C   UNL     1      53.624   3.304  18.910  0.00  0.00    +0.000 A 
ATOM     16  C   UNL     1      54.153   4.020  17.840  0.00  0.00    +0.000 A 
ATOM     17  C   UNL     1      53.734   5.326  17.607  0.00  0.00    +0.000 A 
ATOM     18  C   UNL     1      52.779   5.912  18.442  0.00  0.00    +0.000 A 
ENDBRANCH  10  13
ENDBRANCH   9  10
BRANCH   9  19
ATOM     19  C   UNL     1      48.660   6.187  20.483  0.00  0.00    +0.000 C 
BRANCH  19  20
ATOM     20  C   UNL     1      47.893   7.488  20.567  0.00  0.00    +0.000 A 
ATOM     21  C   UNL     1      47.591   8.184  19.381  0.00  0.00    +0.000 A 
ATOM     22  C   UNL     1      46.989   9.440  19.429  0.00  0.00    +0.000 A 
ATOM     23  C   UNL     1      46.631   9.987  20.658  0.00  0.00    +0.000 A 
ATOM     24  C   UNL     1      46.849   9.267  21.835  0.00  0.00    +0.000 A 
ATOM     25  C   UNL     1      47.473   8.019  21.791  0.00  0.00    +0.000 A 
ENDBRANCH  19  20
ENDBRANCH   9  19
ENDBRANCH   8   9
ENDBRANCH   1   8
BRANCH   4  26
ATOM     26  C   UNL     1      48.173   7.371  13.264  0.00  0.00    +0.000 C 
BRANCH  26  27
ATOM     27  N   UNL     1      47.405   6.411  12.514  0.00  0.00    +0.000 N 
ATOM     28  C   UNL     1      46.374   6.781  11.692  0.00  0.00    +0.000 C 
ATOM     29  O   UNL     1      46.068   7.954  11.517  0.00  0.00    +0.000 OA
ATOM     30  H   UNL     1      47.488   5.442  12.805  0.00  0.00    +0.000 HD
BRANCH  28  31
ATOM     31  C   UNL     1      45.698   5.692  10.978  0.00  0.00    +0.000 A 
ATOM     32  C   UNL     1      45.822   5.586   9.599  0.00  0.00    +0.000 A 
ATOM     33  S   UNL     1      45.040   4.218   8.946  0.00  0.00    +0.000 S 
ATOM     34  C   UNL     1      44.459   3.750  10.475  0.00  0.00    +0.000 A 
ATOM     35  N   UNL     1      43.687   2.638  10.618  0.00  0.00    +0.000 NA
ATOM     36  C   UNL     1      43.297   2.412  11.830  0.00  0.00    +0.000 A 
ATOM     37  N   UNL     1      43.612   3.197  12.910  0.00  0.00    +0.000 N 
ATOM     38  C   UNL     1      44.403   4.314  12.813  0.00  0.00    +0.000 A 
ATOM     39  O   UNL     1      44.685   4.977  13.809  0.00  0.00    +0.000 OA
ATOM     40  C   UNL     1      44.866   4.615  11.473  0.00  0.00    +0.000 A 
ATOM     41  H   UNL     1      43.276   2.961  13.830  0.00  0.00    +0.000 HD
ENDBRANCH  28  31
ENDBRANCH  26  27
ENDBRANCH   4  26
TORSDOF 9
ENDMDL
MODEL 8
REMARK VINA RESULT:    -6.045      3.952      8.172
REMARK INTER + INTRA:         -12.422
REMARK INTER:                  -9.396
REMARK INTRA:                  -3.025
REMARK UNBOUND:                -3.196
REMARK  Name = 
REMARK  12 active torsions:
REMARK  status: ('A' for Active; 'I' for Inactive)
REMARK    1  A    between atoms: C_1  and  C_2
REMARK    2  A    between atoms: C_2  and  C_3
REMARK    3  A    between atoms: C_2  and  N_23
REMARK    4  A    between atoms: C_6  and  C_7
REMARK    5  A    between atoms: C_7  and  N_8
REMARK    6  A    between atoms: C_9  and  C_11
REMARK    7  A    between atoms: N_23  and  C_24
REMARK    8  A    between atoms: N_23  and  C_31
REMARK    9  A    between atoms: C_24  and  C_25
REMARK   10  A    between atoms: C_31  and  C_32
REMARK   11  A    between atoms: C_31  and  C_33
REMARK   12  A    between atoms: C_31  and  C_34
REMARK                            x       y       z     vdW  Elec       q    Type
REMARK                         _______ _______ _______ _____ _____    ______ ____
ROOT
ATOM      1  C   UNL     1      51.242   9.933  13.538  0.00  0.00    +0.000 A 
ATOM      2  C   UNL     1      49.889  10.186  13.819  0.00  0.00    +0.000 A 
ATOM      3  C   UNL     1      49.113   9.243  14.490  0.00  0.00    +0.000 A 
ATOM      4  C   UNL     1      49.673   8.025  14.892  0.00  0.00    +0.000 A 
ATOM      5  C   UNL     1      51.025   7.773  14.624  0.00  0.00    +0.000 A 
ATOM      6  C   UNL     1      51.811   8.728  13.977  0.00  0.00    +0.000 A 
ENDROOT
BRANCH   1   8
ATOM      7  C   UNL     1      51.525  12.301  13.404  0.00  0.00    +0.000 C 
ATOM      8  C   UNL     1      52.100  10.980  12.824  0.00  0.00    +0.000 C 
BRANCH   8   9
ATOM      9  N   UNL     1      52.140  10.812  11.323  0.00  0.00    +0.000 NA
BRANCH   9  10
ATOM     10  C   UNL     1      53.492  10.335  10.756  0.00  0.00    +0.000 C 
ATOM     11  C   UNL     1      54.185  11.447   9.908  0.00  0.00    +0.000 C 
ATOM     12  C   UNL     1      54.586   9.911  11.785  0.00  0.00    +0.000 C 
BRANCH  10  13
ATOM     13  C   UNL     1      53.291   9.011   9.945  0.00  0.00    +0.000 A 
ATOM     14  C   UNL     1      53.249   7.744  10.554  0.00  0.00    +0.000 A 
ATOM     15  C   UNL     1      53.026   6.589   9.801  0.00  0.00    +0.000 A 
ATOM     16  C   UNL     1      52.833   6.674   8.426  0.00  0.00    +0.000 A 
ATOM     17  C   UNL     1      52.886   7.913   7.796  0.00  0.00    +0.000 A 
ATOM     18  C   UNL     1      53.125   9.068   8.545  0.00  0.00    +0.000 A 
ENDBRANCH  10  13
ENDBRANCH   9  10
BRANCH   9  19
ATOM     19  C   UNL     1      51.770  12.075  10.596  0.00  0.00    +0.000 C 
BRANCH  19  20
ATOM     20  C   UNL     1      50.526  12.085   9.736  0.00  0.00    +0.000 A 
ATOM     21  C   UNL     1      50.656  12.235   8.342  0.00  0.00    +0.000 A 
ATOM     22  C   UNL     1      49.527  12.364   7.534  0.00  0.00    +0.000 A 
ATOM     23  C   UNL     1      48.259  12.286   8.103  0.00  0.00    +0.000 A 
ATOM     24  C   UNL     1      48.119  12.051   9.472  0.00  0.00    +0.000 A 
ATOM     25  C   UNL     1      49.247  11.945  10.287  0.00  0.00    +0.000 A 
ENDBRANCH  19  20
ENDBRANCH   9  19
ENDBRANCH   8   9
ENDBRANCH   1   8
BRANCH   4  26
ATOM     26  C   UNL     1      48.811   6.960  15.516  0.00  0.00    +0.000 C 
BRANCH  26  27
ATOM     27  N   UNL     1      47.616   6.779  14.732  0.00  0.00    +0.000 N 
ATOM     28  C   UNL     1      47.636   6.187  13.497  0.00  0.00    +0.000 C 
ATOM     29  O   UNL     1      48.664   5.744  13.002  0.00  0.00    +0.000 OA
ATOM     30  H   UNL     1      46.808   7.324  15.012  0.00  0.00    +0.000 HD
BRANCH  28  31
ATOM     31  C   UNL     1      46.336   6.055  12.827  0.00  0.00    +0.000 A 
ATOM     32  C   UNL     1      45.695   7.184  12.334  0.00  0.00    +0.000 A 
ATOM     33  S   UNL     1      44.238   6.838  11.516  0.00  0.00    +0.000 S 
ATOM     34  C   UNL     1      44.384   5.175  11.842  0.00  0.00    +0.000 A 
ATOM     35  N   UNL     1      43.436   4.295  11.418  0.00  0.00    +0.000 NA
ATOM     36  C   UNL     1      43.662   3.067  11.753  0.00  0.00    +0.000 A 
ATOM     37  N   UNL     1      44.750   2.641  12.470  0.00  0.00    +0.000 N 
ATOM     38  C   UNL     1      45.738   3.491  12.899  0.00  0.00    +0.000 A 
ATOM     39  O   UNL     1      46.713   3.066  13.516  0.00  0.00    +0.000 OA
ATOM     40  C   UNL     1      45.534   4.882  12.551  0.00  0.00    +0.000 A 
ATOM     41  H   UNL     1      44.865   1.665  12.696  0.00  0.00    +0.000 HD
ENDBRANCH  28  31
ENDBRANCH  26  27
ENDBRANCH   4  26
TORSDOF 9
ENDMDL
MODEL 9
REMARK VINA RESULT:    -6.010      2.750      6.130
REMARK INTER + INTRA:         -12.369
REMARK INTER:                  -8.812
REMARK INTRA:                  -3.557
REMARK UNBOUND:                -3.196
REMARK  Name = 
REMARK  12 active torsions:
REMARK  status: ('A' for Active; 'I' for Inactive)
REMARK    1  A    between atoms: C_1  and  C_2
REMARK    2  A    between atoms: C_2  and  C_3
REMARK    3  A    between atoms: C_2  and  N_23
REMARK    4  A    between atoms: C_6  and  C_7
REMARK    5  A    between atoms: C_7  and  N_8
REMARK    6  A    between atoms: C_9  and  C_11
REMARK    7  A    between atoms: N_23  and  C_24
REMARK    8  A    between atoms: N_23  and  C_31
REMARK    9  A    between atoms: C_24  and  C_25
REMARK   10  A    between atoms: C_31  and  C_32
REMARK   11  A    between atoms: C_31  and  C_33
REMARK   12  A    between atoms: C_31  and  C_34
REMARK                            x       y       z     vdW  Elec       q    Type
REMARK                         _______ _______ _______ _____ _____    ______ ____
ROOT
ATOM      1  C   UNL     1      49.175   6.818  19.058  0.00  0.00    +0.000 A 
ATOM      2  C   UNL     1      47.865   6.372  19.301  0.00  0.00    +0.000 A 
ATOM      3  C   UNL     1      47.292   5.380  18.507  0.00  0.00    +0.000 A 
ATOM      4  C   UNL     1      48.016   4.814  17.452  0.00  0.00    +0.000 A 
ATOM      5  C   UNL     1      49.327   5.248  17.212  0.00  0.00    +0.000 A 
ATOM      6  C   UNL     1      49.913   6.221  18.024  0.00  0.00    +0.000 A 
ENDROOT
BRANCH   1   8
ATOM      7  C   UNL     1      49.250   7.509  21.342  0.00  0.00    +0.000 C 
ATOM      8  C   UNL     1      49.812   7.889  19.946  0.00  0.00    +0.000 C 
BRANCH   8   9
ATOM      9  N   UNL     1      49.600   9.298  19.445  0.00  0.00    +0.000 NA
BRANCH   9  10
ATOM     10  C   UNL     1      50.831   9.948  18.782  0.00  0.00    +0.000 C 
ATOM     11  C   UNL     1      51.155  11.340  19.410  0.00  0.00    +0.000 C 
ATOM     12  C   UNL     1      52.182   9.171  18.874  0.00  0.00    +0.000 C 
BRANCH  10  13
ATOM     13  C   UNL     1      50.620  10.032  17.234  0.00  0.00    +0.000 A 
ATOM     14  C   UNL     1      51.675   9.907  16.313  0.00  0.00    +0.000 A 
ATOM     15  C   UNL     1      51.441   9.945  14.937  0.00  0.00    +0.000 A 
ATOM     16  C   UNL     1      50.147  10.103  14.449  0.00  0.00    +0.000 A 
ATOM     17  C   UNL     1      49.086  10.246  15.339  0.00  0.00    +0.000 A 
ATOM     18  C   UNL     1      49.321  10.224  16.716  0.00  0.00    +0.000 A 
ENDBRANCH  10  13
ENDBRANCH   9  10
BRANCH   9  19
ATOM     19  C   UNL     1      49.134  10.227  20.531  0.00  0.00    +0.000 C 
BRANCH  19  20
ATOM     20  C   UNL     1      47.753  10.835  20.430  0.00  0.00    +0.000 A 
ATOM     21  C   UNL     1      47.624  12.195  20.091  0.00  0.00    +0.000 A 
ATOM     22  C   UNL     1      46.375  12.815  20.103  0.00  0.00    +0.000 A 
ATOM     23  C   UNL     1      45.237  12.068  20.395  0.00  0.00    +0.000 A 
ATOM     24  C   UNL     1      45.344  10.699  20.648  0.00  0.00    +0.000 A 
ATOM     25  C   UNL     1      46.596  10.081  20.661  0.00  0.00    +0.000 A 
ENDBRANCH  19  20
ENDBRANCH   9  19
ENDBRANCH   8   9
ENDBRANCH   1   8
BRANCH   4  26
ATOM     26  C   UNL     1      47.362   3.825  16.524  0.00  0.00    +0.000 C 
BRANCH  26  27
ATOM     27  N   UNL     1      46.641   4.526  15.493  0.00  0.00    +0.000 N 
ATOM     28  C   UNL     1      46.664   4.125  14.184  0.00  0.00    +0.000 C 
ATOM     29  O   UNL     1      47.269   3.126  13.818  0.00  0.00    +0.000 OA
ATOM     30  H   UNL     1      46.323   5.462  15.724  0.00  0.00    +0.000 HD
BRANCH  28  31
ATOM     31  C   UNL     1      45.864   4.929  13.252  0.00  0.00    +0.000 A 
ATOM     32  C   UNL     1      44.847   4.330  12.520  0.00  0.00    +0.000 A 
ATOM     33  S   UNL     1      43.969   5.425  11.550  0.00  0.00    +0.000 S 
ATOM     34  C   UNL     1      44.953   6.727  12.029  0.00  0.00    +0.000 A 
ATOM     35  N   UNL     1      44.740   7.980  11.541  0.00  0.00    +0.000 NA
ATOM     36  C   UNL     1      45.574   8.868  11.973  0.00  0.00    +0.000 A 
ATOM     37  N   UNL     1      46.598   8.617  12.849  0.00  0.00    +0.000 N 
ATOM     38  C   UNL     1      46.835   7.375  13.381  0.00  0.00    +0.000 A 
ATOM     39  O   UNL     1      47.747   7.195  14.185  0.00  0.00    +0.000 OA
ATOM     40  C   UNL     1      45.929   6.338  12.928  0.00  0.00    +0.000 A 
ATOM     41  H   UNL     1      47.212   9.359  13.147  0.00  0.00    +0.000 HD
ENDBRANCH  28  31
ENDBRANCH  26  27
ENDBRANCH   4  26
TORSDOF 9
ENDMDL
