MODEL 1
REMARK VINA RESULT:    -8.509      0.000      0.000
REMARK INTER + INTRA:         -11.398
REMARK INTER:                 -10.747
REMARK INTRA:                  -0.651
REMARK UNBOUND:                -0.651
REMARK  Name = 
REMARK  5 active torsions:
REMARK  status: ('A' for Active; 'I' for Inactive)
REMARK    1  A    between atoms: O_1  and  C_2
REMARK    2  A    between atoms: C_5  and  O_6
REMARK    3  A    between atoms: O_6  and  C_7
REMARK    4  A    between atoms: C_7  and  C_8
REMARK    5  A    between atoms: C_12  and  C_13
REMARK                            x       y       z     vdW  Elec       q    Type
REMARK                         _______ _______ _______ _____ _____    ______ ____
ROOT
ATOM      1  C   UNL     1      44.373   3.414  10.627  0.00  0.00    +0.000 A 
ATOM      2  N   UNL     1      43.834   2.750  11.676  0.00  0.00    +0.000 NA
ATOM      3  N   UNL     1      43.848   3.312  12.911  0.00  0.00    +0.000 NA
ATOM      4  C   UNL     1      44.337   4.564  13.063  0.00  0.00    +0.000 A 
ATOM      5  C   UNL     1      44.886   5.332  12.042  0.00  0.00    +0.000 A 
ATOM      6  C   UNL     1      44.952   4.680  10.789  0.00  0.00    +0.000 A 
ATOM      7 CL   UNL     1      45.861   5.349   9.464  0.00  0.00    +0.000 Cl
ENDROOT
BRANCH   5   8
ATOM      8  C   UNL     1      45.378   6.717  12.304  0.00  0.00    +0.000 A 
ATOM      9  C   UNL     1      46.516   6.977  13.089  0.00  0.00    +0.000 A 
ATOM     10  F   UNL     1      47.142   5.979  13.733  0.00  0.00    +0.000 F 
ATOM     11  C   UNL     1      47.049   8.262  13.231  0.00  0.00    +0.000 A 
ATOM     12  C   UNL     1      46.468   9.337  12.567  0.00  0.00    +0.000 A 
ATOM     13  C   UNL     1      45.297   9.132  11.851  0.00  0.00    +0.000 A 
ATOM     14  C   UNL     1      44.743   7.852  11.773  0.00  0.00    +0.000 A 
ATOM     15  F   UNL     1      43.542   7.745  11.181  0.00  0.00    +0.000 F 
ENDBRANCH   5   8
BRANCH   1  16
ATOM     16  C   UNL     1      44.256   2.724   9.291  0.00  0.00    +0.000 C 
BRANCH  16  17
ATOM     17  O   UNL     1      45.331   1.801   9.153  0.00  0.00    +0.000 OA
BRANCH  17  21
ATOM     18  C   UNL     1      47.613   2.345   5.839  0.00  0.00    +0.000 A 
ATOM     19  C   UNL     1      46.660   3.288   6.200  0.00  0.00    +0.000 A 
ATOM     20  N   UNL     1      45.879   3.155   7.302  0.00  0.00    +0.000 NA
ATOM     21  C   UNL     1      46.099   2.035   8.028  0.00  0.00    +0.000 A 
ATOM     22  C   UNL     1      47.054   1.097   7.664  0.00  0.00    +0.000 A 
ATOM     23  N   UNL     1      47.834   1.233   6.561  0.00  0.00    +0.000 NA
BRANCH  18  24
ATOM     24  O   UNL     1      48.389   2.477   4.721  0.00  0.00    +0.000 OA
ATOM     25  H   UNL     1      47.848   2.859   4.015  0.00  0.00    +0.000 HD
ENDBRANCH  18  24
ENDBRANCH  17  21
ENDBRANCH  16  17
ENDBRANCH   1  16
TORSDOF 5
ENDMDL
MODEL 2
REMARK VINA RESULT:    -8.425      0.848      1.867
REMARK INTER + INTRA:         -11.293
REMARK INTER:                 -10.506
REMARK INTRA:                  -0.787
REMARK UNBOUND:                -0.651
REMARK  Name = 
REMARK  5 active torsions:
REMARK  status: ('A' for Active; 'I' for Inactive)
REMARK    1  A    between atoms: O_1  and  C_2
REMARK    2  A    between atoms: C_5  and  O_6
REMARK    3  A    between atoms: O_6  and  C_7
REMARK    4  A    between atoms: C_7  and  C_8
REMARK    5  A    between atoms: C_12  and  C_13
REMARK                            x       y       z     vdW  Elec       q    Type
REMARK                         _______ _______ _______ _____ _____    ______ ____
ROOT
ATOM      1  C   UNL     1      44.736   3.849  10.835  0.00  0.00    +0.000 A 
ATOM      2  N   UNL     1      44.399   3.159  11.951  0.00  0.00    +0.000 NA
ATOM      3  N   UNL     1      44.746   3.637  13.172  0.00  0.00    +0.000 NA
ATOM      4  C   UNL     1      45.363   4.838  13.262  0.00  0.00    +0.000 A 
ATOM      5  C   UNL     1      45.724   5.628  12.177  0.00  0.00    +0.000 A 
ATOM      6  C   UNL     1      45.443   5.056  10.915  0.00  0.00    +0.000 A 
ATOM      7 CL   UNL     1      46.075   5.742   9.445  0.00  0.00    +0.000 Cl
ENDROOT
BRANCH   5   8
ATOM      8  C   UNL     1      46.381   6.954  12.379  0.00  0.00    +0.000 A 
ATOM      9  C   UNL     1      45.705   8.170  12.170  0.00  0.00    +0.000 A 
ATOM     10  F   UNL     1      44.462   8.181  11.665  0.00  0.00    +0.000 F 
ATOM     11  C   UNL     1      46.280   9.407  12.480  0.00  0.00    +0.000 A 
ATOM     12  C   UNL     1      47.553   9.468  13.036  0.00  0.00    +0.000 A 
ATOM     13  C   UNL     1      48.281   8.295  13.179  0.00  0.00    +0.000 A 
ATOM     14  C   UNL     1      47.714   7.073  12.804  0.00  0.00    +0.000 A 
ATOM     15  F   UNL     1      48.516   5.996  12.840  0.00  0.00    +0.000 F 
ENDBRANCH   5   8
BRANCH   1  16
ATOM     16  C   UNL     1      44.253   3.257   9.534  0.00  0.00    +0.000 C 
BRANCH  16  17
ATOM     17  O   UNL     1      44.915   2.015   9.320  0.00  0.00    +0.000 OA
BRANCH  17  21
ATOM     18  C   UNL     1      47.581   2.012   6.257  0.00  0.00    +0.000 A 
ATOM     19  C   UNL     1      46.840   3.150   6.544  0.00  0.00    +0.000 A 
ATOM     20  N   UNL     1      45.943   3.204   7.562  0.00  0.00    +0.000 NA
ATOM     21  C   UNL     1      45.825   2.063   8.281  0.00  0.00    +0.000 A 
ATOM     22  C   UNL     1      46.569   0.930   7.991  0.00  0.00    +0.000 A 
ATOM     23  N   UNL     1      47.466   0.879   6.973  0.00  0.00    +0.000 NA
BRANCH  18  24
ATOM     24  O   UNL     1      48.474   1.959   5.223  0.00  0.00    +0.000 OA
ATOM     25  H   UNL     1      48.010   2.187   4.404  0.00  0.00    +0.000 HD
ENDBRANCH  18  24
ENDBRANCH  17  21
ENDBRANCH  16  17
ENDBRANCH   1  16
TORSDOF 5
ENDMDL
MODEL 3
REMARK VINA RESULT:    -7.591      2.125      2.940
REMARK INTER + INTRA:         -10.239
REMARK INTER:                  -9.574
REMARK INTRA:                  -0.665
REMARK UNBOUND:                -0.651
REMARK  Name = 
REMARK  5 active torsions:
REMARK  status: ('A' for Active; 'I' for Inactive)
REMARK    1  A    between atoms: O_1  and  C_2
REMARK    2  A    between atoms: C_5  and  O_6
REMARK    3  A    between atoms: O_6  and  C_7
REMARK    4  A    between atoms: C_7  and  C_8
REMARK    5  A    between atoms: C_12  and  C_13
REMARK                            x       y       z     vdW  Elec       q    Type
REMARK                         _______ _______ _______ _____ _____    ______ ____
ROOT
ATOM      1  C   UNL     1      44.469   4.483  11.379  0.00  0.00    +0.000 A 
ATOM      2  N   UNL     1      43.699   5.548  11.055  0.00  0.00    +0.000 NA
ATOM      3  N   UNL     1      44.027   6.783  11.511  0.00  0.00    +0.000 NA
ATOM      4  C   UNL     1      45.165   6.944  12.226  0.00  0.00    +0.000 A 
ATOM      5  C   UNL     1      46.030   5.917  12.584  0.00  0.00    +0.000 A 
ATOM      6  C   UNL     1      45.608   4.628  12.183  0.00  0.00    +0.000 A 
ATOM      7 CL   UNL     1      46.388   3.191  12.780  0.00  0.00    +0.000 Cl
ENDROOT
BRANCH   5   8
ATOM      8  C   UNL     1      47.277   6.199  13.354  0.00  0.00    +0.000 A 
ATOM      9  C   UNL     1      48.350   6.929  12.811  0.00  0.00    +0.000 A 
ATOM     10  F   UNL     1      48.336   7.305  11.523  0.00  0.00    +0.000 F 
ATOM     11  C   UNL     1      49.463   7.300  13.573  0.00  0.00    +0.000 A 
ATOM     12  C   UNL     1      49.530   6.969  14.922  0.00  0.00    +0.000 A 
ATOM     13  C   UNL     1      48.529   6.180  15.470  0.00  0.00    +0.000 A 
ATOM     14  C   UNL     1      47.456   5.764  14.678  0.00  0.00    +0.000 A 
ATOM     15  F   UNL     1      46.595   4.893  15.229  0.00  0.00    +0.000 F 
ENDBRANCH   5   8
BRANCH   1  16
ATOM     16  C   UNL     1      44.047   3.167  10.775  0.00  0.00    +0.000 C 
BRANCH  16  17
ATOM     17  O   UNL     1      43.880   3.337   9.371  0.00  0.00    +0.000 OA
BRANCH  17  21
ATOM     18  C   UNL     1      47.080   2.007   7.254  0.00  0.00    +0.000 A 
ATOM     19  C   UNL     1      46.642   3.317   7.120  0.00  0.00    +0.000 A 
ATOM     20  N   UNL     1      45.584   3.812   7.811  0.00  0.00    +0.000 NA
ATOM     21  C   UNL     1      44.984   2.931   8.646  0.00  0.00    +0.000 A 
ATOM     22  C   UNL     1      45.427   1.624   8.779  0.00  0.00    +0.000 A 
ATOM     23  N   UNL     1      46.487   1.133   8.087  0.00  0.00    +0.000 NA
BRANCH  18  24
ATOM     24  O   UNL     1      48.139   1.510   6.547  0.00  0.00    +0.000 OA
ATOM     25  H   UNL     1      48.002   0.561   6.416  0.00  0.00    +0.000 HD
ENDBRANCH  18  24
ENDBRANCH  17  21
ENDBRANCH  16  17
ENDBRANCH   1  16
TORSDOF 5
ENDMDL
MODEL 4
REMARK VINA RESULT:    -7.001      1.987      3.096
REMARK INTER + INTRA:          -9.494
REMARK INTER:                  -8.849
REMARK INTRA:                  -0.644
REMARK UNBOUND:                -0.651
REMARK  Name = 
REMARK  5 active torsions:
REMARK  status: ('A' for Active; 'I' for Inactive)
REMARK    1  A    between atoms: O_1  and  C_2
REMARK    2  A    between atoms: C_5  and  O_6
REMARK    3  A    between atoms: O_6  and  C_7
REMARK    4  A    between atoms: C_7  and  C_8
REMARK    5  A    between atoms: C_12  and  C_13
REMARK                            x       y       z     vdW  Elec       q    Type
REMARK                         _______ _______ _______ _____ _____    ______ ____
ROOT
ATOM      1  C   UNL     1      44.764   4.624  12.332  0.00  0.00    +0.000 A 
ATOM      2  N   UNL     1      45.077   3.673  13.244  0.00  0.00    +0.000 NA
ATOM      3  N   UNL     1      46.170   3.826  14.032  0.00  0.00    +0.000 NA
ATOM      4  C   UNL     1      46.895   4.966  13.946  0.00  0.00    +0.000 A 
ATOM      5  C   UNL     1      46.635   6.007  13.062  0.00  0.00    +0.000 A 
ATOM      6  C   UNL     1      45.553   5.774  12.183  0.00  0.00    +0.000 A 
ATOM      7 CL   UNL     1      45.250   6.812  10.819  0.00  0.00    +0.000 Cl
ENDROOT
BRANCH   5   8
ATOM      8  C   UNL     1      47.478   7.239  13.061  0.00  0.00    +0.000 A 
ATOM      9  C   UNL     1      46.958   8.509  13.368  0.00  0.00    +0.000 A 
ATOM     10  F   UNL     1      45.641   8.677  13.566  0.00  0.00    +0.000 F 
ATOM     11  C   UNL     1      47.772   9.641  13.489  0.00  0.00    +0.000 A 
ATOM     12  C   UNL     1      49.148   9.533  13.327  0.00  0.00    +0.000 A 
ATOM     13  C   UNL     1      49.687   8.313  12.943  0.00  0.00    +0.000 A 
ATOM     14  C   UNL     1      48.851   7.208  12.764  0.00  0.00    +0.000 A 
ATOM     15  F   UNL     1      49.413   6.096  12.262  0.00  0.00    +0.000 F 
ENDBRANCH   5   8
BRANCH   1  16
ATOM     16  C   UNL     1      43.499   4.382  11.548  0.00  0.00    +0.000 C 
BRANCH  16  17
ATOM     17  O   UNL     1      43.569   3.093  10.947  0.00  0.00    +0.000 OA
BRANCH  17  21
ATOM     18  C   UNL     1      45.852   3.186   7.589  0.00  0.00    +0.000 A 
ATOM     19  C   UNL     1      45.824   2.053   8.391  0.00  0.00    +0.000 A 
ATOM     20  N   UNL     1      45.071   1.970   9.518  0.00  0.00    +0.000 NA
ATOM     21  C   UNL     1      44.345   3.075   9.803  0.00  0.00    +0.000 A 
ATOM     22  C   UNL     1      44.374   4.204   8.998  0.00  0.00    +0.000 A 
ATOM     23  N   UNL     1      45.127   4.284   7.871  0.00  0.00    +0.000 NA
BRANCH  18  24
ATOM     24  O   UNL     1      46.620   3.270   6.462  0.00  0.00    +0.000 OA
ATOM     25  H   UNL     1      47.519   3.522   6.722  0.00  0.00    +0.000 HD
ENDBRANCH  18  24
ENDBRANCH  17  21
ENDBRANCH  16  17
ENDBRANCH   1  16
TORSDOF 5
ENDMDL
MODEL 5
REMARK VINA RESULT:    -6.782      6.082      7.879
REMARK INTER + INTRA:          -9.217
REMARK INTER:                  -8.571
REMARK INTRA:                  -0.646
REMARK UNBOUND:                -0.651
REMARK  Name = 
REMARK  5 active torsions:
REMARK  status: ('A' for Active; 'I' for Inactive)
REMARK    1  A    between atoms: O_1  and  C_2
REMARK    2  A    between atoms: C_5  and  O_6
REMARK    3  A    between atoms: O_6  and  C_7
REMARK    4  A    between atoms: C_7  and  C_8
REMARK    5  A    between atoms: C_12  and  C_13
REMARK                            x       y       z     vdW  Elec       q    Type
REMARK                         _______ _______ _______ _____ _____    ______ ____
ROOT
ATOM      1  C   UNL     1      48.056   3.719  15.823  0.00  0.00    +0.000 A 
ATOM      2  N   UNL     1      48.403   2.446  15.516  0.00  0.00    +0.000 NA
ATOM      3  N   UNL     1      49.360   1.813  16.240  0.00  0.00    +0.000 NA
ATOM      4  C   UNL     1      49.905   2.440  17.308  0.00  0.00    +0.000 A 
ATOM      5  C   UNL     1      49.593   3.733  17.715  0.00  0.00    +0.000 A 
ATOM      6  C   UNL     1      48.670   4.403  16.881  0.00  0.00    +0.000 A 
ATOM      7 CL   UNL     1      48.373   6.111  17.043  0.00  0.00    +0.000 Cl
ENDROOT
BRANCH   5   8
ATOM      8  C   UNL     1      50.231   4.330  18.925  0.00  0.00    +0.000 A 
ATOM      9  C   UNL     1      49.500   4.648  20.084  0.00  0.00    +0.000 A 
ATOM     10  F   UNL     1      48.163   4.529  20.101  0.00  0.00    +0.000 F 
ATOM     11  C   UNL     1      50.117   5.089  21.260  0.00  0.00    +0.000 A 
ATOM     12  C   UNL     1      51.501   5.206  21.322  0.00  0.00    +0.000 A 
ATOM     13  C   UNL     1      52.247   4.980  20.174  0.00  0.00    +0.000 A 
ATOM     14  C   UNL     1      51.608   4.602  18.991  0.00  0.00    +0.000 A 
ATOM     15  F   UNL     1      52.368   4.531  17.885  0.00  0.00    +0.000 F 
ENDBRANCH   5   8
BRANCH   1  16
ATOM     16  C   UNL     1      46.944   4.308  14.992  0.00  0.00    +0.000 C 
BRANCH  16  17
ATOM     17  O   UNL     1      46.723   3.473  13.859  0.00  0.00    +0.000 OA
BRANCH  17  21
ATOM     18  C   UNL     1      44.000   5.038  11.285  0.00  0.00    +0.000 A 
ATOM     19  C   UNL     1      43.818   3.768  11.816  0.00  0.00    +0.000 A 
ATOM     20  N   UNL     1      44.695   3.205  12.687  0.00  0.00    +0.000 NA
ATOM     21  C   UNL     1      45.762   3.974  13.002  0.00  0.00    +0.000 A 
ATOM     22  C   UNL     1      45.938   5.243  12.470  0.00  0.00    +0.000 A 
ATOM     23  N   UNL     1      45.059   5.804  11.601  0.00  0.00    +0.000 NA
BRANCH  18  24
ATOM     24  O   UNL     1      43.120   5.596  10.400  0.00  0.00    +0.000 OA
ATOM     25  H   UNL     1      42.220   5.397  10.695  0.00  0.00    +0.000 HD
ENDBRANCH  18  24
ENDBRANCH  17  21
ENDBRANCH  16  17
ENDBRANCH   1  16
TORSDOF 5
ENDMDL
MODEL 6
REMARK VINA RESULT:    -6.740      5.562      7.289
REMARK INTER + INTRA:          -9.164
REMARK INTER:                  -8.437
REMARK INTRA:                  -0.727
REMARK UNBOUND:                -0.651
REMARK  Name = 
REMARK  5 active torsions:
REMARK  status: ('A' for Active; 'I' for Inactive)
REMARK    1  A    between atoms: O_1  and  C_2
REMARK    2  A    between atoms: C_5  and  O_6
REMARK    3  A    between atoms: O_6  and  C_7
REMARK    4  A    between atoms: C_7  and  C_8
REMARK    5  A    between atoms: C_12  and  C_13
REMARK                            x       y       z     vdW  Elec       q    Type
REMARK                         _______ _______ _______ _____ _____    ______ ____
ROOT
ATOM      1  C   UNL     1      47.692   4.312  15.271  0.00  0.00    +0.000 A 
ATOM      2  N   UNL     1      47.736   2.979  15.033  0.00  0.00    +0.000 NA
ATOM      3  N   UNL     1      48.432   2.166  15.866  0.00  0.00    +0.000 NA
ATOM      4  C   UNL     1      49.016   2.691  16.969  0.00  0.00    +0.000 A 
ATOM      5  C   UNL     1      49.003   4.039  17.309  0.00  0.00    +0.000 A 
ATOM      6  C   UNL     1      48.359   4.875  16.368  0.00  0.00    +0.000 A 
ATOM      7 CL   UNL     1      48.486   6.608  16.457  0.00  0.00    +0.000 Cl
ENDROOT
BRANCH   5   8
ATOM      8  C   UNL     1      49.656   4.519  18.562  0.00  0.00    +0.000 A 
ATOM      9  C   UNL     1      48.920   4.997  19.661  0.00  0.00    +0.000 A 
ATOM     10  F   UNL     1      47.588   5.148  19.576  0.00  0.00    +0.000 F 
ATOM     11  C   UNL     1      49.523   5.328  20.879  0.00  0.00    +0.000 A 
ATOM     12  C   UNL     1      50.894   5.168  21.047  0.00  0.00    +0.000 A 
ATOM     13  C   UNL     1      51.663   4.777  19.960  0.00  0.00    +0.000 A 
ATOM     14  C   UNL     1      51.050   4.512  18.732  0.00  0.00    +0.000 A 
ATOM     15  F   UNL     1      51.861   4.271  17.688  0.00  0.00    +0.000 F 
ENDBRANCH   5   8
BRANCH   1  16
ATOM     16  C   UNL     1      46.846   5.116  14.317  0.00  0.00    +0.000 C 
BRANCH  16  17
ATOM     17  O   UNL     1      45.613   4.433  14.107  0.00  0.00    +0.000 OA
BRANCH  17  21
ATOM     18  C   UNL     1      44.208   4.574  10.300  0.00  0.00    +0.000 A 
ATOM     19  C   UNL     1      45.283   5.364  10.683  0.00  0.00    +0.000 A 
ATOM     20  N   UNL     1      45.794   5.347  11.941  0.00  0.00    +0.000 NA
ATOM     21  C   UNL     1      45.179   4.498  12.797  0.00  0.00    +0.000 A 
ATOM     22  C   UNL     1      44.107   3.709  12.408  0.00  0.00    +0.000 A 
ATOM     23  N   UNL     1      43.599   3.728  11.150  0.00  0.00    +0.000 NA
BRANCH  18  24
ATOM     24  O   UNL     1      43.689   4.603   9.036  0.00  0.00    +0.000 OA
ATOM     25  H   UNL     1      42.755   4.350   9.082  0.00  0.00    +0.000 HD
ENDBRANCH  18  24
ENDBRANCH  17  21
ENDBRANCH  16  17
ENDBRANCH   1  16
TORSDOF 5
ENDMDL
MODEL 7
REMARK VINA RESULT:    -6.669      5.328      6.995
REMARK INTER + INTRA:          -9.075
REMARK INTER:                  -8.307
REMARK INTRA:                  -0.768
REMARK UNBOUND:                -0.651
REMARK  Name = 
REMARK  5 active torsions:
REMARK  status: ('A' for Active; 'I' for Inactive)
REMARK    1  A    between atoms: O_1  and  C_2
REMARK    2  A    between atoms: C_5  and  O_6
REMARK    3  A    between atoms: O_6  and  C_7
REMARK    4  A    between atoms: C_7  and  C_8
REMARK    5  A    between atoms: C_12  and  C_13
REMARK                            x       y       z     vdW  Elec       q    Type
REMARK                         _______ _______ _______ _____ _____    ______ ____
ROOT
ATOM      1  C   UNL     1      47.627   4.890  14.973  0.00  0.00    +0.000 A 
ATOM      2  N   UNL     1      48.056   6.036  14.394  0.00  0.00    +0.000 NA
ATOM      3  N   UNL     1      48.671   6.984  15.144  0.00  0.00    +0.000 NA
ATOM      4  C   UNL     1      48.912   6.739  16.453  0.00  0.00    +0.000 A 
ATOM      5  C   UNL     1      48.533   5.584  17.128  0.00  0.00    +0.000 A 
ATOM      6  C   UNL     1      47.803   4.660  16.345  0.00  0.00    +0.000 A 
ATOM      7 CL   UNL     1      46.991   3.301  17.066  0.00  0.00    +0.000 Cl
ENDROOT
BRANCH   5   8
ATOM      8  C   UNL     1      48.867   5.395  18.570  0.00  0.00    +0.000 A 
ATOM      9  C   UNL     1      50.143   4.989  19.002  0.00  0.00    +0.000 A 
ATOM     10  F   UNL     1      51.086   4.642  18.112  0.00  0.00    +0.000 F 
ATOM     11  C   UNL     1      50.492   4.933  20.356  0.00  0.00    +0.000 A 
ATOM     12  C   UNL     1      49.574   5.308  21.330  0.00  0.00    +0.000 A 
ATOM     13  C   UNL     1      48.281   5.634  20.946  0.00  0.00    +0.000 A 
ATOM     14  C   UNL     1      47.932   5.622  19.594  0.00  0.00    +0.000 A 
ATOM     15  F   UNL     1      46.635   5.815  19.299  0.00  0.00    +0.000 F 
ENDBRANCH   5   8
BRANCH   1  16
ATOM     16  C   UNL     1      47.007   3.881  14.039  0.00  0.00    +0.000 C 
BRANCH  16  17
ATOM     17  O   UNL     1      45.594   4.054  14.046  0.00  0.00    +0.000 OA
BRANCH  17  21
ATOM     18  C   UNL     1      44.137   4.382  10.270  0.00  0.00    +0.000 A 
ATOM     19  C   UNL     1      43.685   3.377  11.114  0.00  0.00    +0.000 A 
ATOM     20  N   UNL     1      44.135   3.231  12.386  0.00  0.00    +0.000 NA
ATOM     21  C   UNL     1      45.058   4.141  12.775  0.00  0.00    +0.000 A 
ATOM     22  C   UNL     1      45.503   5.145  11.929  0.00  0.00    +0.000 A 
ATOM     23  N   UNL     1      45.051   5.289  10.657  0.00  0.00    +0.000 NA
BRANCH  18  24
ATOM     24  O   UNL     1      43.690   4.518   8.985  0.00  0.00    +0.000 OA
ATOM     25  H   UNL     1      43.818   3.676   8.525  0.00  0.00    +0.000 HD
ENDBRANCH  18  24
ENDBRANCH  17  21
ENDBRANCH  16  17
ENDBRANCH   1  16
TORSDOF 5
ENDMDL
MODEL 8
REMARK VINA RESULT:    -6.657      4.444      5.959
REMARK INTER + INTRA:          -9.060
REMARK INTER:                  -8.321
REMARK INTRA:                  -0.739
REMARK UNBOUND:                -0.651
REMARK  Name = 
REMARK  5 active torsions:
REMARK  status: ('A' for Active; 'I' for Inactive)
REMARK    1  A    between atoms: O_1  and  C_2
REMARK    2  A    between atoms: C_5  and  O_6
REMARK    3  A    between atoms: O_6  and  C_7
REMARK    4  A    between atoms: C_7  and  C_8
REMARK    5  A    between atoms: C_12  and  C_13
REMARK                            x       y       z     vdW  Elec       q    Type
REMARK                         _______ _______ _______ _____ _____    ______ ____
ROOT
ATOM      1  C   UNL     1      47.388   5.305  13.933  0.00  0.00    +0.000 A 
ATOM      2  N   UNL     1      47.144   3.981  13.788  0.00  0.00    +0.000 NA
ATOM      3  N   UNL     1      47.412   3.127  14.807  0.00  0.00    +0.000 NA
ATOM      4  C   UNL     1      47.854   3.623  15.987  0.00  0.00    +0.000 A 
ATOM      5  C   UNL     1      48.108   4.967  16.238  0.00  0.00    +0.000 A 
ATOM      6  C   UNL     1      47.918   5.818  15.126  0.00  0.00    +0.000 A 
ATOM      7 CL   UNL     1      48.457   7.473  15.145  0.00  0.00    +0.000 Cl
ENDROOT
BRANCH   5   8
ATOM      8  C   UNL     1      48.570   5.420  17.583  0.00  0.00    +0.000 A 
ATOM      9  C   UNL     1      49.929   5.612  17.889  0.00  0.00    +0.000 A 
ATOM     10  F   UNL     1      50.881   5.279  17.002  0.00  0.00    +0.000 F 
ATOM     11  C   UNL     1      50.353   6.156  19.106  0.00  0.00    +0.000 A 
ATOM     12  C   UNL     1      49.420   6.551  20.058  0.00  0.00    +0.000 A 
ATOM     13  C   UNL     1      48.075   6.301  19.825  0.00  0.00    +0.000 A 
ATOM     14  C   UNL     1      47.675   5.698  18.630  0.00  0.00    +0.000 A 
ATOM     15  F   UNL     1      46.379   5.360  18.524  0.00  0.00    +0.000 F 
ENDBRANCH   5   8
BRANCH   1  16
ATOM     16  C   UNL     1      47.003   6.170  12.760  0.00  0.00    +0.000 C 
BRANCH  16  17
ATOM     17  O   UNL     1      45.590   6.117  12.593  0.00  0.00    +0.000 OA
BRANCH  17  21
ATOM     18  C   UNL     1      44.600   4.184   9.163  0.00  0.00    +0.000 A 
ATOM     19  C   UNL     1      43.963   3.872  10.356  0.00  0.00    +0.000 A 
ATOM     20  N   UNL     1      44.252   4.495  11.526  0.00  0.00    +0.000 NA
ATOM     21  C   UNL     1      45.209   5.448  11.446  0.00  0.00    +0.000 A 
ATOM     22  C   UNL     1      45.841   5.759  10.251  0.00  0.00    +0.000 A 
ATOM     23  N   UNL     1      45.549   5.134   9.081  0.00  0.00    +0.000 NA
BRANCH  18  24
ATOM     24  O   UNL     1      44.314   3.545   7.988  0.00  0.00    +0.000 OA
ATOM     25  H   UNL     1      44.818   3.969   7.278  0.00  0.00    +0.000 HD
ENDBRANCH  18  24
ENDBRANCH  17  21
ENDBRANCH  16  17
ENDBRANCH   1  16
TORSDOF 5
ENDMDL
MODEL 9
REMARK VINA RESULT:    -6.643      2.674      3.702
REMARK INTER + INTRA:          -9.042
REMARK INTER:                  -8.156
REMARK INTRA:                  -0.886
REMARK UNBOUND:                -0.651
REMARK  Name = 
REMARK  5 active torsions:
REMARK  status: ('A' for Active; 'I' for Inactive)
REMARK    1  A    between atoms: O_1  and  C_2
REMARK    2  A    between atoms: C_5  and  O_6
REMARK    3  A    between atoms: O_6  and  C_7
REMARK    4  A    between atoms: C_7  and  C_8
REMARK    5  A    between atoms: C_12  and  C_13
REMARK                            x       y       z     vdW  Elec       q    Type
REMARK                         _______ _______ _______ _____ _____    ______ ____
ROOT
ATOM      1  C   UNL     1      45.017   6.203  11.836  0.00  0.00    +0.000 A 
ATOM      2  N   UNL     1      44.265   7.236  11.387  0.00  0.00    +0.000 NA
ATOM      3  N   UNL     1      44.718   8.508  11.515  0.00  0.00    +0.000 NA
ATOM      4  C   UNL     1      45.952   8.723  12.027  0.00  0.00    +0.000 A 
ATOM      5  C   UNL     1      46.805   7.727  12.489  0.00  0.00    +0.000 A 
ATOM      6  C   UNL     1      46.264   6.422  12.437  0.00  0.00    +0.000 A 
ATOM      7 CL   UNL     1      47.045   5.083  13.230  0.00  0.00    +0.000 Cl
ENDROOT
BRANCH   5   8
ATOM      8  C   UNL     1      48.161   8.063  13.014  0.00  0.00    +0.000 A 
ATOM      9  C   UNL     1      48.363   8.574  14.309  0.00  0.00    +0.000 A 
ATOM     10  F   UNL     1      47.317   8.889  15.088  0.00  0.00    +0.000 F 
ATOM     11  C   UNL     1      49.641   8.769  14.844  0.00  0.00    +0.000 A 
ATOM     12  C   UNL     1      50.769   8.436  14.103  0.00  0.00    +0.000 A 
ATOM     13  C   UNL     1      50.610   8.007  12.793  0.00  0.00    +0.000 A 
ATOM     14  C   UNL     1      49.328   7.878  12.253  0.00  0.00    +0.000 A 
ATOM     15  F   UNL     1      49.246   7.591  10.943  0.00  0.00    +0.000 F 
ENDBRANCH   5   8
BRANCH   1  16
ATOM     16  C   UNL     1      44.446   4.829  11.593  0.00  0.00    +0.000 C 
BRANCH  16  17
ATOM     17  O   UNL     1      43.966   4.759  10.254  0.00  0.00    +0.000 OA
BRANCH  17  21
ATOM     18  C   UNL     1      46.238   2.374   7.879  0.00  0.00    +0.000 A 
ATOM     19  C   UNL     1      46.232   3.749   7.696  0.00  0.00    +0.000 A 
ATOM     20  N   UNL     1      45.497   4.589   8.469  0.00  0.00    +0.000 NA
ATOM     21  C   UNL     1      44.768   3.986   9.436  0.00  0.00    +0.000 A 
ATOM     22  C   UNL     1      44.779   2.611   9.617  0.00  0.00    +0.000 A 
ATOM     23  N   UNL     1      45.516   1.774   8.843  0.00  0.00    +0.000 NA
BRANCH  18  24
ATOM     24  O   UNL     1      46.971   1.530   7.091  0.00  0.00    +0.000 OA
ATOM     25  H   UNL     1      47.858   1.450   7.471  0.00  0.00    +0.000 HD
ENDBRANCH  18  24
ENDBRANCH  17  21
ENDBRANCH  16  17
ENDBRANCH   1  16
TORSDOF 5
ENDMDL
