MODEL 1
REMARK VINA RESULT:    -8.600      0.000      0.000
REMARK INTER + INTRA:         -11.611
REMARK INTER:                 -11.114
REMARK INTRA:                  -0.497
REMARK UNBOUND:                -0.497
REMARK  Name = 
REMARK  5 active torsions:
REMARK  status: ('A' for Active; 'I' for Inactive)
REMARK    1  A    between atoms: C_2  and  C_4
REMARK    2  A    between atoms: C_8  and  O_9
REMARK    3  A    between atoms: O_9  and  C_10
REMARK    4  A    between atoms: C_10  and  C_11
REMARK    5  A    between atoms: C_13  and  C_14
REMARK                            x       y       z     vdW  Elec       q    Type
REMARK                         _______ _______ _______ _____ _____    ______ ____
ROOT
ATOM      1  C   UNL     1      45.029   6.595  11.393  0.00  0.00    +0.000 C 
ENDROOT
BRANCH   1   2
ATOM      2  C   UNL     1      44.654   5.185  11.006  0.00  0.00    +0.000 A 
ATOM      3  N   UNL     1      45.323   4.663   9.943  0.00  0.00    +0.000 NA
ATOM      4  C   UNL     1      44.990   3.421   9.531  0.00  0.00    +0.000 A 
ATOM      5  N   UNL     1      44.026   2.676  10.105  0.00  0.00    +0.000 NA
ATOM      6  C   UNL     1      43.391   3.225  11.162  0.00  0.00    +0.000 A 
ATOM      7  C   UNL     1      43.667   4.477  11.668  0.00  0.00    +0.000 A 
ATOM      8 CL   UNL     1      42.781   5.074  13.010  0.00  0.00    +0.000 Cl
BRANCH   4   9
ATOM      9  C   UNL     1      45.726   2.853   8.386  0.00  0.00    +0.000 A 
ATOM     10  C   UNL     1      46.064   3.639   7.267  0.00  0.00    +0.000 A 
ATOM     11  C   UNL     1      46.779   3.111   6.187  0.00  0.00    +0.000 A 
ATOM     12  C   UNL     1      47.172   1.776   6.201  0.00  0.00    +0.000 A 
ATOM     13  C   UNL     1      46.845   0.971   7.288  0.00  0.00    +0.000 A 
ATOM     14  C   UNL     1      46.130   1.503   8.365  0.00  0.00    +0.000 A 
ENDBRANCH   4   9
ENDBRANCH   1   2
BRANCH   1  15
ATOM     15  O   UNL     1      46.438   6.790  11.273  0.00  0.00    +0.000 OA
BRANCH  15  20
ATOM     16  C   UNL     1      47.589   5.467  14.458  0.00  0.00    +0.000 A 
ATOM     17  C   UNL     1      48.480   6.451  14.897  0.00  0.00    +0.000 A 
ATOM     18  C   UNL     1      48.718   7.573  14.105  0.00  0.00    +0.000 A 
ATOM     19  C   UNL     1      48.062   7.717  12.880  0.00  0.00    +0.000 A 
ATOM     20  C   UNL     1      47.150   6.752  12.445  0.00  0.00    +0.000 A 
ATOM     21  C   UNL     1      46.907   5.633  13.245  0.00  0.00    +0.000 A 
BRANCH  16  23
ATOM     22  N   UNL     1      46.976   4.471  16.588  0.00  0.00    +0.000 N 
ATOM     23  C   UNL     1      47.390   4.260  15.301  0.00  0.00    +0.000 C 
ATOM     24  O   UNL     1      47.537   3.132  14.858  0.00  0.00    +0.000 OA
ATOM     25  H   UNL     1      46.729   3.647  17.124  0.00  0.00    +0.000 HD
ATOM     26  H   UNL     1      46.613   5.359  16.902  0.00  0.00    +0.000 HD
ENDBRANCH  16  23
ENDBRANCH  15  20
ENDBRANCH   1  15
TORSDOF 5
ENDMDL
MODEL 2
REMARK VINA RESULT:    -8.011      2.321      3.167
REMARK INTER + INTRA:         -10.849
REMARK INTER:                 -10.301
REMARK INTRA:                  -0.548
REMARK UNBOUND:                -0.497
REMARK  Name = 
REMARK  5 active torsions:
REMARK  status: ('A' for Active; 'I' for Inactive)
REMARK    1  A    between atoms: C_2  and  C_4
REMARK    2  A    between atoms: C_8  and  O_9
REMARK    3  A    between atoms: O_9  and  C_10
REMARK    4  A    between atoms: C_10  and  C_11
REMARK    5  A    between atoms: C_13  and  C_14
REMARK                            x       y       z     vdW  Elec       q    Type
REMARK                         _______ _______ _______ _____ _____    ______ ____
ROOT
ATOM      1  C   UNL     1      45.024   6.617  11.445  0.00  0.00    +0.000 C 
ENDROOT
BRANCH   1   2
ATOM      2  C   UNL     1      44.644   5.210  11.053  0.00  0.00    +0.000 A 
ATOM      3  N   UNL     1      45.308   4.691   9.984  0.00  0.00    +0.000 NA
ATOM      4  C   UNL     1      44.970   3.452   9.568  0.00  0.00    +0.000 A 
ATOM      5  N   UNL     1      44.006   2.707  10.141  0.00  0.00    +0.000 NA
ATOM      6  C   UNL     1      43.376   3.252  11.203  0.00  0.00    +0.000 A 
ATOM      7  C   UNL     1      43.657   4.501  11.714  0.00  0.00    +0.000 A 
ATOM      8 CL   UNL     1      42.777   5.095  13.062  0.00  0.00    +0.000 Cl
BRANCH   4   9
ATOM      9  C   UNL     1      45.701   2.887   8.418  0.00  0.00    +0.000 A 
ATOM     10  C   UNL     1      46.019   3.672   7.292  0.00  0.00    +0.000 A 
ATOM     11  C   UNL     1      46.728   3.148   6.207  0.00  0.00    +0.000 A 
ATOM     12  C   UNL     1      47.136   1.817   6.223  0.00  0.00    +0.000 A 
ATOM     13  C   UNL     1      46.829   1.013   7.316  0.00  0.00    +0.000 A 
ATOM     14  C   UNL     1      46.120   1.542   8.398  0.00  0.00    +0.000 A 
ENDBRANCH   4   9
ENDBRANCH   1   2
BRANCH   1  15
ATOM     15  O   UNL     1      46.286   6.628  12.114  0.00  0.00    +0.000 OA
BRANCH  15  20
ATOM     16  C   UNL     1      49.203   8.742  11.627  0.00  0.00    +0.000 A 
ATOM     17  C   UNL     1      48.683  10.029  11.796  0.00  0.00    +0.000 A 
ATOM     18  C   UNL     1      47.325  10.198  12.061  0.00  0.00    +0.000 A 
ATOM     19  C   UNL     1      46.488   9.084  12.164  0.00  0.00    +0.000 A 
ATOM     20  C   UNL     1      47.003   7.793  12.021  0.00  0.00    +0.000 A 
ATOM     21  C   UNL     1      48.366   7.627  11.765  0.00  0.00    +0.000 A 
BRANCH  16  23
ATOM     22  N   UNL     1      51.196   7.358  11.493  0.00  0.00    +0.000 N 
ATOM     23  C   UNL     1      50.644   8.595  11.300  0.00  0.00    +0.000 C 
ATOM     24  O   UNL     1      51.298   9.516  10.832  0.00  0.00    +0.000 OA
ATOM     25  H   UNL     1      52.144   7.229  11.161  0.00  0.00    +0.000 HD
ATOM     26  H   UNL     1      50.634   6.531  11.638  0.00  0.00    +0.000 HD
ENDBRANCH  16  23
ENDBRANCH  15  20
ENDBRANCH   1  15
TORSDOF 5
ENDMDL
MODEL 3
REMARK VINA RESULT:    -7.535      1.647      2.187
REMARK INTER + INTRA:         -10.234
REMARK INTER:                  -9.621
REMARK INTRA:                  -0.613
REMARK UNBOUND:                -0.497
REMARK  Name = 
REMARK  5 active torsions:
REMARK  status: ('A' for Active; 'I' for Inactive)
REMARK    1  A    between atoms: C_2  and  C_4
REMARK    2  A    between atoms: C_8  and  O_9
REMARK    3  A    between atoms: O_9  and  C_10
REMARK    4  A    between atoms: C_10  and  C_11
REMARK    5  A    between atoms: C_13  and  C_14
REMARK                            x       y       z     vdW  Elec       q    Type
REMARK                         _______ _______ _______ _____ _____    ______ ____
ROOT
ATOM      1  C   UNL     1      45.611   6.102  12.122  0.00  0.00    +0.000 C 
ENDROOT
BRANCH   1   2
ATOM      2  C   UNL     1      44.964   4.919  11.446  0.00  0.00    +0.000 A 
ATOM      3  N   UNL     1      45.601   4.442  10.342  0.00  0.00    +0.000 NA
ATOM      4  C   UNL     1      45.035   3.412   9.677  0.00  0.00    +0.000 A 
ATOM      5  N   UNL     1      43.871   2.839  10.037  0.00  0.00    +0.000 NA
ATOM      6  C   UNL     1      43.273   3.334  11.141  0.00  0.00    +0.000 A 
ATOM      7  C   UNL     1      43.776   4.371  11.896  0.00  0.00    +0.000 A 
ATOM      8 CL   UNL     1      42.917   4.924  13.275  0.00  0.00    +0.000 Cl
BRANCH   4   9
ATOM      9  C   UNL     1      45.736   2.889   8.490  0.00  0.00    +0.000 A 
ATOM     10  C   UNL     1      46.042   3.719   7.393  0.00  0.00    +0.000 A 
ATOM     11  C   UNL     1      46.723   3.234   6.272  0.00  0.00    +0.000 A 
ATOM     12  C   UNL     1      47.113   1.898   6.221  0.00  0.00    +0.000 A 
ATOM     13  C   UNL     1      46.816   1.051   7.284  0.00  0.00    +0.000 A 
ATOM     14  C   UNL     1      46.135   1.540   8.402  0.00  0.00    +0.000 A 
ENDBRANCH   4   9
ENDBRANCH   1   2
BRANCH   1  15
ATOM     15  O   UNL     1      46.988   5.834  12.393  0.00  0.00    +0.000 OA
BRANCH  15  20
ATOM     16  C   UNL     1      48.458   6.271  15.689  0.00  0.00    +0.000 A 
ATOM     17  C   UNL     1      48.058   5.111  16.361  0.00  0.00    +0.000 A 
ATOM     18  C   UNL     1      47.266   4.170  15.707  0.00  0.00    +0.000 A 
ATOM     19  C   UNL     1      46.877   4.381  14.382  0.00  0.00    +0.000 A 
ATOM     20  C   UNL     1      47.292   5.525  13.694  0.00  0.00    +0.000 A 
ATOM     21  C   UNL     1      48.094   6.461  14.350  0.00  0.00    +0.000 A 
BRANCH  16  23
ATOM     22  N   UNL     1      49.908   8.220  15.672  0.00  0.00    +0.000 N 
ATOM     23  C   UNL     1      49.263   7.277  16.426  0.00  0.00    +0.000 C 
ATOM     24  O   UNL     1      49.310   7.300  17.647  0.00  0.00    +0.000 OA
ATOM     25  H   UNL     1      50.359   8.972  16.179  0.00  0.00    +0.000 HD
ATOM     26  H   UNL     1      49.691   8.376  14.698  0.00  0.00    +0.000 HD
ENDBRANCH  16  23
ENDBRANCH  15  20
ENDBRANCH   1  15
TORSDOF 5
ENDMDL
MODEL 4
REMARK VINA RESULT:    -7.299      2.617      4.084
REMARK INTER + INTRA:          -9.929
REMARK INTER:                  -9.378
REMARK INTRA:                  -0.552
REMARK UNBOUND:                -0.497
REMARK  Name = 
REMARK  5 active torsions:
REMARK  status: ('A' for Active; 'I' for Inactive)
REMARK    1  A    between atoms: C_2  and  C_4
REMARK    2  A    between atoms: C_8  and  O_9
REMARK    3  A    between atoms: O_9  and  C_10
REMARK    4  A    between atoms: C_10  and  C_11
REMARK    5  A    between atoms: C_13  and  C_14
REMARK                            x       y       z     vdW  Elec       q    Type
REMARK                         _______ _______ _______ _____ _____    ______ ____
ROOT
ATOM      1  C   UNL     1      45.681   5.665  12.640  0.00  0.00    +0.000 C 
ENDROOT
BRANCH   1   2
ATOM      2  C   UNL     1      45.007   4.584  11.831  0.00  0.00    +0.000 A 
ATOM      3  N   UNL     1      45.629   4.232  10.674  0.00  0.00    +0.000 NA
ATOM      4  C   UNL     1      45.040   3.301   9.893  0.00  0.00    +0.000 A 
ATOM      5  N   UNL     1      43.866   2.711  10.190  0.00  0.00    +0.000 NA
ATOM      6  C   UNL     1      43.284   3.079  11.350  0.00  0.00    +0.000 A 
ATOM      7  C   UNL     1      43.811   4.008  12.221  0.00  0.00    +0.000 A 
ATOM      8 CL   UNL     1      42.969   4.407  13.662  0.00  0.00    +0.000 Cl
BRANCH   4   9
ATOM      9  C   UNL     1      45.724   2.912   8.646  0.00  0.00    +0.000 A 
ATOM     10  C   UNL     1      46.145   1.585   8.423  0.00  0.00    +0.000 A 
ATOM     11  C   UNL     1      46.776   1.205   7.235  0.00  0.00    +0.000 A 
ATOM     12  C   UNL     1      47.006   2.149   6.238  0.00  0.00    +0.000 A 
ATOM     13  C   UNL     1      46.612   3.469   6.433  0.00  0.00    +0.000 A 
ATOM     14  C   UNL     1      45.980   3.844   7.622  0.00  0.00    +0.000 A 
ENDBRANCH   4   9
ENDBRANCH   1   2
BRANCH   1  15
ATOM     15  O   UNL     1      44.938   6.883  12.567  0.00  0.00    +0.000 OA
BRANCH  15  20
ATOM     16  C   UNL     1      45.563  10.361  11.711  0.00  0.00    +0.000 A 
ATOM     17  C   UNL     1      46.953  10.462  11.827  0.00  0.00    +0.000 A 
ATOM     18  C   UNL     1      47.698   9.351  12.217  0.00  0.00    +0.000 A 
ATOM     19  C   UNL     1      47.059   8.138  12.485  0.00  0.00    +0.000 A 
ATOM     20  C   UNL     1      45.673   8.020  12.347  0.00  0.00    +0.000 A 
ATOM     21  C   UNL     1      44.931   9.133  11.947  0.00  0.00    +0.000 A 
BRANCH  16  23
ATOM     22  N   UNL     1      43.537  11.692  11.874  0.00  0.00    +0.000 N 
ATOM     23  C   UNL     1      44.791  11.574  11.339  0.00  0.00    +0.000 C 
ATOM     24  O   UNL     1      45.265  12.450  10.633  0.00  0.00    +0.000 OA
ATOM     25  H   UNL     1      43.059  12.570  11.714  0.00  0.00    +0.000 HD
ATOM     26  H   UNL     1      43.220  11.120  12.643  0.00  0.00    +0.000 HD
ENDBRANCH  16  23
ENDBRANCH  15  20
ENDBRANCH   1  15
TORSDOF 5
ENDMDL
MODEL 5
REMARK VINA RESULT:    -7.235      1.800      2.882
REMARK INTER + INTRA:          -9.847
REMARK INTER:                  -9.254
REMARK INTRA:                  -0.593
REMARK UNBOUND:                -0.497
REMARK  Name = 
REMARK  5 active torsions:
REMARK  status: ('A' for Active; 'I' for Inactive)
REMARK    1  A    between atoms: C_2  and  C_4
REMARK    2  A    between atoms: C_8  and  O_9
REMARK    3  A    between atoms: O_9  and  C_10
REMARK    4  A    between atoms: C_10  and  C_11
REMARK    5  A    between atoms: C_13  and  C_14
REMARK                            x       y       z     vdW  Elec       q    Type
REMARK                         _______ _______ _______ _____ _____    ______ ____
ROOT
ATOM      1  C   UNL     1      45.829   4.309  13.258  0.00  0.00    +0.000 C 
ENDROOT
BRANCH   1   2
ATOM      2  C   UNL     1      45.045   4.229  11.971  0.00  0.00    +0.000 A 
ATOM      3  N   UNL     1      45.698   3.681  10.911  0.00  0.00    +0.000 NA
ATOM      4  C   UNL     1      45.053   3.629   9.726  0.00  0.00    +0.000 A 
ATOM      5  N   UNL     1      43.807   4.099   9.531  0.00  0.00    +0.000 NA
ATOM      6  C   UNL     1      43.188   4.627  10.608  0.00  0.00    +0.000 A 
ATOM      7  C   UNL     1      43.753   4.713  11.862  0.00  0.00    +0.000 A 
ATOM      8 CL   UNL     1      42.873   5.420  13.154  0.00  0.00    +0.000 Cl
BRANCH   4   9
ATOM      9  C   UNL     1      45.759   3.022   8.581  0.00  0.00    +0.000 A 
ATOM     10  C   UNL     1      46.210   3.803   7.499  0.00  0.00    +0.000 A 
ATOM     11  C   UNL     1      46.896   3.237   6.420  0.00  0.00    +0.000 A 
ATOM     12  C   UNL     1      47.147   1.868   6.398  0.00  0.00    +0.000 A 
ATOM     13  C   UNL     1      46.706   1.069   7.448  0.00  0.00    +0.000 A 
ATOM     14  C   UNL     1      46.020   1.639   8.524  0.00  0.00    +0.000 A 
ENDBRANCH   4   9
ENDBRANCH   1   2
BRANCH   1  15
ATOM     15  O   UNL     1      47.136   4.830  13.018  0.00  0.00    +0.000 OA
BRANCH  15  20
ATOM     16  C   UNL     1      46.742   8.443  13.117  0.00  0.00    +0.000 A 
ATOM     17  C   UNL     1      47.639   8.824  14.120  0.00  0.00    +0.000 A 
ATOM     18  C   UNL     1      48.380   7.853  14.791  0.00  0.00    +0.000 A 
ATOM     19  C   UNL     1      48.232   6.504  14.459  0.00  0.00    +0.000 A 
ATOM     20  C   UNL     1      47.356   6.116  13.441  0.00  0.00    +0.000 A 
ATOM     21  C   UNL     1      46.622   7.093  12.764  0.00  0.00    +0.000 A 
BRANCH  16  23
ATOM     22  N   UNL     1      44.605   9.551  12.783  0.00  0.00    +0.000 N 
ATOM     23  C   UNL     1      45.932   9.495  12.451  0.00  0.00    +0.000 C 
ATOM     24  O   UNL     1      46.430  10.305  11.685  0.00  0.00    +0.000 OA
ATOM     25  H   UNL     1      44.082  10.338  12.419  0.00  0.00    +0.000 HD
ATOM     26  H   UNL     1      44.226   9.067  13.583  0.00  0.00    +0.000 HD
ENDBRANCH  16  23
ENDBRANCH  15  20
ENDBRANCH   1  15
TORSDOF 5
ENDMDL
MODEL 6
REMARK VINA RESULT:    -7.141      2.654      7.520
REMARK INTER + INTRA:          -9.724
REMARK INTER:                  -9.033
REMARK INTRA:                  -0.691
REMARK UNBOUND:                -0.497
REMARK  Name = 
REMARK  5 active torsions:
REMARK  status: ('A' for Active; 'I' for Inactive)
REMARK    1  A    between atoms: C_2  and  C_4
REMARK    2  A    between atoms: C_8  and  O_9
REMARK    3  A    between atoms: O_9  and  C_10
REMARK    4  A    between atoms: C_10  and  C_11
REMARK    5  A    between atoms: C_13  and  C_14
REMARK                            x       y       z     vdW  Elec       q    Type
REMARK                         _______ _______ _______ _____ _____    ______ ____
ROOT
ATOM      1  C   UNL     1      46.293   7.217  12.421  0.00  0.00    +0.000 C 
ENDROOT
BRANCH   1   2
ATOM      2  C   UNL     1      47.521   7.091  13.289  0.00  0.00    +0.000 A 
ATOM      3  N   UNL     1      47.433   6.207  14.320  0.00  0.00    +0.000 NA
ATOM      4  C   UNL     1      48.491   6.093  15.151  0.00  0.00    +0.000 A 
ATOM      5  N   UNL     1      49.622   6.812  15.025  0.00  0.00    +0.000 NA
ATOM      6  C   UNL     1      49.676   7.672  13.986  0.00  0.00    +0.000 A 
ATOM      7  C   UNL     1      48.658   7.851  13.075  0.00  0.00    +0.000 A 
ATOM      8 CL   UNL     1      48.836   8.986  11.800  0.00  0.00    +0.000 Cl
BRANCH   4   9
ATOM      9  C   UNL     1      48.397   5.124  16.259  0.00  0.00    +0.000 A 
ATOM     10  C   UNL     1      47.406   4.122  16.276  0.00  0.00    +0.000 A 
ATOM     11  C   UNL     1      47.324   3.188  17.313  0.00  0.00    +0.000 A 
ATOM     12  C   UNL     1      48.233   3.238  18.366  0.00  0.00    +0.000 A 
ATOM     13  C   UNL     1      49.216   4.222  18.383  0.00  0.00    +0.000 A 
ATOM     14  C   UNL     1      49.296   5.153  17.344  0.00  0.00    +0.000 A 
ENDBRANCH   4   9
ENDBRANCH   1   2
BRANCH   1  15
ATOM     15  O   UNL     1      45.189   6.530  13.012  0.00  0.00    +0.000 OA
BRANCH  15  20
ATOM     16  C   UNL     1      44.692   4.298  10.186  0.00  0.00    +0.000 A 
ATOM     17  C   UNL     1      43.930   3.265  10.739  0.00  0.00    +0.000 A 
ATOM     18  C   UNL     1      43.588   3.303  12.089  0.00  0.00    +0.000 A 
ATOM     19  C   UNL     1      44.001   4.374  12.886  0.00  0.00    +0.000 A 
ATOM     20  C   UNL     1      44.741   5.424  12.336  0.00  0.00    +0.000 A 
ATOM     21  C   UNL     1      45.074   5.387  10.981  0.00  0.00    +0.000 A 
BRANCH  16  23
ATOM     22  N   UNL     1      44.357   3.347   7.975  0.00  0.00    +0.000 N 
ATOM     23  C   UNL     1      45.080   4.208   8.755  0.00  0.00    +0.000 C 
ATOM     24  O   UNL     1      45.966   4.902   8.281  0.00  0.00    +0.000 OA
ATOM     25  H   UNL     1      44.545   3.373   6.980  0.00  0.00    +0.000 HD
ATOM     26  H   UNL     1      43.476   2.954   8.275  0.00  0.00    +0.000 HD
ENDBRANCH  16  23
ENDBRANCH  15  20
ENDBRANCH   1  15
TORSDOF 5
ENDMDL
MODEL 7
REMARK VINA RESULT:    -7.086      2.735      7.188
REMARK INTER + INTRA:          -9.654
REMARK INTER:                  -9.063
REMARK INTRA:                  -0.591
REMARK UNBOUND:                -0.497
REMARK  Name = 
REMARK  5 active torsions:
REMARK  status: ('A' for Active; 'I' for Inactive)
REMARK    1  A    between atoms: C_2  and  C_4
REMARK    2  A    between atoms: C_8  and  O_9
REMARK    3  A    between atoms: O_9  and  C_10
REMARK    4  A    between atoms: C_10  and  C_11
REMARK    5  A    between atoms: C_13  and  C_14
REMARK                            x       y       z     vdW  Elec       q    Type
REMARK                         _______ _______ _______ _____ _____    ______ ____
ROOT
ATOM      1  C   UNL     1      46.124   7.060  12.456  0.00  0.00    +0.000 C 
ENDROOT
BRANCH   1   2
ATOM      2  C   UNL     1      47.369   6.975  13.305  0.00  0.00    +0.000 A 
ATOM      3  N   UNL     1      47.328   6.085  14.333  0.00  0.00    +0.000 NA
ATOM      4  C   UNL     1      48.401   6.006  15.147  0.00  0.00    +0.000 A 
ATOM      5  N   UNL     1      49.504   6.766  15.008  0.00  0.00    +0.000 NA
ATOM      6  C   UNL     1      49.510   7.632  13.972  0.00  0.00    +0.000 A 
ATOM      7  C   UNL     1      48.473   7.777  13.078  0.00  0.00    +0.000 A 
ATOM      8 CL   UNL     1      48.590   8.924  11.806  0.00  0.00    +0.000 Cl
BRANCH   4   9
ATOM      9  C   UNL     1      48.360   5.029  16.252  0.00  0.00    +0.000 A 
ATOM     10  C   UNL     1      49.363   4.997  17.242  0.00  0.00    +0.000 A 
ATOM     11  C   UNL     1      49.319   4.087  18.303  0.00  0.00    +0.000 A 
ATOM     12  C   UNL     1      48.266   3.181  18.397  0.00  0.00    +0.000 A 
ATOM     13  C   UNL     1      47.266   3.181  17.430  0.00  0.00    +0.000 A 
ATOM     14  C   UNL     1      47.314   4.093  16.372  0.00  0.00    +0.000 A 
ENDBRANCH   4   9
ENDBRANCH   1   2
BRANCH   1  15
ATOM     15  O   UNL     1      46.429   6.785  11.088  0.00  0.00    +0.000 OA
BRANCH  15  20
ATOM     16  C   UNL     1      44.400   3.769  11.020  0.00  0.00    +0.000 A 
ATOM     17  C   UNL     1      44.474   3.378   9.679  0.00  0.00    +0.000 A 
ATOM     18  C   UNL     1      45.203   4.146   8.773  0.00  0.00    +0.000 A 
ATOM     19  C   UNL     1      45.862   5.300   9.204  0.00  0.00    +0.000 A 
ATOM     20  C   UNL     1      45.814   5.686  10.547  0.00  0.00    +0.000 A 
ATOM     21  C   UNL     1      45.091   4.908  11.454  0.00  0.00    +0.000 A 
BRANCH  16  23
ATOM     22  N   UNL     1      43.597   3.328  13.270  0.00  0.00    +0.000 N 
ATOM     23  C   UNL     1      43.579   2.957  11.953  0.00  0.00    +0.000 C 
ATOM     24  O   UNL     1      42.880   2.034  11.563  0.00  0.00    +0.000 OA
ATOM     25  H   UNL     1      42.949   2.848  13.883  0.00  0.00    +0.000 HD
ATOM     26  H   UNL     1      43.959   4.219  13.577  0.00  0.00    +0.000 HD
ENDBRANCH  16  23
ENDBRANCH  15  20
ENDBRANCH   1  15
TORSDOF 5
ENDMDL
MODEL 8
REMARK VINA RESULT:    -6.903      3.925      9.104
REMARK INTER + INTRA:          -9.418
REMARK INTER:                  -8.856
REMARK INTRA:                  -0.562
REMARK UNBOUND:                -0.497
REMARK  Name = 
REMARK  5 active torsions:
REMARK  status: ('A' for Active; 'I' for Inactive)
REMARK    1  A    between atoms: C_2  and  C_4
REMARK    2  A    between atoms: C_8  and  O_9
REMARK    3  A    between atoms: O_9  and  C_10
REMARK    4  A    between atoms: C_10  and  C_11
REMARK    5  A    between atoms: C_13  and  C_14
REMARK                            x       y       z     vdW  Elec       q    Type
REMARK                         _______ _______ _______ _____ _____    ______ ____
ROOT
ATOM      1  C   UNL     1      46.987   4.262  15.643  0.00  0.00    +0.000 C 
ENDROOT
BRANCH   1   2
ATOM      2  C   UNL     1      47.703   4.398  16.965  0.00  0.00    +0.000 A 
ATOM      3  N   UNL     1      47.404   5.509  17.691  0.00  0.00    +0.000 NA
ATOM      4  C   UNL     1      48.053   5.698  18.860  0.00  0.00    +0.000 A 
ATOM      5  N   UNL     1      48.987   4.855  19.341  0.00  0.00    +0.000 NA
ATOM      6  C   UNL     1      49.249   3.760  18.597  0.00  0.00    +0.000 A 
ATOM      7  C   UNL     1      48.632   3.470  17.400  0.00  0.00    +0.000 A 
ATOM      8 CL   UNL     1      49.060   2.051  16.535  0.00  0.00    +0.000 Cl
BRANCH   4   9
ATOM      9  C   UNL     1      47.717   6.897  19.651  0.00  0.00    +0.000 A 
ATOM     10  C   UNL     1      47.518   8.150  19.037  0.00  0.00    +0.000 A 
ATOM     11  C   UNL     1      47.181   9.285  19.779  0.00  0.00    +0.000 A 
ATOM     12  C   UNL     1      47.037   9.195  21.160  0.00  0.00    +0.000 A 
ATOM     13  C   UNL     1      47.236   7.974  21.797  0.00  0.00    +0.000 A 
ATOM     14  C   UNL     1      47.573   6.841  21.051  0.00  0.00    +0.000 A 
ENDBRANCH   4   9
ENDBRANCH   1   2
BRANCH   1  15
ATOM     15  O   UNL     1      47.714   4.926  14.609  0.00  0.00    +0.000 OA
BRANCH  15  20
ATOM     16  C   UNL     1      45.233   4.384  12.007  0.00  0.00    +0.000 A 
ATOM     17  C   UNL     1      45.470   5.446  11.129  0.00  0.00    +0.000 A 
ATOM     18  C   UNL     1      46.467   6.375  11.419  0.00  0.00    +0.000 A 
ATOM     19  C   UNL     1      47.232   6.242  12.580  0.00  0.00    +0.000 A 
ATOM     20  C   UNL     1      47.020   5.170  13.451  0.00  0.00    +0.000 A 
ATOM     21  C   UNL     1      46.026   4.235  13.152  0.00  0.00    +0.000 A 
BRANCH  16  23
ATOM     22  N   UNL     1      43.917   2.428  12.596  0.00  0.00    +0.000 N 
ATOM     23  C   UNL     1      44.133   3.436  11.696  0.00  0.00    +0.000 C 
ATOM     24  O   UNL     1      43.420   3.574  10.713  0.00  0.00    +0.000 OA
ATOM     25  H   UNL     1      43.096   1.855  12.444  0.00  0.00    +0.000 HD
ATOM     26  H   UNL     1      44.317   2.435  13.523  0.00  0.00    +0.000 HD
ENDBRANCH  16  23
ENDBRANCH  15  20
ENDBRANCH   1  15
TORSDOF 5
ENDMDL
MODEL 9
REMARK VINA RESULT:    -6.885      3.912      8.107
REMARK INTER + INTRA:          -9.395
REMARK INTER:                  -8.853
REMARK INTRA:                  -0.541
REMARK UNBOUND:                -0.497
REMARK  Name = 
REMARK  5 active torsions:
REMARK  status: ('A' for Active; 'I' for Inactive)
REMARK    1  A    between atoms: C_2  and  C_4
REMARK    2  A    between atoms: C_8  and  O_9
REMARK    3  A    between atoms: O_9  and  C_10
REMARK    4  A    between atoms: C_10  and  C_11
REMARK    5  A    between atoms: C_13  and  C_14
REMARK                            x       y       z     vdW  Elec       q    Type
REMARK                         _______ _______ _______ _____ _____    ______ ____
ROOT
ATOM      1  C   UNL     1      48.431   6.911  15.245  0.00  0.00    +0.000 C 
ENDROOT
BRANCH   1   2
ATOM      2  C   UNL     1      49.052   6.516  16.562  0.00  0.00    +0.000 A 
ATOM      3  N   UNL     1      49.751   5.349  16.563  0.00  0.00    +0.000 NA
ATOM      4  C   UNL     1      50.287   4.931  17.730  0.00  0.00    +0.000 A 
ATOM      5  N   UNL     1      50.158   5.596  18.893  0.00  0.00    +0.000 NA
ATOM      6  C   UNL     1      49.464   6.753  18.851  0.00  0.00    +0.000 A 
ATOM      7  C   UNL     1      48.892   7.272  17.710  0.00  0.00    +0.000 A 
ATOM      8 CL   UNL     1      48.019   8.748  17.782  0.00  0.00    +0.000 Cl
BRANCH   4   9
ATOM      9  C   UNL     1      51.057   3.672  17.724  0.00  0.00    +0.000 A 
ATOM     10  C   UNL     1      52.407   3.636  18.128  0.00  0.00    +0.000 A 
ATOM     11  C   UNL     1      53.136   2.443  18.144  0.00  0.00    +0.000 A 
ATOM     12  C   UNL     1      52.530   1.253  17.751  0.00  0.00    +0.000 A 
ATOM     13  C   UNL     1      51.202   1.258  17.338  0.00  0.00    +0.000 A 
ATOM     14  C   UNL     1      50.476   2.453  17.324  0.00  0.00    +0.000 A 
ENDBRANCH   4   9
ENDBRANCH   1   2
BRANCH   1  15
ATOM     15  O   UNL     1      48.332   5.781  14.377  0.00  0.00    +0.000 OA
BRANCH  15  20
ATOM     16  C   UNL     1      45.133   5.192  12.753  0.00  0.00    +0.000 A 
ATOM     17  C   UNL     1      45.276   5.867  11.537  0.00  0.00    +0.000 A 
ATOM     18  C   UNL     1      46.458   6.550  11.258  0.00  0.00    +0.000 A 
ATOM     19  C   UNL     1      47.501   6.554  12.189  0.00  0.00    +0.000 A 
ATOM     20  C   UNL     1      47.377   5.861  13.396  0.00  0.00    +0.000 A 
ATOM     21  C   UNL     1      46.194   5.170  13.668  0.00  0.00    +0.000 A 
BRANCH  16  23
ATOM     22  N   UNL     1      42.750   5.316  13.208  0.00  0.00    +0.000 N 
ATOM     23  C   UNL     1      43.845   4.512  13.042  0.00  0.00    +0.000 C 
ATOM     24  O   UNL     1      43.750   3.295  13.078  0.00  0.00    +0.000 OA
ATOM     25  H   UNL     1      41.855   4.848  13.288  0.00  0.00    +0.000 HD
ATOM     26  H   UNL     1      42.747   6.289  12.942  0.00  0.00    +0.000 HD
ENDBRANCH  16  23
ENDBRANCH  15  20
ENDBRANCH   1  15
TORSDOF 5
ENDMDL
