MODEL 1
REMARK VINA RESULT:    -8.662      0.000      0.000
REMARK INTER + INTRA:         -11.532
REMARK INTER:                 -11.193
REMARK INTRA:                  -0.339
REMARK UNBOUND:                -0.339
REMARK  Name = 
REMARK  5 active torsions:
REMARK  status: ('A' for Active; 'I' for Inactive)
REMARK    1  A    between atoms: C_2  and  C_4
REMARK    2  A    between atoms: C_8  and  O_9
REMARK    3  A    between atoms: O_9  and  C_10
REMARK    4  A    between atoms: C_10  and  C_11
REMARK    5  A    between atoms: C_16  and  C_17
REMARK                            x       y       z     vdW  Elec       q    Type
REMARK                         _______ _______ _______ _____ _____    ______ ____
ROOT
ATOM      1  C   UNL     1      44.544   4.377  12.101  0.00  0.00    +0.000 A 
ATOM      2  C   UNL     1      45.343   3.526  12.872  0.00  0.00    +0.000 A 
ATOM      3  C   UNL     1      46.515   4.009  13.438  0.00  0.00    +0.000 A 
ATOM      4  F   UNL     1      47.289   3.181  14.151  0.00  0.00    +0.000 F 
ATOM      5  C   UNL     1      46.917   5.326  13.248  0.00  0.00    +0.000 A 
ATOM      6  C   UNL     1      46.142   6.202  12.476  0.00  0.00    +0.000 A 
ATOM      7  C   UNL     1      44.938   5.715  11.931  0.00  0.00    +0.000 A 
ENDROOT
BRANCH   6   8
ATOM      8  C   UNL     1      46.592   7.615  12.120  0.00  0.00    +0.000 C 
ATOM      9  C   UNL     1      48.116   7.656  11.894  0.00  0.00    +0.000 C 
ATOM     10  C   UNL     1      48.893   7.731  13.206  0.00  0.00    +0.000 C 
ATOM     11  C   UNL     1      48.381   8.854  14.104  0.00  0.00    +0.000 C 
ATOM     12  N   UNL     1      46.945   8.761  14.348  0.00  0.00    +0.000 NA
ATOM     13  C   UNL     1      46.175   8.736  13.100  0.00  0.00    +0.000 C 
ATOM     14  H   UNL     1      46.639   9.545  14.923  0.00  0.00    +0.000 HD
ENDBRANCH   6   8
BRANCH   1  15
ATOM     15  C   UNL     1      43.290   3.858  11.446  0.00  0.00    +0.000 C 
BRANCH  15  16
ATOM     16  O   UNL     1      43.630   2.763  10.600  0.00  0.00    +0.000 OA
BRANCH  16  21
ATOM     17  C   UNL     1      46.144   2.110   8.070  0.00  0.00    +0.000 A 
ATOM     18  C   UNL     1      46.253   3.342   7.417  0.00  0.00    +0.000 A 
ATOM     19  C   UNL     1      45.459   4.412   7.819  0.00  0.00    +0.000 A 
ATOM     20  C   UNL     1      44.562   4.263   8.880  0.00  0.00    +0.000 A 
ATOM     21  C   UNL     1      44.462   3.039   9.550  0.00  0.00    +0.000 A 
ATOM     22  C   UNL     1      45.261   1.968   9.147  0.00  0.00    +0.000 A 
BRANCH  17  24
ATOM     23  N   UNL     1      48.107   1.294   6.888  0.00  0.00    +0.000 N 
ATOM     24  C   UNL     1      46.982   0.980   7.595  0.00  0.00    +0.000 C 
ATOM     25  O   UNL     1      46.702  -0.183   7.859  0.00  0.00    +0.000 OA
ATOM     26  H   UNL     1      48.727   0.527   6.659  0.00  0.00    +0.000 HD
ATOM     27  H   UNL     1      48.486   2.229   6.855  0.00  0.00    +0.000 HD
ENDBRANCH  17  24
ENDBRANCH  16  21
ENDBRANCH  15  16
ENDBRANCH   1  15
TORSDOF 5
ENDMDL
MODEL 2
REMARK VINA RESULT:    -7.488      4.303      7.566
REMARK INTER + INTRA:         -10.016
REMARK INTER:                  -9.229
REMARK INTRA:                  -0.786
REMARK UNBOUND:                -0.339
REMARK  Name = 
REMARK  5 active torsions:
REMARK  status: ('A' for Active; 'I' for Inactive)
REMARK    1  A    between atoms: C_2  and  C_4
REMARK    2  A    between atoms: C_8  and  O_9
REMARK    3  A    between atoms: O_9  and  C_10
REMARK    4  A    between atoms: C_10  and  C_11
REMARK    5  A    between atoms: C_16  and  C_17
REMARK                            x       y       z     vdW  Elec       q    Type
REMARK                         _______ _______ _______ _____ _____    ______ ____
ROOT
ATOM      1  C   UNL     1      46.590   4.394  13.386  0.00  0.00    +0.000 A 
ATOM      2  C   UNL     1      47.170   5.643  13.143  0.00  0.00    +0.000 A 
ATOM      3  C   UNL     1      46.729   6.410  12.074  0.00  0.00    +0.000 A 
ATOM      4  F   UNL     1      47.309   7.593  11.830  0.00  0.00    +0.000 F 
ATOM      5  C   UNL     1      45.721   5.957  11.230  0.00  0.00    +0.000 A 
ATOM      6  C   UNL     1      45.124   4.708  11.443  0.00  0.00    +0.000 A 
ATOM      7  C   UNL     1      45.553   3.949  12.549  0.00  0.00    +0.000 A 
ENDROOT
BRANCH   6   8
ATOM      8  C   UNL     1      44.110   4.097  10.481  0.00  0.00    +0.000 C 
ATOM      9  C   UNL     1      44.354   2.582  10.329  0.00  0.00    +0.000 C 
ATOM     10  C   UNL     1      45.482   2.275   9.347  0.00  0.00    +0.000 C 
ATOM     11  C   UNL     1      45.287   2.996   8.016  0.00  0.00    +0.000 C 
ATOM     12  N   UNL     1      45.113   4.436   8.183  0.00  0.00    +0.000 NA
ATOM     13  C   UNL     1      44.003   4.756   9.087  0.00  0.00    +0.000 C 
ATOM     14  H   UNL     1      44.954   4.873   7.277  0.00  0.00    +0.000 HD
ENDBRANCH   6   8
BRANCH   1  15
ATOM     15  C   UNL     1      47.086   3.531  14.518  0.00  0.00    +0.000 C 
BRANCH  15  16
ATOM     16  O   UNL     1      46.594   4.054  15.748  0.00  0.00    +0.000 OA
BRANCH  16  21
ATOM     17  C   UNL     1      49.576   3.199  17.626  0.00  0.00    +0.000 A 
ATOM     18  C   UNL     1      49.427   3.945  18.799  0.00  0.00    +0.000 A 
ATOM     19  C   UNL     1      48.314   4.766  18.962  0.00  0.00    +0.000 A 
ATOM     20  C   UNL     1      47.340   4.837  17.963  0.00  0.00    +0.000 A 
ATOM     21  C   UNL     1      47.473   4.078  16.796  0.00  0.00    +0.000 A 
ATOM     22  C   UNL     1      48.588   3.254  16.635  0.00  0.00    +0.000 A 
BRANCH  17  24
ATOM     23  N   UNL     1      51.896   2.727  18.180  0.00  0.00    +0.000 N 
ATOM     24  C   UNL     1      50.790   2.360  17.470  0.00  0.00    +0.000 C 
ATOM     25  O   UNL     1      50.792   1.357  16.767  0.00  0.00    +0.000 OA
ATOM     26  H   UNL     1      52.685   2.093  18.151  0.00  0.00    +0.000 HD
ATOM     27  H   UNL     1      51.861   3.397  18.935  0.00  0.00    +0.000 HD
ENDBRANCH  17  24
ENDBRANCH  16  21
ENDBRANCH  15  16
ENDBRANCH   1  15
TORSDOF 5
ENDMDL
MODEL 3
REMARK VINA RESULT:    -7.475      3.665      5.215
REMARK INTER + INTRA:          -9.999
REMARK INTER:                  -9.294
REMARK INTRA:                  -0.705
REMARK UNBOUND:                -0.339
REMARK  Name = 
REMARK  5 active torsions:
REMARK  status: ('A' for Active; 'I' for Inactive)
REMARK    1  A    between atoms: C_2  and  C_4
REMARK    2  A    between atoms: C_8  and  O_9
REMARK    3  A    between atoms: O_9  and  C_10
REMARK    4  A    between atoms: C_10  and  C_11
REMARK    5  A    between atoms: C_16  and  C_17
REMARK                            x       y       z     vdW  Elec       q    Type
REMARK                         _______ _______ _______ _____ _____    ______ ____
ROOT
ATOM      1  C   UNL     1      47.640   6.269  14.099  0.00  0.00    +0.000 A 
ATOM      2  C   UNL     1      48.540   7.316  14.325  0.00  0.00    +0.000 A 
ATOM      3  C   UNL     1      49.383   7.273  15.426  0.00  0.00    +0.000 A 
ATOM      4  F   UNL     1      50.223   8.292  15.651  0.00  0.00    +0.000 F 
ATOM      5  C   UNL     1      49.345   6.209  16.321  0.00  0.00    +0.000 A 
ATOM      6  C   UNL     1      48.450   5.149  16.127  0.00  0.00    +0.000 A 
ATOM      7  C   UNL     1      47.621   5.182  14.990  0.00  0.00    +0.000 A 
ENDROOT
BRANCH   6   8
ATOM      8  C   UNL     1      48.267   4.022  17.138  0.00  0.00    +0.000 C 
ATOM      9  C   UNL     1      49.354   4.093  18.229  0.00  0.00    +0.000 C 
ATOM     10  C   UNL     1      50.674   3.478  17.771  0.00  0.00    +0.000 C 
ATOM     11  C   UNL     1      50.477   2.076  17.200  0.00  0.00    +0.000 C 
ATOM     12  N   UNL     1      49.483   2.045  16.131  0.00  0.00    +0.000 NA
ATOM     13  C   UNL     1      48.192   2.588  16.563  0.00  0.00    +0.000 C 
ATOM     14  H   UNL     1      49.360   1.089  15.800  0.00  0.00    +0.000 HD
ENDBRANCH   6   8
BRANCH   1  15
ATOM     15  C   UNL     1      46.690   6.320  12.931  0.00  0.00    +0.000 C 
BRANCH  15  16
ATOM     16  O   UNL     1      45.443   5.754  13.324  0.00  0.00    +0.000 OA
BRANCH  16  21
ATOM     17  C   UNL     1      44.768   4.174  10.131  0.00  0.00    +0.000 A 
ATOM     18  C   UNL     1      43.857   3.169  10.469  0.00  0.00    +0.000 A 
ATOM     19  C   UNL     1      43.469   3.003  11.796  0.00  0.00    +0.000 A 
ATOM     20  C   UNL     1      43.979   3.845  12.788  0.00  0.00    +0.000 A 
ATOM     21  C   UNL     1      44.876   4.864  12.453  0.00  0.00    +0.000 A 
ATOM     22  C   UNL     1      45.261   5.031  11.122  0.00  0.00    +0.000 A 
BRANCH  17  24
ATOM     23  N   UNL     1      44.451   3.623   7.783  0.00  0.00    +0.000 N 
ATOM     24  C   UNL     1      45.185   4.303   8.712  0.00  0.00    +0.000 C 
ATOM     25  O   UNL     1      46.122   5.019   8.380  0.00  0.00    +0.000 OA
ATOM     26  H   UNL     1      44.675   3.799   6.811  0.00  0.00    +0.000 HD
ATOM     27  H   UNL     1      43.548   3.221   7.991  0.00  0.00    +0.000 HD
ENDBRANCH  17  24
ENDBRANCH  16  21
ENDBRANCH  15  16
ENDBRANCH   1  15
TORSDOF 5
ENDMDL
MODEL 4
REMARK VINA RESULT:    -7.261      3.317      6.901
REMARK INTER + INTRA:          -9.723
REMARK INTER:                  -8.746
REMARK INTRA:                  -0.977
REMARK UNBOUND:                -0.339
REMARK  Name = 
REMARK  5 active torsions:
REMARK  status: ('A' for Active; 'I' for Inactive)
REMARK    1  A    between atoms: C_2  and  C_4
REMARK    2  A    between atoms: C_8  and  O_9
REMARK    3  A    between atoms: O_9  and  C_10
REMARK    4  A    between atoms: C_10  and  C_11
REMARK    5  A    between atoms: C_16  and  C_17
REMARK                            x       y       z     vdW  Elec       q    Type
REMARK                         _______ _______ _______ _____ _____    ______ ____
ROOT
ATOM      1  C   UNL     1      46.917   6.346  12.428  0.00  0.00    +0.000 A 
ATOM      2  C   UNL     1      47.366   5.553  13.489  0.00  0.00    +0.000 A 
ATOM      3  C   UNL     1      46.797   4.305  13.704  0.00  0.00    +0.000 A 
ATOM      4  F   UNL     1      47.213   3.564  14.739  0.00  0.00    +0.000 F 
ATOM      5  C   UNL     1      45.779   3.827  12.888  0.00  0.00    +0.000 A 
ATOM      6  C   UNL     1      45.302   4.600  11.820  0.00  0.00    +0.000 A 
ATOM      7  C   UNL     1      45.905   5.850  11.587  0.00  0.00    +0.000 A 
ENDROOT
BRANCH   6   8
ATOM      8  C   UNL     1      44.102   4.192  10.971  0.00  0.00    +0.000 C 
ATOM      9  C   UNL     1      44.153   2.684  10.653  0.00  0.00    +0.000 C 
ATOM     10  C   UNL     1      45.092   2.371   9.491  0.00  0.00    +0.000 C 
ATOM     11  C   UNL     1      44.794   3.240   8.272  0.00  0.00    +0.000 C 
ATOM     12  N   UNL     1      44.806   4.665   8.587  0.00  0.00    +0.000 NA
ATOM     13  C   UNL     1      43.875   4.997   9.671  0.00  0.00    +0.000 C 
ATOM     14  H   UNL     1      44.572   5.206   7.756  0.00  0.00    +0.000 HD
ENDBRANCH   6   8
BRANCH   1  15
ATOM     15  C   UNL     1      47.495   7.720  12.205  0.00  0.00    +0.000 C 
BRANCH  15  16
ATOM     16  O   UNL     1      46.661   8.681  12.845  0.00  0.00    +0.000 OA
BRANCH  16  21
ATOM     17  C   UNL     1      44.039  10.245  10.888  0.00  0.00    +0.000 A 
ATOM     18  C   UNL     1      44.666  11.392  10.392  0.00  0.00    +0.000 A 
ATOM     19  C   UNL     1      45.990  11.660  10.731  0.00  0.00    +0.000 A 
ATOM     20  C   UNL     1      46.697  10.780  11.554  0.00  0.00    +0.000 A 
ATOM     21  C   UNL     1      46.083   9.621  12.037  0.00  0.00    +0.000 A 
ATOM     22  C   UNL     1      44.757   9.352  11.695  0.00  0.00    +0.000 A 
BRANCH  17  24
ATOM     23  N   UNL     1      42.041   8.865  11.017  0.00  0.00    +0.000 N 
ATOM     24  C   UNL     1      42.618  10.005  10.535  0.00  0.00    +0.000 C 
ATOM     25  O   UNL     1      41.975  10.811   9.874  0.00  0.00    +0.000 OA
ATOM     26  H   UNL     1      41.045   8.760  10.860  0.00  0.00    +0.000 HD
ATOM     27  H   UNL     1      42.462   8.307  11.745  0.00  0.00    +0.000 HD
ENDBRANCH  17  24
ENDBRANCH  16  21
ENDBRANCH  15  16
ENDBRANCH   1  15
TORSDOF 5
ENDMDL
MODEL 5
REMARK VINA RESULT:    -7.150      4.225      7.607
REMARK INTER + INTRA:          -9.578
REMARK INTER:                  -8.549
REMARK INTRA:                  -1.030
REMARK UNBOUND:                -0.339
REMARK  Name = 
REMARK  5 active torsions:
REMARK  status: ('A' for Active; 'I' for Inactive)
REMARK    1  A    between atoms: C_2  and  C_4
REMARK    2  A    between atoms: C_8  and  O_9
REMARK    3  A    between atoms: O_9  and  C_10
REMARK    4  A    between atoms: C_10  and  C_11
REMARK    5  A    between atoms: C_16  and  C_17
REMARK                            x       y       z     vdW  Elec       q    Type
REMARK                         _______ _______ _______ _____ _____    ______ ____
ROOT
ATOM      1  C   UNL     1      47.559   7.840  13.067  0.00  0.00    +0.000 A 
ATOM      2  C   UNL     1      46.883   9.057  12.937  0.00  0.00    +0.000 A 
ATOM      3  C   UNL     1      45.633   9.090  12.335  0.00  0.00    +0.000 A 
ATOM      4  F   UNL     1      45.005  10.264  12.189  0.00  0.00    +0.000 F 
ATOM      5  C   UNL     1      45.038   7.932  11.847  0.00  0.00    +0.000 A 
ATOM      6  C   UNL     1      45.692   6.697  11.956  0.00  0.00    +0.000 A 
ATOM      7  C   UNL     1      46.945   6.666  12.598  0.00  0.00    +0.000 A 
ENDROOT
BRANCH   6   8
ATOM      8  C   UNL     1      45.156   5.415  11.326  0.00  0.00    +0.000 C 
ATOM      9  C   UNL     1      43.641   5.534  11.069  0.00  0.00    +0.000 C 
ATOM     10  C   UNL     1      42.818   5.268  12.327  0.00  0.00    +0.000 C 
ATOM     11  C   UNL     1      43.220   3.959  13.001  0.00  0.00    +0.000 C 
ATOM     12  N   UNL     1      44.651   3.895  13.285  0.00  0.00    +0.000 NA
ATOM     13  C   UNL     1      45.461   4.100  12.080  0.00  0.00    +0.000 C 
ATOM     14  H   UNL     1      44.881   2.995  13.704  0.00  0.00    +0.000 HD
ENDBRANCH   6   8
BRANCH   1  15
ATOM     15  C   UNL     1      48.934   7.793  13.682  0.00  0.00    +0.000 C 
BRANCH  15  16
ATOM     16  O   UNL     1      49.115   6.530  14.314  0.00  0.00    +0.000 OA
BRANCH  16  21
ATOM     17  C   UNL     1      48.005   5.000  17.409  0.00  0.00    +0.000 A 
ATOM     18  C   UNL     1      48.082   6.056  18.321  0.00  0.00    +0.000 A 
ATOM     19  C   UNL     1      48.530   7.305  17.900  0.00  0.00    +0.000 A 
ATOM     20  C   UNL     1      48.891   7.509  16.566  0.00  0.00    +0.000 A 
ATOM     21  C   UNL     1      48.797   6.462  15.643  0.00  0.00    +0.000 A 
ATOM     22  C   UNL     1      48.345   5.211  16.067  0.00  0.00    +0.000 A 
BRANCH  17  24
ATOM     23  N   UNL     1      48.193   3.162  18.991  0.00  0.00    +0.000 N 
ATOM     24  C   UNL     1      47.554   3.673  17.898  0.00  0.00    +0.000 C 
ATOM     25  O   UNL     1      46.622   3.076  17.372  0.00  0.00    +0.000 OA
ATOM     26  H   UNL     1      47.812   2.309  19.381  0.00  0.00    +0.000 HD
ATOM     27  H   UNL     1      48.794   3.720  19.580  0.00  0.00    +0.000 HD
ENDBRANCH  17  24
ENDBRANCH  16  21
ENDBRANCH  15  16
ENDBRANCH   1  15
TORSDOF 5
ENDMDL
MODEL 6
REMARK VINA RESULT:    -6.943      4.275      5.812
REMARK INTER + INTRA:          -9.311
REMARK INTER:                  -8.552
REMARK INTRA:                  -0.759
REMARK UNBOUND:                -0.339
REMARK  Name = 
REMARK  5 active torsions:
REMARK  status: ('A' for Active; 'I' for Inactive)
REMARK    1  A    between atoms: C_2  and  C_4
REMARK    2  A    between atoms: C_8  and  O_9
REMARK    3  A    between atoms: O_9  and  C_10
REMARK    4  A    between atoms: C_10  and  C_11
REMARK    5  A    between atoms: C_16  and  C_17
REMARK                            x       y       z     vdW  Elec       q    Type
REMARK                         _______ _______ _______ _____ _____    ______ ____
ROOT
ATOM      1  C   UNL     1      48.597   3.526  16.622  0.00  0.00    +0.000 A 
ATOM      2  C   UNL     1      49.236   2.288  16.744  0.00  0.00    +0.000 A 
ATOM      3  C   UNL     1      50.492   2.217  17.331  0.00  0.00    +0.000 A 
ATOM      4  F   UNL     1      51.109   1.031  17.419  0.00  0.00    +0.000 F 
ATOM      5  C   UNL     1      51.136   3.358  17.794  0.00  0.00    +0.000 A 
ATOM      6  C   UNL     1      50.525   4.615  17.680  0.00  0.00    +0.000 A 
ATOM      7  C   UNL     1      49.237   4.675  17.114  0.00  0.00    +0.000 A 
ENDROOT
BRANCH   6   8
ATOM      8  C   UNL     1      51.230   5.917  18.047  0.00  0.00    +0.000 C 
ATOM      9  C   UNL     1      50.670   7.086  17.213  0.00  0.00    +0.000 C 
ATOM     10  C   UNL     1      51.279   7.142  15.814  0.00  0.00    +0.000 C 
ATOM     11  C   UNL     1      52.804   7.102  15.858  0.00  0.00    +0.000 C 
ATOM     12  N   UNL     1      53.309   5.955  16.606  0.00  0.00    +0.000 NA
ATOM     13  C   UNL     1      52.774   5.907  17.971  0.00  0.00    +0.000 C 
ATOM     14  H   UNL     1      54.328   5.983  16.638  0.00  0.00    +0.000 HD
ENDBRANCH   6   8
BRANCH   1  15
ATOM     15  C   UNL     1      47.251   3.625  15.950  0.00  0.00    +0.000 C 
BRANCH  15  16
ATOM     16  O   UNL     1      47.363   3.139  14.617  0.00  0.00    +0.000 OA
BRANCH  16  21
ATOM     17  C   UNL     1      45.150   3.835  11.829  0.00  0.00    +0.000 A 
ATOM     18  C   UNL     1      45.391   5.188  11.573  0.00  0.00    +0.000 A 
ATOM     19  C   UNL     1      46.302   5.890  12.359  0.00  0.00    +0.000 A 
ATOM     20  C   UNL     1      46.983   5.244  13.393  0.00  0.00    +0.000 A 
ATOM     21  C   UNL     1      46.761   3.887  13.642  0.00  0.00    +0.000 A 
ATOM     22  C   UNL     1      45.851   3.183  12.852  0.00  0.00    +0.000 A 
BRANCH  17  24
ATOM     23  N   UNL     1      44.593   2.576   9.825  0.00  0.00    +0.000 N 
ATOM     24  C   UNL     1      44.150   3.123  10.995  0.00  0.00    +0.000 C 
ATOM     25  O   UNL     1      42.987   2.995  11.355  0.00  0.00    +0.000 OA
ATOM     26  H   UNL     1      43.932   2.004   9.313  0.00  0.00    +0.000 HD
ATOM     27  H   UNL     1      45.574   2.460   9.614  0.00  0.00    +0.000 HD
ENDBRANCH  17  24
ENDBRANCH  16  21
ENDBRANCH  15  16
ENDBRANCH   1  15
TORSDOF 5
ENDMDL
MODEL 7
REMARK VINA RESULT:    -6.904      3.000      4.263
REMARK INTER + INTRA:          -9.262
REMARK INTER:                  -8.547
REMARK INTRA:                  -0.714
REMARK UNBOUND:                -0.339
REMARK  Name = 
REMARK  5 active torsions:
REMARK  status: ('A' for Active; 'I' for Inactive)
REMARK    1  A    between atoms: C_2  and  C_4
REMARK    2  A    between atoms: C_8  and  O_9
REMARK    3  A    between atoms: O_9  and  C_10
REMARK    4  A    between atoms: C_10  and  C_11
REMARK    5  A    between atoms: C_16  and  C_17
REMARK                            x       y       z     vdW  Elec       q    Type
REMARK                         _______ _______ _______ _____ _____    ______ ____
ROOT
ATOM      1  C   UNL     1      47.467   4.465  15.192  0.00  0.00    +0.000 A 
ATOM      2  C   UNL     1      47.394   3.554  16.251  0.00  0.00    +0.000 A 
ATOM      3  C   UNL     1      47.924   3.894  17.488  0.00  0.00    +0.000 A 
ATOM      4  F   UNL     1      47.876   3.005  18.489  0.00  0.00    +0.000 F 
ATOM      5  C   UNL     1      48.535   5.125  17.697  0.00  0.00    +0.000 A 
ATOM      6  C   UNL     1      48.629   6.057  16.654  0.00  0.00    +0.000 A 
ATOM      7  C   UNL     1      48.061   5.720  15.411  0.00  0.00    +0.000 A 
ENDROOT
BRANCH   6   8
ATOM      8  C   UNL     1      49.400   7.367  16.779  0.00  0.00    +0.000 C 
ATOM      9  C   UNL     1      49.369   7.875  18.235  0.00  0.00    +0.000 C 
ATOM     10  C   UNL     1      48.068   8.601  18.565  0.00  0.00    +0.000 C 
ATOM     11  C   UNL     1      47.745   9.682  17.537  0.00  0.00    +0.000 C 
ATOM     12  N   UNL     1      47.726   9.164  16.172  0.00  0.00    +0.000 NA
ATOM     13  C   UNL     1      48.986   8.503  15.816  0.00  0.00    +0.000 C 
ATOM     14  H   UNL     1      47.539   9.922  15.517  0.00  0.00    +0.000 HD
ENDBRANCH   6   8
BRANCH   1  15
ATOM     15  C   UNL     1      46.934   4.096  13.831  0.00  0.00    +0.000 C 
BRANCH  15  16
ATOM     16  O   UNL     1      45.519   3.953  13.913  0.00  0.00    +0.000 OA
BRANCH  16  21
ATOM     17  C   UNL     1      44.466   3.793  10.446  0.00  0.00    +0.000 A 
ATOM     18  C   UNL     1      43.491   4.792  10.373  0.00  0.00    +0.000 A 
ATOM     19  C   UNL     1      43.164   5.527  11.510  0.00  0.00    +0.000 A 
ATOM     20  C   UNL     1      43.816   5.276  12.720  0.00  0.00    +0.000 A 
ATOM     21  C   UNL     1      44.806   4.292  12.796  0.00  0.00    +0.000 A 
ATOM     22  C   UNL     1      45.135   3.559  11.654  0.00  0.00    +0.000 A 
BRANCH  17  24
ATOM     23  N   UNL     1      44.308   3.501   8.037  0.00  0.00    +0.000 N 
ATOM     24  C   UNL     1      44.767   3.007   9.224  0.00  0.00    +0.000 C 
ATOM     25  O   UNL     1      45.433   1.980   9.269  0.00  0.00    +0.000 OA
ATOM     26  H   UNL     1      44.606   3.017   7.199  0.00  0.00    +0.000 HD
ATOM     27  H   UNL     1      43.966   4.446   7.937  0.00  0.00    +0.000 HD
ENDBRANCH  17  24
ENDBRANCH  16  21
ENDBRANCH  15  16
ENDBRANCH   1  15
TORSDOF 5
ENDMDL
MODEL 8
REMARK VINA RESULT:    -6.743      4.067      6.355
REMARK INTER + INTRA:          -9.053
REMARK INTER:                  -7.858
REMARK INTRA:                  -1.195
REMARK UNBOUND:                -0.339
REMARK  Name = 
REMARK  5 active torsions:
REMARK  status: ('A' for Active; 'I' for Inactive)
REMARK    1  A    between atoms: C_2  and  C_4
REMARK    2  A    between atoms: C_8  and  O_9
REMARK    3  A    between atoms: O_9  and  C_10
REMARK    4  A    between atoms: C_10  and  C_11
REMARK    5  A    between atoms: C_16  and  C_17
REMARK                            x       y       z     vdW  Elec       q    Type
REMARK                         _______ _______ _______ _____ _____    ______ ____
ROOT
ATOM      1  C   UNL     1      49.217   7.803  15.134  0.00  0.00    +0.000 A 
ATOM      2  C   UNL     1      50.595   7.854  14.903  0.00  0.00    +0.000 A 
ATOM      3  C   UNL     1      51.450   7.074  15.668  0.00  0.00    +0.000 A 
ATOM      4  F   UNL     1      52.771   7.149  15.460  0.00  0.00    +0.000 F 
ATOM      5  C   UNL     1      50.964   6.243  16.671  0.00  0.00    +0.000 A 
ATOM      6  C   UNL     1      49.589   6.174  16.932  0.00  0.00    +0.000 A 
ATOM      7  C   UNL     1      48.724   6.943  16.130  0.00  0.00    +0.000 A 
ENDROOT
BRANCH   6   8
ATOM      8  C   UNL     1      49.003   5.387  18.100  0.00  0.00    +0.000 C 
ATOM      9  C   UNL     1      49.786   4.075  18.313  0.00  0.00    +0.000 C 
ATOM     10  C   UNL     1      49.349   2.978  17.345  0.00  0.00    +0.000 C 
ATOM     11  C   UNL     1      47.834   2.790  17.349  0.00  0.00    +0.000 C 
ATOM     12  N   UNL     1      47.118   4.036  17.090  0.00  0.00    +0.000 NA
ATOM     13  C   UNL     1      47.487   5.091  18.038  0.00  0.00    +0.000 C 
ATOM     14  H   UNL     1      46.113   3.873  17.132  0.00  0.00    +0.000 HD
ENDBRANCH   6   8
BRANCH   1  15
ATOM     15  C   UNL     1      48.278   8.674  14.340  0.00  0.00    +0.000 C 
BRANCH  15  16
ATOM     16  O   UNL     1      48.064   8.079  13.064  0.00  0.00    +0.000 OA
BRANCH  16  21
ATOM     17  C   UNL     1      46.145   5.002  13.053  0.00  0.00    +0.000 A 
ATOM     18  C   UNL     1      44.855   5.442  12.740  0.00  0.00    +0.000 A 
ATOM     19  C   UNL     1      44.615   6.800  12.544  0.00  0.00    +0.000 A 
ATOM     20  C   UNL     1      45.661   7.721  12.647  0.00  0.00    +0.000 A 
ATOM     21  C   UNL     1      46.956   7.285  12.939  0.00  0.00    +0.000 A 
ATOM     22  C   UNL     1      47.196   5.923  13.132  0.00  0.00    +0.000 A 
BRANCH  17  24
ATOM     23  N   UNL     1      45.545   2.686  12.618  0.00  0.00    +0.000 N 
ATOM     24  C   UNL     1      46.361   3.552  13.287  0.00  0.00    +0.000 C 
ATOM     25  O   UNL     1      47.256   3.145  14.017  0.00  0.00    +0.000 OA
ATOM     26  H   UNL     1      45.765   1.700  12.701  0.00  0.00    +0.000 HD
ATOM     27  H   UNL     1      44.963   2.972  11.844  0.00  0.00    +0.000 HD
ENDBRANCH  17  24
ENDBRANCH  16  21
ENDBRANCH  15  16
ENDBRANCH   1  15
TORSDOF 5
ENDMDL
MODEL 9
REMARK VINA RESULT:    -6.699      4.477      6.660
REMARK INTER + INTRA:          -8.996
REMARK INTER:                  -8.434
REMARK INTRA:                  -0.562
REMARK UNBOUND:                -0.339
REMARK  Name = 
REMARK  5 active torsions:
REMARK  status: ('A' for Active; 'I' for Inactive)
REMARK    1  A    between atoms: C_2  and  C_4
REMARK    2  A    between atoms: C_8  and  O_9
REMARK    3  A    between atoms: O_9  and  C_10
REMARK    4  A    between atoms: C_10  and  C_11
REMARK    5  A    between atoms: C_16  and  C_17
REMARK                            x       y       z     vdW  Elec       q    Type
REMARK                         _______ _______ _______ _____ _____    ______ ____
ROOT
ATOM      1  C   UNL     1      46.416   4.832  13.560  0.00  0.00    +0.000 A 
ATOM      2  C   UNL     1      45.042   4.828  13.299  0.00  0.00    +0.000 A 
ATOM      3  C   UNL     1      44.484   5.840  12.531  0.00  0.00    +0.000 A 
ATOM      4  F   UNL     1      43.163   5.844  12.309  0.00  0.00    +0.000 F 
ATOM      5  C   UNL     1      45.266   6.870  12.019  0.00  0.00    +0.000 A 
ATOM      6  C   UNL     1      46.644   6.907  12.268  0.00  0.00    +0.000 A 
ATOM      7  C   UNL     1      47.209   5.859  13.020  0.00  0.00    +0.000 A 
ENDROOT
BRANCH   6   8
ATOM      8  C   UNL     1      47.532   8.074  11.849  0.00  0.00    +0.000 C 
ATOM      9  C   UNL     1      49.020   7.715  12.038  0.00  0.00    +0.000 C 
ATOM     10  C   UNL     1      49.475   7.879  13.486  0.00  0.00    +0.000 C 
ATOM     11  C   UNL     1      49.105   9.251  14.044  0.00  0.00    +0.000 C 
ATOM     12  N   UNL     1      47.681   9.543  13.904  0.00  0.00    +0.000 NA
ATOM     13  C   UNL     1      47.232   9.438  12.512  0.00  0.00    +0.000 C 
ATOM     14  H   UNL     1      47.483  10.478  14.258  0.00  0.00    +0.000 HD
ENDBRANCH   6   8
BRANCH   1  15
ATOM     15  C   UNL     1      47.031   3.763  14.426  0.00  0.00    +0.000 C 
BRANCH  15  16
ATOM     16  O   UNL     1      46.511   3.883  15.747  0.00  0.00    +0.000 OA
BRANCH  16  21
ATOM     17  C   UNL     1      49.552   3.131  17.573  0.00  0.00    +0.000 A 
ATOM     18  C   UNL     1      49.453   3.962  18.693  0.00  0.00    +0.000 A 
ATOM     19  C   UNL     1      48.354   4.806  18.836  0.00  0.00    +0.000 A 
ATOM     20  C   UNL     1      47.345   4.815  17.870  0.00  0.00    +0.000 A 
ATOM     21  C   UNL     1      47.428   3.973  16.758  0.00  0.00    +0.000 A 
ATOM     22  C   UNL     1      48.528   3.125  16.618  0.00  0.00    +0.000 A 
BRANCH  17  24
ATOM     23  N   UNL     1      51.863   2.630  18.141  0.00  0.00    +0.000 N 
ATOM     24  C   UNL     1      50.752   2.268  17.435  0.00  0.00    +0.000 C 
ATOM     25  O   UNL     1      50.737   1.252  16.752  0.00  0.00    +0.000 OA
ATOM     26  H   UNL     1      52.641   1.982  18.125  0.00  0.00    +0.000 HD
ATOM     27  H   UNL     1      51.838   3.315  18.883  0.00  0.00    +0.000 HD
ENDBRANCH  17  24
ENDBRANCH  16  21
ENDBRANCH  15  16
ENDBRANCH   1  15
TORSDOF 5
ENDMDL
