MODEL 1
REMARK VINA RESULT:    -8.665      0.000      0.000
REMARK INTER + INTRA:         -11.900
REMARK INTER:                 -11.198
REMARK INTRA:                  -0.702
REMARK UNBOUND:                -0.702
REMARK  Name = 
REMARK  5 active torsions:
REMARK  status: ('A' for Active; 'I' for Inactive)
REMARK    1  A    between atoms: C_2  and  C_4
REMARK    2  A    between atoms: C_7  and  O_8
REMARK    3  A    between atoms: O_8  and  C_9
REMARK    4  A    between atoms: C_9  and  C_10
REMARK    5  A    between atoms: C_15  and  C_16
REMARK                            x       y       z     vdW  Elec       q    Type
REMARK                         _______ _______ _______ _____ _____    ______ ____
ROOT
ATOM      1  C   UNL     1      44.831   4.601  11.968  0.00  0.00    +0.000 A 
ATOM      2  C   UNL     1      45.478   3.675  12.793  0.00  0.00    +0.000 A 
ATOM      3  C   UNL     1      46.653   4.037  13.437  0.00  0.00    +0.000 A 
ATOM      4  F   UNL     1      47.285   3.146  14.212  0.00  0.00    +0.000 F 
ATOM      5  C   UNL     1      47.221   5.289  13.233  0.00  0.00    +0.000 A 
ATOM      6  C   UNL     1      46.629   6.212  12.350  0.00  0.00    +0.000 A 
ATOM      7  C   UNL     1      45.387   5.883  11.796  0.00  0.00    +0.000 A 
ENDROOT
BRANCH   6   8
ATOM      8  C   UNL     1      47.458   7.407  11.882  0.00  0.00    +0.000 C 
ATOM      9  C   UNL     1      48.854   7.650  12.500  0.00  0.00    +0.000 C 
ATOM     10  C   UNL     1      48.864   8.325  13.883  0.00  0.00    +0.000 C 
ATOM     11  N   UNL     1      47.899   9.415  14.053  0.00  0.00    +0.000 NA
ATOM     12  C   UNL     1      46.567   9.017  13.600  0.00  0.00    +0.000 C 
ATOM     13  C   UNL     1      46.617   8.680  12.111  0.00  0.00    +0.000 C 
ATOM     14  H   UNL     1      48.198  10.226  13.511  0.00  0.00    +0.000 HD
ENDBRANCH   6   8
BRANCH   1  15
ATOM     15  C   UNL     1      43.574   4.232  11.217  0.00  0.00    +0.000 C 
BRANCH  15  16
ATOM     16  O   UNL     1      43.717   4.694   9.869  0.00  0.00    +0.000 OA
BRANCH  16  20
ATOM     17  C   UNL     1      46.406   2.458   7.705  0.00  0.00    +0.000 A 
ATOM     18  C   UNL     1      45.525   1.819   8.585  0.00  0.00    +0.000 A 
ATOM     19  C   UNL     1      44.622   2.591   9.316  0.00  0.00    +0.000 A 
ATOM     20  C   UNL     1      44.627   3.966   9.142  0.00  0.00    +0.000 A 
ATOM     21  N   UNL     1      45.472   4.609   8.304  0.00  0.00    +0.000 NA
ATOM     22  C   UNL     1      46.347   3.841   7.617  0.00  0.00    +0.000 A 
BRANCH  17  24
ATOM     23  N   UNL     1      48.487   2.456   6.449  0.00  0.00    +0.000 N 
ATOM     24  C   UNL     1      47.406   1.745   6.885  0.00  0.00    +0.000 C 
ATOM     25  O   UNL     1      47.300   0.547   6.649  0.00  0.00    +0.000 OA
ATOM     26  H   UNL     1      49.216   1.919   5.995  0.00  0.00    +0.000 HD
ATOM     27  H   UNL     1      48.746   3.351   6.840  0.00  0.00    +0.000 HD
ENDBRANCH  17  24
ENDBRANCH  16  20
ENDBRANCH  15  16
ENDBRANCH   1  15
TORSDOF 5
ENDMDL
MODEL 2
REMARK VINA RESULT:    -7.976      2.044      2.654
REMARK INTER + INTRA:         -11.009
REMARK INTER:                 -10.367
REMARK INTRA:                  -0.643
REMARK UNBOUND:                -0.702
REMARK  Name = 
REMARK  5 active torsions:
REMARK  status: ('A' for Active; 'I' for Inactive)
REMARK    1  A    between atoms: C_2  and  C_4
REMARK    2  A    between atoms: C_7  and  O_8
REMARK    3  A    between atoms: O_8  and  C_9
REMARK    4  A    between atoms: C_9  and  C_10
REMARK    5  A    between atoms: C_15  and  C_16
REMARK                            x       y       z     vdW  Elec       q    Type
REMARK                         _______ _______ _______ _____ _____    ______ ____
ROOT
ATOM      1  C   UNL     1      44.560   4.809  11.702  0.00  0.00    +0.000 A 
ATOM      2  C   UNL     1      43.583   5.723  11.293  0.00  0.00    +0.000 A 
ATOM      3  C   UNL     1      43.830   7.083  11.407  0.00  0.00    +0.000 A 
ATOM      4  F   UNL     1      42.889   7.961  11.034  0.00  0.00    +0.000 F 
ATOM      5  C   UNL     1      45.013   7.549  11.969  0.00  0.00    +0.000 A 
ATOM      6  C   UNL     1      45.980   6.649  12.457  0.00  0.00    +0.000 A 
ATOM      7  C   UNL     1      45.774   5.284  12.233  0.00  0.00    +0.000 A 
ENDROOT
BRANCH   6   8
ATOM      8  C   UNL     1      47.075   7.186  13.377  0.00  0.00    +0.000 C 
ATOM      9  C   UNL     1      47.158   8.705  13.653  0.00  0.00    +0.000 C 
ATOM     10  C   UNL     1      47.824   9.547  12.550  0.00  0.00    +0.000 C 
ATOM     11  N   UNL     1      49.015   8.949  11.941  0.00  0.00    +0.000 NA
ATOM     12  C   UNL     1      48.771   7.560  11.556  0.00  0.00    +0.000 C 
ATOM     13  C   UNL     1      48.434   6.740  12.800  0.00  0.00    +0.000 C 
ATOM     14  H   UNL     1      49.789   8.971  12.606  0.00  0.00    +0.000 HD
ENDBRANCH   6   8
BRANCH   1  15
ATOM     15  C   UNL     1      44.313   3.320  11.634  0.00  0.00    +0.000 C 
BRANCH  15  16
ATOM     16  O   UNL     1      43.725   3.030  10.361  0.00  0.00    +0.000 OA
BRANCH  16  20
ATOM     17  C   UNL     1      46.514   2.577   7.372  0.00  0.00    +0.000 A 
ATOM     18  C   UNL     1      45.906   3.824   7.569  0.00  0.00    +0.000 A 
ATOM     19  C   UNL     1      44.959   3.960   8.583  0.00  0.00    +0.000 A 
ATOM     20  C   UNL     1      44.654   2.856   9.364  0.00  0.00    +0.000 A 
ATOM     21  N   UNL     1      45.221   1.641   9.192  0.00  0.00    +0.000 NA
ATOM     22  C   UNL     1      46.126   1.529   8.193  0.00  0.00    +0.000 A 
BRANCH  17  24
ATOM     23  N   UNL     1      47.415   3.002   5.155  0.00  0.00    +0.000 N 
ATOM     24  C   UNL     1      47.525   2.314   6.329  0.00  0.00    +0.000 C 
ATOM     25  O   UNL     1      48.459   1.546   6.527  0.00  0.00    +0.000 OA
ATOM     26  H   UNL     1      48.185   2.896   4.506  0.00  0.00    +0.000 HD
ATOM     27  H   UNL     1      46.836   3.824   5.057  0.00  0.00    +0.000 HD
ENDBRANCH  17  24
ENDBRANCH  16  20
ENDBRANCH  15  16
ENDBRANCH   1  15
TORSDOF 5
ENDMDL
MODEL 3
REMARK VINA RESULT:    -7.252      4.982      7.747
REMARK INTER + INTRA:         -10.074
REMARK INTER:                  -9.394
REMARK INTRA:                  -0.680
REMARK UNBOUND:                -0.702
REMARK  Name = 
REMARK  5 active torsions:
REMARK  status: ('A' for Active; 'I' for Inactive)
REMARK    1  A    between atoms: C_2  and  C_4
REMARK    2  A    between atoms: C_7  and  O_8
REMARK    3  A    between atoms: O_8  and  C_9
REMARK    4  A    between atoms: C_9  and  C_10
REMARK    5  A    between atoms: C_15  and  C_16
REMARK                            x       y       z     vdW  Elec       q    Type
REMARK                         _______ _______ _______ _____ _____    ______ ____
ROOT
ATOM      1  C   UNL     1      46.698   5.093  13.999  0.00  0.00    +0.000 A 
ATOM      2  C   UNL     1      47.736   5.863  13.463  0.00  0.00    +0.000 A 
ATOM      3  C   UNL     1      47.523   6.578  12.294  0.00  0.00    +0.000 A 
ATOM      4  F   UNL     1      48.521   7.300  11.768  0.00  0.00    +0.000 F 
ATOM      5  C   UNL     1      46.310   6.498  11.620  0.00  0.00    +0.000 A 
ATOM      6  C   UNL     1      45.275   5.672  12.098  0.00  0.00    +0.000 A 
ATOM      7  C   UNL     1      45.457   5.047  13.336  0.00  0.00    +0.000 A 
ENDROOT
BRANCH   6   8
ATOM      8  C   UNL     1      44.120   5.334  11.158  0.00  0.00    +0.000 C 
ATOM      9  C   UNL     1      42.946   4.471  11.676  0.00  0.00    +0.000 C 
ATOM     10  C   UNL     1      43.205   2.954  11.726  0.00  0.00    +0.000 C 
ATOM     11  N   UNL     1      43.933   2.407  10.578  0.00  0.00    +0.000 NA
ATOM     12  C   UNL     1      45.125   3.199  10.282  0.00  0.00    +0.000 C 
ATOM     13  C   UNL     1      44.711   4.625   9.923  0.00  0.00    +0.000 C 
ATOM     14  H   UNL     1      43.328   2.409   9.755  0.00  0.00    +0.000 HD
ENDBRANCH   6   8
BRANCH   1  15
ATOM     15  C   UNL     1      46.903   4.267  15.247  0.00  0.00    +0.000 C 
BRANCH  15  16
ATOM     16  O   UNL     1      47.809   4.977  16.099  0.00  0.00    +0.000 OA
BRANCH  16  20
ATOM     17  C   UNL     1      50.888   2.594  17.424  0.00  0.00    +0.000 A 
ATOM     18  C   UNL     1      49.693   2.005  16.994  0.00  0.00    +0.000 A 
ATOM     19  C   UNL     1      48.656   2.827  16.552  0.00  0.00    +0.000 A 
ATOM     20  C   UNL     1      48.847   4.200  16.552  0.00  0.00    +0.000 A 
ATOM     21  N   UNL     1      49.988   4.794  16.968  0.00  0.00    +0.000 NA
ATOM     22  C   UNL     1      50.973   3.978  17.405  0.00  0.00    +0.000 A 
BRANCH  17  24
ATOM     23  N   UNL     1      51.893   0.481  18.082  0.00  0.00    +0.000 N 
ATOM     24  C   UNL     1      52.049   1.827  17.916  0.00  0.00    +0.000 C 
ATOM     25  O   UNL     1      53.131   2.367  18.118  0.00  0.00    +0.000 OA
ATOM     26  H   UNL     1      52.734  -0.039  18.302  0.00  0.00    +0.000 HD
ATOM     27  H   UNL     1      51.122  -0.033  17.677  0.00  0.00    +0.000 HD
ENDBRANCH  17  24
ENDBRANCH  16  20
ENDBRANCH  15  16
ENDBRANCH   1  15
TORSDOF 5
ENDMDL
MODEL 4
REMARK VINA RESULT:    -7.131      4.870      8.574
REMARK INTER + INTRA:          -9.917
REMARK INTER:                  -9.333
REMARK INTRA:                  -0.584
REMARK UNBOUND:                -0.702
REMARK  Name = 
REMARK  5 active torsions:
REMARK  status: ('A' for Active; 'I' for Inactive)
REMARK    1  A    between atoms: C_2  and  C_4
REMARK    2  A    between atoms: C_7  and  O_8
REMARK    3  A    between atoms: O_8  and  C_9
REMARK    4  A    between atoms: C_9  and  C_10
REMARK    5  A    between atoms: C_15  and  C_16
REMARK                            x       y       z     vdW  Elec       q    Type
REMARK                         _______ _______ _______ _____ _____    ______ ____
ROOT
ATOM      1  C   UNL     1      46.720   5.329  13.650  0.00  0.00    +0.000 A 
ATOM      2  C   UNL     1      47.677   6.103  12.985  0.00  0.00    +0.000 A 
ATOM      3  C   UNL     1      47.347   6.716  11.785  0.00  0.00    +0.000 A 
ATOM      4  F   UNL     1      48.267   7.442  11.137  0.00  0.00    +0.000 F 
ATOM      5  C   UNL     1      46.094   6.531  11.210  0.00  0.00    +0.000 A 
ATOM      6  C   UNL     1      45.140   5.696  11.822  0.00  0.00    +0.000 A 
ATOM      7  C   UNL     1      45.439   5.177  13.085  0.00  0.00    +0.000 A 
ENDROOT
BRANCH   6   8
ATOM      8  C   UNL     1      43.940   5.236  10.997  0.00  0.00    +0.000 C 
ATOM      9  C   UNL     1      42.883   4.311  11.643  0.00  0.00    +0.000 C 
ATOM     10  C   UNL     1      43.261   2.820  11.722  0.00  0.00    +0.000 C 
ATOM     11  N   UNL     1      43.932   2.283  10.535  0.00  0.00    +0.000 NA
ATOM     12  C   UNL     1      45.031   3.148  10.112  0.00  0.00    +0.000 C 
ATOM     13  C   UNL     1      44.480   4.523   9.740  0.00  0.00    +0.000 C 
ATOM     14  H   UNL     1      43.263   2.206   9.768  0.00  0.00    +0.000 HD
ENDBRANCH   6   8
BRANCH   1  15
ATOM     15  C   UNL     1      47.054   4.611  14.936  0.00  0.00    +0.000 C 
BRANCH  15  16
ATOM     16  O   UNL     1      48.312   5.110  15.404  0.00  0.00    +0.000 OA
BRANCH  16  20
ATOM     17  C   UNL     1      48.807   4.642  19.460  0.00  0.00    +0.000 A 
ATOM     18  C   UNL     1      48.516   3.527  18.665  0.00  0.00    +0.000 A 
ATOM     19  C   UNL     1      48.345   3.703  17.292  0.00  0.00    +0.000 A 
ATOM     20  C   UNL     1      48.474   4.977  16.762  0.00  0.00    +0.000 A 
ATOM     21  N   UNL     1      48.748   6.071  17.507  0.00  0.00    +0.000 NA
ATOM     22  C   UNL     1      48.895   5.878  18.837  0.00  0.00    +0.000 A 
BRANCH  17  24
ATOM     23  N   UNL     1      50.285   4.594  21.389  0.00  0.00    +0.000 N 
ATOM     24  C   UNL     1      49.002   4.578  20.922  0.00  0.00    +0.000 C 
ATOM     25  O   UNL     1      48.049   4.565  21.693  0.00  0.00    +0.000 OA
ATOM     26  H   UNL     1      50.390   4.672  22.393  0.00  0.00    +0.000 HD
ATOM     27  H   UNL     1      51.070   4.874  20.817  0.00  0.00    +0.000 HD
ENDBRANCH  17  24
ENDBRANCH  16  20
ENDBRANCH  15  16
ENDBRANCH   1  15
TORSDOF 5
ENDMDL
MODEL 5
REMARK VINA RESULT:    -6.664      4.028      6.328
REMARK INTER + INTRA:          -9.314
REMARK INTER:                  -8.471
REMARK INTRA:                  -0.842
REMARK UNBOUND:                -0.702
REMARK  Name = 
REMARK  5 active torsions:
REMARK  status: ('A' for Active; 'I' for Inactive)
REMARK    1  A    between atoms: C_2  and  C_4
REMARK    2  A    between atoms: C_7  and  O_8
REMARK    3  A    between atoms: O_8  and  C_9
REMARK    4  A    between atoms: C_9  and  C_10
REMARK    5  A    between atoms: C_15  and  C_16
REMARK                            x       y       z     vdW  Elec       q    Type
REMARK                         _______ _______ _______ _____ _____    ______ ____
ROOT
ATOM      1  C   UNL     1      48.778   7.741  14.901  0.00  0.00    +0.000 A 
ATOM      2  C   UNL     1      48.305   8.933  15.459  0.00  0.00    +0.000 A 
ATOM      3  C   UNL     1      48.341   9.105  16.835  0.00  0.00    +0.000 A 
ATOM      4  F   UNL     1      47.871  10.238  17.374  0.00  0.00    +0.000 F 
ATOM      5  C   UNL     1      48.793   8.089  17.670  0.00  0.00    +0.000 A 
ATOM      6  C   UNL     1      49.205   6.852  17.137  0.00  0.00    +0.000 A 
ATOM      7  C   UNL     1      49.273   6.729  15.746  0.00  0.00    +0.000 A 
ENDROOT
BRANCH   6   8
ATOM      8  C   UNL     1      49.344   5.662  18.085  0.00  0.00    +0.000 C 
ATOM      9  C   UNL     1      49.342   4.227  17.508  0.00  0.00    +0.000 C 
ATOM     10  C   UNL     1      47.958   3.649  17.162  0.00  0.00    +0.000 C 
ATOM     11  N   UNL     1      46.899   3.942  18.131  0.00  0.00    +0.000 NA
ATOM     12  C   UNL     1      46.875   5.363  18.475  0.00  0.00    +0.000 C 
ATOM     13  C   UNL     1      48.205   5.751  19.120  0.00  0.00    +0.000 C 
ATOM     14  H   UNL     1      47.055   3.403  18.984  0.00  0.00    +0.000 HD
ENDBRANCH   6   8
BRANCH   1  15
ATOM     15  C   UNL     1      48.716   7.498  13.411  0.00  0.00    +0.000 C 
BRANCH  15  16
ATOM     16  O   UNL     1      48.435   6.110  13.204  0.00  0.00    +0.000 OA
BRANCH  16  20
ATOM     17  C   UNL     1      44.560   5.421  12.009  0.00  0.00    +0.000 A 
ATOM     18  C   UNL     1      45.387   6.244  11.235  0.00  0.00    +0.000 A 
ATOM     19  C   UNL     1      46.697   6.472  11.656  0.00  0.00    +0.000 A 
ATOM     20  C   UNL     1      47.135   5.872  12.826  0.00  0.00    +0.000 A 
ATOM     21  N   UNL     1      46.356   5.079  13.596  0.00  0.00    +0.000 NA
ATOM     22  C   UNL     1      45.086   4.884  13.175  0.00  0.00    +0.000 A 
BRANCH  17  24
ATOM     23  N   UNL     1      42.254   6.135  11.724  0.00  0.00    +0.000 N 
ATOM     24  C   UNL     1      43.157   5.113  11.666  0.00  0.00    +0.000 C 
ATOM     25  O   UNL     1      42.824   3.995  11.291  0.00  0.00    +0.000 OA
ATOM     26  H   UNL     1      41.328   5.928  11.368  0.00  0.00    +0.000 HD
ATOM     27  H   UNL     1      42.530   7.106  11.762  0.00  0.00    +0.000 HD
ENDBRANCH  17  24
ENDBRANCH  16  20
ENDBRANCH  15  16
ENDBRANCH   1  15
TORSDOF 5
ENDMDL
MODEL 6
REMARK VINA RESULT:    -6.467      4.179      6.138
REMARK INTER + INTRA:          -9.059
REMARK INTER:                  -8.381
REMARK INTRA:                  -0.678
REMARK UNBOUND:                -0.702
REMARK  Name = 
REMARK  5 active torsions:
REMARK  status: ('A' for Active; 'I' for Inactive)
REMARK    1  A    between atoms: C_2  and  C_4
REMARK    2  A    between atoms: C_7  and  O_8
REMARK    3  A    between atoms: O_8  and  C_9
REMARK    4  A    between atoms: C_9  and  C_10
REMARK    5  A    between atoms: C_15  and  C_16
REMARK                            x       y       z     vdW  Elec       q    Type
REMARK                         _______ _______ _______ _____ _____    ______ ____
ROOT
ATOM      1  C   UNL     1      48.507   3.429  16.691  0.00  0.00    +0.000 A 
ATOM      2  C   UNL     1      49.336   2.305  16.614  0.00  0.00    +0.000 A 
ATOM      3  C   UNL     1      50.533   2.288  17.315  0.00  0.00    +0.000 A 
ATOM      4  F   UNL     1      51.337   1.221  17.227  0.00  0.00    +0.000 F 
ATOM      5  C   UNL     1      50.943   3.394  18.052  0.00  0.00    +0.000 A 
ATOM      6  C   UNL     1      50.162   4.565  18.085  0.00  0.00    +0.000 A 
ATOM      7  C   UNL     1      48.906   4.531  17.471  0.00  0.00    +0.000 A 
ENDROOT
BRANCH   6   8
ATOM      8  C   UNL     1      50.805   5.854  18.592  0.00  0.00    +0.000 C 
ATOM      9  C   UNL     1      49.987   7.167  18.580  0.00  0.00    +0.000 C 
ATOM     10  C   UNL     1      49.891   7.879  17.219  0.00  0.00    +0.000 C 
ATOM     11  N   UNL     1      51.129   7.898  16.435  0.00  0.00    +0.000 NA
ATOM     12  C   UNL     1      51.729   6.567  16.362  0.00  0.00    +0.000 C 
ATOM     13  C   UNL     1      52.087   6.095  17.769  0.00  0.00    +0.000 C 
ATOM     14  H   UNL     1      51.800   8.534  16.867  0.00  0.00    +0.000 HD
ENDBRANCH   6   8
BRANCH   1  15
ATOM     15  C   UNL     1      47.217   3.502  15.909  0.00  0.00    +0.000 C 
BRANCH  15  16
ATOM     16  O   UNL     1      47.536   3.349  14.521  0.00  0.00    +0.000 OA
BRANCH  16  20
ATOM     17  C   UNL     1      44.771   5.098  12.028  0.00  0.00    +0.000 A 
ATOM     18  C   UNL     1      45.613   5.905  12.803  0.00  0.00    +0.000 A 
ATOM     19  C   UNL     1      46.541   5.297  13.648  0.00  0.00    +0.000 A 
ATOM     20  C   UNL     1      46.601   3.913  13.687  0.00  0.00    +0.000 A 
ATOM     21  N   UNL     1      45.796   3.110  12.955  0.00  0.00    +0.000 NA
ATOM     22  C   UNL     1      44.894   3.722  12.154  0.00  0.00    +0.000 A 
BRANCH  17  24
ATOM     23  N   UNL     1      43.358   6.925  11.273  0.00  0.00    +0.000 N 
ATOM     24  C   UNL     1      43.749   5.629  11.104  0.00  0.00    +0.000 C 
ATOM     25  O   UNL     1      43.306   4.949  10.186  0.00  0.00    +0.000 OA
ATOM     26  H   UNL     1      42.749   7.301  10.555  0.00  0.00    +0.000 HD
ATOM     27  H   UNL     1      43.883   7.586  11.828  0.00  0.00    +0.000 HD
ENDBRANCH  17  24
ENDBRANCH  16  20
ENDBRANCH  15  16
ENDBRANCH   1  15
TORSDOF 5
ENDMDL
MODEL 7
REMARK VINA RESULT:    -6.277      4.368      6.689
REMARK INTER + INTRA:          -8.814
REMARK INTER:                  -8.100
REMARK INTRA:                  -0.713
REMARK UNBOUND:                -0.702
REMARK  Name = 
REMARK  5 active torsions:
REMARK  status: ('A' for Active; 'I' for Inactive)
REMARK    1  A    between atoms: C_2  and  C_4
REMARK    2  A    between atoms: C_7  and  O_8
REMARK    3  A    between atoms: O_8  and  C_9
REMARK    4  A    between atoms: C_9  and  C_10
REMARK    5  A    between atoms: C_15  and  C_16
REMARK                            x       y       z     vdW  Elec       q    Type
REMARK                         _______ _______ _______ _____ _____    ______ ____
ROOT
ATOM      1  C   UNL     1      49.309   7.132  15.261  0.00  0.00    +0.000 A 
ATOM      2  C   UNL     1      50.293   7.944  15.834  0.00  0.00    +0.000 A 
ATOM      3  C   UNL     1      50.497   7.908  17.206  0.00  0.00    +0.000 A 
ATOM      4  F   UNL     1      51.426   8.698  17.759  0.00  0.00    +0.000 F 
ATOM      5  C   UNL     1      49.700   7.114  18.024  0.00  0.00    +0.000 A 
ATOM      6  C   UNL     1      48.654   6.345  17.480  0.00  0.00    +0.000 A 
ATOM      7  C   UNL     1      48.531   6.299  16.088  0.00  0.00    +0.000 A 
ENDROOT
BRANCH   6   8
ATOM      8  C   UNL     1      47.594   5.786  18.428  0.00  0.00    +0.000 C 
ATOM      9  C   UNL     1      47.890   5.720  19.944  0.00  0.00    +0.000 C 
ATOM     10  C   UNL     1      48.765   4.539  20.402  0.00  0.00    +0.000 C 
ATOM     11  N   UNL     1      48.469   3.256  19.759  0.00  0.00    +0.000 NA
ATOM     12  C   UNL     1      48.385   3.399  18.307  0.00  0.00    +0.000 C 
ATOM     13  C   UNL     1      47.249   4.358  17.956  0.00  0.00    +0.000 C 
ATOM     14  H   UNL     1      47.577   2.897  20.103  0.00  0.00    +0.000 HD
ENDBRANCH   6   8
BRANCH   1  15
ATOM     15  C   UNL     1      49.028   7.174  13.778  0.00  0.00    +0.000 C 
BRANCH  15  16
ATOM     16  O   UNL     1      48.548   5.884  13.385  0.00  0.00    +0.000 OA
BRANCH  16  20
ATOM     17  C   UNL     1      44.626   5.902  12.146  0.00  0.00    +0.000 A 
ATOM     18  C   UNL     1      45.034   5.002  13.138  0.00  0.00    +0.000 A 
ATOM     19  C   UNL     1      46.368   5.005  13.544  0.00  0.00    +0.000 A 
ATOM     20  C   UNL     1      47.243   5.902  12.952  0.00  0.00    +0.000 A 
ATOM     21  N   UNL     1      46.877   6.776  11.988  0.00  0.00    +0.000 NA
ATOM     22  C   UNL     1      45.582   6.745  11.601  0.00  0.00    +0.000 A 
BRANCH  17  24
ATOM     23  N   UNL     1      42.826   7.187  11.138  0.00  0.00    +0.000 N 
ATOM     24  C   UNL     1      43.243   5.986  11.635  0.00  0.00    +0.000 C 
ATOM     25  O   UNL     1      42.513   5.002  11.607  0.00  0.00    +0.000 OA
ATOM     26  H   UNL     1      41.920   7.188  10.684  0.00  0.00    +0.000 HD
ATOM     27  H   UNL     1      43.467   7.930  10.896  0.00  0.00    +0.000 HD
ENDBRANCH  17  24
ENDBRANCH  16  20
ENDBRANCH  15  16
ENDBRANCH   1  15
TORSDOF 5
ENDMDL
MODEL 8
REMARK VINA RESULT:    -6.070      3.857      6.693
REMARK INTER + INTRA:          -8.546
REMARK INTER:                  -7.910
REMARK INTRA:                  -0.636
REMARK UNBOUND:                -0.702
REMARK  Name = 
REMARK  5 active torsions:
REMARK  status: ('A' for Active; 'I' for Inactive)
REMARK    1  A    between atoms: C_2  and  C_4
REMARK    2  A    between atoms: C_7  and  O_8
REMARK    3  A    between atoms: O_8  and  C_9
REMARK    4  A    between atoms: C_9  and  C_10
REMARK    5  A    between atoms: C_15  and  C_16
REMARK                            x       y       z     vdW  Elec       q    Type
REMARK                         _______ _______ _______ _____ _____    ______ ____
ROOT
ATOM      1  C   UNL     1      47.082   6.714  12.752  0.00  0.00    +0.000 A 
ATOM      2  C   UNL     1      47.610   6.378  14.003  0.00  0.00    +0.000 A 
ATOM      3  C   UNL     1      47.370   5.117  14.531  0.00  0.00    +0.000 A 
ATOM      4  F   UNL     1      47.858   4.800  15.737  0.00  0.00    +0.000 F 
ATOM      5  C   UNL     1      46.569   4.202  13.856  0.00  0.00    +0.000 A 
ATOM      6  C   UNL     1      45.964   4.543  12.631  0.00  0.00    +0.000 A 
ATOM      7  C   UNL     1      46.305   5.771  12.053  0.00  0.00    +0.000 A 
ENDROOT
BRANCH   6   8
ATOM      8  C   UNL     1      44.825   3.668  12.113  0.00  0.00    +0.000 C 
ATOM      9  C   UNL     1      44.232   3.943  10.712  0.00  0.00    +0.000 C 
ATOM     10  C   UNL     1      43.229   5.107  10.629  0.00  0.00    +0.000 C 
ATOM     11  N   UNL     1      42.282   5.196  11.745  0.00  0.00    +0.000 NA
ATOM     12  C   UNL     1      42.971   5.102  13.031  0.00  0.00    +0.000 C 
ATOM     13  C   UNL     1      43.671   3.748  13.133  0.00  0.00    +0.000 C 
ATOM     14  H   UNL     1      41.604   4.436  11.682  0.00  0.00    +0.000 HD
ENDBRANCH   6   8
BRANCH   1  15
ATOM     15  C   UNL     1      47.284   8.090  12.164  0.00  0.00    +0.000 C 
BRANCH  15  16
ATOM     16  O   UNL     1      46.445   9.002  12.880  0.00  0.00    +0.000 OA
BRANCH  16  20
ATOM     17  C   UNL     1      43.224  10.276  10.663  0.00  0.00    +0.000 A 
ATOM     18  C   UNL     1      43.527   8.910  10.721  0.00  0.00    +0.000 A 
ATOM     19  C   UNL     1      44.626   8.494  11.473  0.00  0.00    +0.000 A 
ATOM     20  C   UNL     1      45.377   9.449  12.140  0.00  0.00    +0.000 A 
ATOM     21  N   UNL     1      45.110  10.774  12.096  0.00  0.00    +0.000 NA
ATOM     22  C   UNL     1      44.049  11.154  11.349  0.00  0.00    +0.000 A 
BRANCH  17  24
ATOM     23  N   UNL     1      42.378  11.515   8.751  0.00  0.00    +0.000 N 
ATOM     24  C   UNL     1      42.091  10.831   9.897  0.00  0.00    +0.000 C 
ATOM     25  O   UNL     1      40.931  10.641  10.245  0.00  0.00    +0.000 OA
ATOM     26  H   UNL     1      41.583  11.780   8.182  0.00  0.00    +0.000 HD
ATOM     27  H   UNL     1      43.278  11.461   8.294  0.00  0.00    +0.000 HD
ENDBRANCH  17  24
ENDBRANCH  16  20
ENDBRANCH  15  16
ENDBRANCH   1  15
TORSDOF 5
ENDMDL
MODEL 9
REMARK VINA RESULT:    -5.888      4.312      8.051
REMARK INTER + INTRA:          -8.311
REMARK INTER:                  -7.869
REMARK INTRA:                  -0.441
REMARK UNBOUND:                -0.702
REMARK  Name = 
REMARK  5 active torsions:
REMARK  status: ('A' for Active; 'I' for Inactive)
REMARK    1  A    between atoms: C_2  and  C_4
REMARK    2  A    between atoms: C_7  and  O_8
REMARK    3  A    between atoms: O_8  and  C_9
REMARK    4  A    between atoms: C_9  and  C_10
REMARK    5  A    between atoms: C_15  and  C_16
REMARK                            x       y       z     vdW  Elec       q    Type
REMARK                         _______ _______ _______ _____ _____    ______ ____
ROOT
ATOM      1  C   UNL     1      47.583   7.432  12.721  0.00  0.00    +0.000 A 
ATOM      2  C   UNL     1      47.263   8.786  12.570  0.00  0.00    +0.000 A 
ATOM      3  C   UNL     1      45.997   9.144  12.130  0.00  0.00    +0.000 A 
ATOM      4  F   UNL     1      45.694  10.439  11.967  0.00  0.00    +0.000 F 
ATOM      5  C   UNL     1      45.059   8.176  11.789  0.00  0.00    +0.000 A 
ATOM      6  C   UNL     1      45.382   6.807  11.860  0.00  0.00    +0.000 A 
ATOM      7  C   UNL     1      46.617   6.455  12.413  0.00  0.00    +0.000 A 
ENDROOT
BRANCH   6   8
ATOM      8  C   UNL     1      44.475   5.808  11.145  0.00  0.00    +0.000 C 
ATOM      9  C   UNL     1      43.030   5.596  11.653  0.00  0.00    +0.000 C 
ATOM     10  C   UNL     1      42.883   4.682  12.884  0.00  0.00    +0.000 C 
ATOM     11  N   UNL     1      43.734   3.489  12.881  0.00  0.00    +0.000 NA
ATOM     12  C   UNL     1      45.119   3.828  12.561  0.00  0.00    +0.000 C 
ATOM     13  C   UNL     1      45.182   4.437  11.161  0.00  0.00    +0.000 C 
ATOM     14  H   UNL     1      43.392   2.825  12.185  0.00  0.00    +0.000 HD
ENDBRANCH   6   8
BRANCH   1  15
ATOM     15  C   UNL     1      48.963   7.001  13.156  0.00  0.00    +0.000 C 
BRANCH  15  16
ATOM     16  O   UNL     1      49.314   7.759  14.319  0.00  0.00    +0.000 OA
BRANCH  16  20
ATOM     17  C   UNL     1      48.398   5.889  17.866  0.00  0.00    +0.000 A 
ATOM     18  C   UNL     1      48.510   7.284  17.828  0.00  0.00    +0.000 A 
ATOM     19  C   UNL     1      48.826   7.903  16.618  0.00  0.00    +0.000 A 
ATOM     20  C   UNL     1      49.015   7.114  15.495  0.00  0.00    +0.000 A 
ATOM     21  N   UNL     1      48.920   5.765  15.505  0.00  0.00    +0.000 NA
ATOM     22  C   UNL     1      48.626   5.187  16.692  0.00  0.00    +0.000 A 
BRANCH  17  24
ATOM     23  N   UNL     1      47.190   5.684  19.965  0.00  0.00    +0.000 N 
ATOM     24  C   UNL     1      48.074   5.126  19.087  0.00  0.00    +0.000 C 
ATOM     25  O   UNL     1      48.538   4.008  19.283  0.00  0.00    +0.000 OA
ATOM     26  H   UNL     1      46.891   5.091  20.730  0.00  0.00    +0.000 HD
ATOM     27  H   UNL     1      46.590   6.458  19.716  0.00  0.00    +0.000 HD
ENDBRANCH  17  24
ENDBRANCH  16  20
ENDBRANCH  15  16
ENDBRANCH   1  15
TORSDOF 5
ENDMDL
