MODEL 1
REMARK VINA RESULT:    -8.659      0.000      0.000
REMARK INTER + INTRA:         -11.893
REMARK INTER:                 -11.190
REMARK INTRA:                  -0.703
REMARK UNBOUND:                -0.703
REMARK  Name = 
REMARK  5 active torsions:
REMARK  status: ('A' for Active; 'I' for Inactive)
REMARK    1  A    between atoms: C_2  and  C_3
REMARK    2  A    between atoms: C_7  and  N_8
REMARK    3  A    between atoms: N_8  and  C_9
REMARK    4  A    between atoms: C_9  and  C_10
REMARK    5  A    between atoms: C_14  and  C_15
REMARK                            x       y       z     vdW  Elec       q    Type
REMARK                         _______ _______ _______ _____ _____    ______ ____
ROOT
ATOM      1  C   UNL     1      43.618   4.971  10.756  0.00  0.00    +0.000 A 
ATOM      2  C   UNL     1      43.035   3.959  11.508  0.00  0.00    +0.000 A 
ATOM      3  N   UNL     1      43.215   2.639  11.282  0.00  0.00    +0.000 NA
ATOM      4  C   UNL     1      44.032   2.303  10.258  0.00  0.00    +0.000 A 
ATOM      5  C   UNL     1      44.695   3.215   9.430  0.00  0.00    +0.000 A 
ATOM      6  C   UNL     1      44.465   4.576   9.713  0.00  0.00    +0.000 A 
ENDROOT
BRANCH   5   7
ATOM      7  C   UNL     1      45.592   2.780   8.339  0.00  0.00    +0.000 A 
ATOM      8  C   UNL     1      45.937   3.651   7.290  0.00  0.00    +0.000 A 
ATOM      9  C   UNL     1      46.825   3.268   6.283  0.00  0.00    +0.000 A 
ATOM     10  C   UNL     1      47.383   1.994   6.297  0.00  0.00    +0.000 A 
ATOM     11  C   UNL     1      47.041   1.101   7.308  0.00  0.00    +0.000 A 
ATOM     12  C   UNL     1      46.154   1.489   8.315  0.00  0.00    +0.000 A 
ENDBRANCH   5   7
BRANCH   1  13
ATOM     13  C   UNL     1      43.325   6.417  11.067  0.00  0.00    +0.000 C 
BRANCH  13  14
ATOM     14  N   UNL     1      43.937   6.813  12.330  0.00  0.00    +0.000 N 
ATOM     15  H   UNL     1      43.363   6.568  13.134  0.00  0.00    +0.000 HD
BRANCH  14  20
ATOM     16  C   UNL     1      47.010   5.213  13.656  0.00  0.00    +0.000 A 
ATOM     17  C   UNL     1      48.003   6.116  13.278  0.00  0.00    +0.000 A 
ATOM     18  C   UNL     1      47.653   7.256  12.559  0.00  0.00    +0.000 A 
ATOM     19  C   UNL     1      46.313   7.492  12.214  0.00  0.00    +0.000 A 
ATOM     20  C   UNL     1      45.301   6.586  12.555  0.00  0.00    +0.000 A 
ATOM     21  C   UNL     1      45.672   5.455  13.302  0.00  0.00    +0.000 A 
BRANCH  16  23
ATOM     22  N   UNL     1      47.617   3.094  15.020  0.00  0.00    +0.000 NA
ATOM     23  C   UNL     1      47.350   4.042  14.411  0.00  0.00    +0.000 C 
ENDBRANCH  16  23
ENDBRANCH  14  20
ENDBRANCH  13  14
ENDBRANCH   1  13
TORSDOF 5
ENDMDL
MODEL 2
REMARK VINA RESULT:    -8.128      1.442      2.596
REMARK INTER + INTRA:         -11.207
REMARK INTER:                 -10.295
REMARK INTRA:                  -0.912
REMARK UNBOUND:                -0.703
REMARK  Name = 
REMARK  5 active torsions:
REMARK  status: ('A' for Active; 'I' for Inactive)
REMARK    1  A    between atoms: C_2  and  C_3
REMARK    2  A    between atoms: C_7  and  N_8
REMARK    3  A    between atoms: N_8  and  C_9
REMARK    4  A    between atoms: C_9  and  C_10
REMARK    5  A    between atoms: C_14  and  C_15
REMARK                            x       y       z     vdW  Elec       q    Type
REMARK                         _______ _______ _______ _____ _____    ______ ____
ROOT
ATOM      1  C   UNL     1      43.871   5.052  10.974  0.00  0.00    +0.000 A 
ATOM      2  C   UNL     1      43.174   4.049  11.636  0.00  0.00    +0.000 A 
ATOM      3  N   UNL     1      43.223   2.740  11.308  0.00  0.00    +0.000 NA
ATOM      4  C   UNL     1      44.023   2.402  10.271  0.00  0.00    +0.000 A 
ATOM      5  C   UNL     1      44.792   3.302   9.527  0.00  0.00    +0.000 A 
ATOM      6  C   UNL     1      44.695   4.653   9.913  0.00  0.00    +0.000 A 
ENDROOT
BRANCH   5   7
ATOM      7  C   UNL     1      45.663   2.864   8.416  0.00  0.00    +0.000 A 
ATOM      8  C   UNL     1      46.161   1.550   8.357  0.00  0.00    +0.000 A 
ATOM      9  C   UNL     1      46.940   1.110   7.284  0.00  0.00    +0.000 A 
ATOM     10  C   UNL     1      47.247   1.982   6.247  0.00  0.00    +0.000 A 
ATOM     11  C   UNL     1      46.790   3.296   6.289  0.00  0.00    +0.000 A 
ATOM     12  C   UNL     1      46.009   3.731   7.362  0.00  0.00    +0.000 A 
ENDBRANCH   5   7
BRANCH   1  13
ATOM     13  C   UNL     1      43.720   6.492  11.395  0.00  0.00    +0.000 C 
BRANCH  13  14
ATOM     14  N   UNL     1      44.346   6.724  12.692  0.00  0.00    +0.000 N 
ATOM     15  H   UNL     1      43.909   6.184  13.436  0.00  0.00    +0.000 HD
BRANCH  14  20
ATOM     16  C   UNL     1      47.822   7.945  12.268  0.00  0.00    +0.000 A 
ATOM     17  C   UNL     1      48.575   6.881  12.765  0.00  0.00    +0.000 A 
ATOM     18  C   UNL     1      47.923   5.757  13.264  0.00  0.00    +0.000 A 
ATOM     19  C   UNL     1      46.520   5.697  13.272  0.00  0.00    +0.000 A 
ATOM     20  C   UNL     1      45.741   6.764  12.806  0.00  0.00    +0.000 A 
ATOM     21  C   UNL     1      46.420   7.878  12.283  0.00  0.00    +0.000 A 
BRANCH  16  23
ATOM     22  N   UNL     1      49.011  10.036  11.299  0.00  0.00    +0.000 NA
ATOM     23  C   UNL     1      48.478   9.105  11.734  0.00  0.00    +0.000 C 
ENDBRANCH  16  23
ENDBRANCH  14  20
ENDBRANCH  13  14
ENDBRANCH   1  13
TORSDOF 5
ENDMDL
MODEL 3
REMARK VINA RESULT:    -7.997      2.025      6.291
REMARK INTER + INTRA:         -11.038
REMARK INTER:                 -10.193
REMARK INTRA:                  -0.845
REMARK UNBOUND:                -0.703
REMARK  Name = 
REMARK  5 active torsions:
REMARK  status: ('A' for Active; 'I' for Inactive)
REMARK    1  A    between atoms: C_2  and  C_3
REMARK    2  A    between atoms: C_7  and  N_8
REMARK    3  A    between atoms: N_8  and  C_9
REMARK    4  A    between atoms: C_9  and  C_10
REMARK    5  A    between atoms: C_14  and  C_15
REMARK                            x       y       z     vdW  Elec       q    Type
REMARK                         _______ _______ _______ _____ _____    ______ ____
ROOT
ATOM      1  C   UNL     1      44.973   4.050  11.468  0.00  0.00    +0.000 A 
ATOM      2  C   UNL     1      45.444   3.299  12.538  0.00  0.00    +0.000 A 
ATOM      3  N   UNL     1      46.349   3.739  13.439  0.00  0.00    +0.000 NA
ATOM      4  C   UNL     1      46.803   5.003  13.279  0.00  0.00    +0.000 A 
ATOM      5  C   UNL     1      46.404   5.874  12.260  0.00  0.00    +0.000 A 
ATOM      6  C   UNL     1      45.462   5.357  11.349  0.00  0.00    +0.000 A 
ENDROOT
BRANCH   5   7
ATOM      7  C   UNL     1      46.925   7.253  12.154  0.00  0.00    +0.000 A 
ATOM      8  C   UNL     1      48.281   7.499  11.871  0.00  0.00    +0.000 A 
ATOM      9  C   UNL     1      48.771   8.797  11.715  0.00  0.00    +0.000 A 
ATOM     10  C   UNL     1      47.915   9.884  11.851  0.00  0.00    +0.000 A 
ATOM     11  C   UNL     1      46.574   9.673  12.158  0.00  0.00    +0.000 A 
ATOM     12  C   UNL     1      46.086   8.373  12.309  0.00  0.00    +0.000 A 
ENDBRANCH   5   7
BRANCH   1  13
ATOM     13  C   UNL     1      43.988   3.455  10.494  0.00  0.00    +0.000 C 
BRANCH  13  14
ATOM     14  N   UNL     1      44.204   3.978   9.150  0.00  0.00    +0.000 N 
ATOM     15  H   UNL     1      44.151   4.993   9.115  0.00  0.00    +0.000 HD
BRANCH  14  20
ATOM     16  C   UNL     1      46.544   1.506   7.676  0.00  0.00    +0.000 A 
ATOM     17  C   UNL     1      47.423   2.317   6.960  0.00  0.00    +0.000 A 
ATOM     18  C   UNL     1      47.226   3.695   6.948  0.00  0.00    +0.000 A 
ATOM     19  C   UNL     1      46.149   4.262   7.648  0.00  0.00    +0.000 A 
ATOM     20  C   UNL     1      45.235   3.466   8.351  0.00  0.00    +0.000 A 
ATOM     21  C   UNL     1      45.467   2.081   8.370  0.00  0.00    +0.000 A 
BRANCH  16  23
ATOM     22  N   UNL     1      46.901  -1.062   7.735  0.00  0.00    +0.000 NA
ATOM     23  C   UNL     1      46.742   0.085   7.713  0.00  0.00    +0.000 C 
ENDBRANCH  16  23
ENDBRANCH  14  20
ENDBRANCH  13  14
ENDBRANCH   1  13
TORSDOF 5
ENDMDL
MODEL 4
REMARK VINA RESULT:    -7.902      1.769      2.285
REMARK INTER + INTRA:         -10.914
REMARK INTER:                 -10.170
REMARK INTRA:                  -0.745
REMARK UNBOUND:                -0.703
REMARK  Name = 
REMARK  5 active torsions:
REMARK  status: ('A' for Active; 'I' for Inactive)
REMARK    1  A    between atoms: C_2  and  C_3
REMARK    2  A    between atoms: C_7  and  N_8
REMARK    3  A    between atoms: N_8  and  C_9
REMARK    4  A    between atoms: C_9  and  C_10
REMARK    5  A    between atoms: C_14  and  C_15
REMARK                            x       y       z     vdW  Elec       q    Type
REMARK                         _______ _______ _______ _____ _____    ______ ____
ROOT
ATOM      1  C   UNL     1      43.810   4.999  10.989  0.00  0.00    +0.000 A 
ATOM      2  C   UNL     1      43.162   3.985  11.684  0.00  0.00    +0.000 A 
ATOM      3  N   UNL     1      43.245   2.673  11.374  0.00  0.00    +0.000 NA
ATOM      4  C   UNL     1      44.029   2.344  10.322  0.00  0.00    +0.000 A 
ATOM      5  C   UNL     1      44.750   3.256   9.545  0.00  0.00    +0.000 A 
ATOM      6  C   UNL     1      44.620   4.610   9.914  0.00  0.00    +0.000 A 
ENDROOT
BRANCH   5   7
ATOM      7  C   UNL     1      45.605   2.828   8.419  0.00  0.00    +0.000 A 
ATOM      8  C   UNL     1      45.960   3.723   7.393  0.00  0.00    +0.000 A 
ATOM      9  C   UNL     1      46.811   3.343   6.353  0.00  0.00    +0.000 A 
ATOM     10  C   UNL     1      47.320   2.050   6.310  0.00  0.00    +0.000 A 
ATOM     11  C   UNL     1      46.967   1.134   7.297  0.00  0.00    +0.000 A 
ATOM     12  C   UNL     1      46.118   1.519   8.337  0.00  0.00    +0.000 A 
ENDBRANCH   5   7
BRANCH   1  13
ATOM     13  C   UNL     1      43.624   6.440  11.392  0.00  0.00    +0.000 C 
BRANCH  13  14
ATOM     14  N   UNL     1      44.554   6.808  12.454  0.00  0.00    +0.000 N 
ATOM     15  H   UNL     1      44.926   5.997  12.943  0.00  0.00    +0.000 HD
BRANCH  14  20
ATOM     16  C   UNL     1      47.901   8.316  11.927  0.00  0.00    +0.000 A 
ATOM     17  C   UNL     1      47.627   9.682  11.993  0.00  0.00    +0.000 A 
ATOM     18  C   UNL     1      46.317  10.107  12.194  0.00  0.00    +0.000 A 
ATOM     19  C   UNL     1      45.280   9.170  12.323  0.00  0.00    +0.000 A 
ATOM     20  C   UNL     1      45.525   7.793  12.231  0.00  0.00    +0.000 A 
ATOM     21  C   UNL     1      46.858   7.386  12.054  0.00  0.00    +0.000 A 
BRANCH  16  23
ATOM     22  N   UNL     1      50.334   7.486  11.590  0.00  0.00    +0.000 NA
ATOM     23  C   UNL     1      49.249   7.860  11.738  0.00  0.00    +0.000 C 
ENDBRANCH  16  23
ENDBRANCH  14  20
ENDBRANCH  13  14
ENDBRANCH   1  13
TORSDOF 5
ENDMDL
MODEL 5
REMARK VINA RESULT:    -7.241      1.648      3.249
REMARK INTER + INTRA:         -10.061
REMARK INTER:                  -9.317
REMARK INTRA:                  -0.743
REMARK UNBOUND:                -0.703
REMARK  Name = 
REMARK  5 active torsions:
REMARK  status: ('A' for Active; 'I' for Inactive)
REMARK    1  A    between atoms: C_2  and  C_3
REMARK    2  A    between atoms: C_7  and  N_8
REMARK    3  A    between atoms: N_8  and  C_9
REMARK    4  A    between atoms: C_9  and  C_10
REMARK    5  A    between atoms: C_14  and  C_15
REMARK                            x       y       z     vdW  Elec       q    Type
REMARK                         _______ _______ _______ _____ _____    ______ ____
ROOT
ATOM      1  C   UNL     1      44.691   4.366  12.026  0.00  0.00    +0.000 A 
ATOM      2  C   UNL     1      43.590   3.560  12.288  0.00  0.00    +0.000 A 
ATOM      3  N   UNL     1      43.147   2.582  11.469  0.00  0.00    +0.000 NA
ATOM      4  C   UNL     1      43.845   2.381  10.327  0.00  0.00    +0.000 A 
ATOM      5  C   UNL     1      44.979   3.105   9.945  0.00  0.00    +0.000 A 
ATOM      6  C   UNL     1      45.389   4.115  10.838  0.00  0.00    +0.000 A 
ENDROOT
BRANCH   5   7
ATOM      7  C   UNL     1      45.708   2.821   8.691  0.00  0.00    +0.000 A 
ATOM      8  C   UNL     1      46.174   1.527   8.398  0.00  0.00    +0.000 A 
ATOM      9  C   UNL     1      46.816   1.237   7.192  0.00  0.00    +0.000 A 
ATOM     10  C   UNL     1      47.019   2.242   6.254  0.00  0.00    +0.000 A 
ATOM     11  C   UNL     1      46.593   3.539   6.527  0.00  0.00    +0.000 A 
ATOM     12  C   UNL     1      45.947   3.824   7.732  0.00  0.00    +0.000 A 
ENDBRANCH   5   7
BRANCH   1  13
ATOM     13  C   UNL     1      45.084   5.457  12.989  0.00  0.00    +0.000 C 
BRANCH  13  14
ATOM     14  N   UNL     1      46.518   5.714  12.928  0.00  0.00    +0.000 N 
ATOM     15  H   UNL     1      47.023   4.986  12.427  0.00  0.00    +0.000 HD
BRANCH  14  20
ATOM     16  C   UNL     1      46.448   9.330  12.103  0.00  0.00    +0.000 A 
ATOM     17  C   UNL     1      47.786   9.596  11.816  0.00  0.00    +0.000 A 
ATOM     18  C   UNL     1      48.724   8.573  11.916  0.00  0.00    +0.000 A 
ATOM     19  C   UNL     1      48.327   7.284  12.308  0.00  0.00    +0.000 A 
ATOM     20  C   UNL     1      46.994   6.998  12.631  0.00  0.00    +0.000 A 
ATOM     21  C   UNL     1      46.060   8.039  12.499  0.00  0.00    +0.000 A 
BRANCH  16  23
ATOM     22  N   UNL     1      44.668  11.203  11.891  0.00  0.00    +0.000 NA
ATOM     23  C   UNL     1      45.465  10.369  11.988  0.00  0.00    +0.000 C 
ENDBRANCH  16  23
ENDBRANCH  14  20
ENDBRANCH  13  14
ENDBRANCH   1  13
TORSDOF 5
ENDMDL
MODEL 6
REMARK VINA RESULT:    -7.178      2.977      4.917
REMARK INTER + INTRA:          -9.979
REMARK INTER:                  -9.465
REMARK INTRA:                  -0.514
REMARK UNBOUND:                -0.703
REMARK  Name = 
REMARK  5 active torsions:
REMARK  status: ('A' for Active; 'I' for Inactive)
REMARK    1  A    between atoms: C_2  and  C_3
REMARK    2  A    between atoms: C_7  and  N_8
REMARK    3  A    between atoms: N_8  and  C_9
REMARK    4  A    between atoms: C_9  and  C_10
REMARK    5  A    between atoms: C_14  and  C_15
REMARK                            x       y       z     vdW  Elec       q    Type
REMARK                         _______ _______ _______ _____ _____    ______ ____
ROOT
ATOM      1  C   UNL     1      44.574   5.541  10.859  0.00  0.00    +0.000 A 
ATOM      2  C   UNL     1      43.614   4.737  11.461  0.00  0.00    +0.000 A 
ATOM      3  N   UNL     1      43.339   3.467  11.091  0.00  0.00    +0.000 NA
ATOM      4  C   UNL     1      44.069   2.959  10.072  0.00  0.00    +0.000 A 
ATOM      5  C   UNL     1      45.075   3.647   9.386  0.00  0.00    +0.000 A 
ATOM      6  C   UNL     1      45.313   4.968   9.815  0.00  0.00    +0.000 A 
ENDROOT
BRANCH   5   7
ATOM      7  C   UNL     1      45.850   3.025   8.292  0.00  0.00    +0.000 A 
ATOM      8  C   UNL     1      46.194   1.661   8.329  0.00  0.00    +0.000 A 
ATOM      9  C   UNL     1      46.878   1.051   7.275  0.00  0.00    +0.000 A 
ATOM     10  C   UNL     1      47.246   1.799   6.162  0.00  0.00    +0.000 A 
ATOM     11  C   UNL     1      46.943   3.156   6.109  0.00  0.00    +0.000 A 
ATOM     12  C   UNL     1      46.255   3.761   7.163  0.00  0.00    +0.000 A 
ENDBRANCH   5   7
BRANCH   1  13
ATOM     13  C   UNL     1      44.781   6.960  11.322  0.00  0.00    +0.000 C 
BRANCH  13  14
ATOM     14  N   UNL     1      43.538   7.719  11.248  0.00  0.00    +0.000 N 
ATOM     15  H   UNL     1      42.852   7.410  11.933  0.00  0.00    +0.000 HD
BRANCH  14  20
ATOM     16  C   UNL     1      42.425  11.137  10.331  0.00  0.00    +0.000 A 
ATOM     17  C   UNL     1      43.567  11.898  10.574  0.00  0.00    +0.000 A 
ATOM     18  C   UNL     1      44.712  11.276  11.066  0.00  0.00    +0.000 A 
ATOM     19  C   UNL     1      44.713   9.895  11.319  0.00  0.00    +0.000 A 
ATOM     20  C   UNL     1      43.569   9.113  11.112  0.00  0.00    +0.000 A 
ATOM     21  C   UNL     1      42.434   9.757  10.591  0.00  0.00    +0.000 A 
BRANCH  16  23
ATOM     22  N   UNL     1      40.292  12.264   9.382  0.00  0.00    +0.000 NA
ATOM     23  C   UNL     1      41.242  11.758   9.808  0.00  0.00    +0.000 C 
ENDBRANCH  16  23
ENDBRANCH  14  20
ENDBRANCH  13  14
ENDBRANCH   1  13
TORSDOF 5
ENDMDL
MODEL 7
REMARK VINA RESULT:    -6.997      2.461      6.570
REMARK INTER + INTRA:          -9.745
REMARK INTER:                  -8.898
REMARK INTRA:                  -0.847
REMARK UNBOUND:                -0.703
REMARK  Name = 
REMARK  5 active torsions:
REMARK  status: ('A' for Active; 'I' for Inactive)
REMARK    1  A    between atoms: C_2  and  C_3
REMARK    2  A    between atoms: C_7  and  N_8
REMARK    3  A    between atoms: N_8  and  C_9
REMARK    4  A    between atoms: C_9  and  C_10
REMARK    5  A    between atoms: C_14  and  C_15
REMARK                            x       y       z     vdW  Elec       q    Type
REMARK                         _______ _______ _______ _____ _____    ______ ____
ROOT
ATOM      1  C   UNL     1      45.761   6.167  12.340  0.00  0.00    +0.000 A 
ATOM      2  C   UNL     1      46.217   5.256  13.285  0.00  0.00    +0.000 A 
ATOM      3  N   UNL     1      47.480   5.217  13.761  0.00  0.00    +0.000 NA
ATOM      4  C   UNL     1      48.340   6.146  13.282  0.00  0.00    +0.000 A 
ATOM      5  C   UNL     1      48.014   7.131  12.344  0.00  0.00    +0.000 A 
ATOM      6  C   UNL     1      46.683   7.117  11.882  0.00  0.00    +0.000 A 
ENDROOT
BRANCH   5   7
ATOM      7  C   UNL     1      48.998   8.130  11.878  0.00  0.00    +0.000 A 
ATOM      8  C   UNL     1      50.309   7.754  11.532  0.00  0.00    +0.000 A 
ATOM      9  C   UNL     1      51.229   8.681  11.039  0.00  0.00    +0.000 A 
ATOM     10  C   UNL     1      50.861  10.014  10.891  0.00  0.00    +0.000 A 
ATOM     11  C   UNL     1      49.579  10.421  11.249  0.00  0.00    +0.000 A 
ATOM     12  C   UNL     1      48.660   9.489  11.738  0.00  0.00    +0.000 A 
ENDBRANCH   5   7
BRANCH   1  13
ATOM     13  C   UNL     1      44.339   6.105  11.845  0.00  0.00    +0.000 C 
BRANCH  13  14
ATOM     14  N   UNL     1      44.297   5.842  10.411  0.00  0.00    +0.000 N 
ATOM     15  H   UNL     1      44.733   6.584   9.866  0.00  0.00    +0.000 HD
BRANCH  14  20
ATOM     16  C   UNL     1      45.558   3.231   8.097  0.00  0.00    +0.000 A 
ATOM     17  C   UNL     1      45.094   2.058   8.690  0.00  0.00    +0.000 A 
ATOM     18  C   UNL     1      44.374   2.131   9.880  0.00  0.00    +0.000 A 
ATOM     19  C   UNL     1      44.121   3.375  10.479  0.00  0.00    +0.000 A 
ATOM     20  C   UNL     1      44.602   4.566   9.918  0.00  0.00    +0.000 A 
ATOM     21  C   UNL     1      45.304   4.471   8.705  0.00  0.00    +0.000 A 
BRANCH  16  23
ATOM     22  N   UNL     1      46.880   3.134   5.869  0.00  0.00    +0.000 NA
ATOM     23  C   UNL     1      46.287   3.175   6.862  0.00  0.00    +0.000 C 
ENDBRANCH  16  23
ENDBRANCH  14  20
ENDBRANCH  13  14
ENDBRANCH   1  13
TORSDOF 5
ENDMDL
MODEL 8
REMARK VINA RESULT:    -6.835      1.680      2.086
REMARK INTER + INTRA:          -9.536
REMARK INTER:                  -8.791
REMARK INTRA:                  -0.744
REMARK UNBOUND:                -0.703
REMARK  Name = 
REMARK  5 active torsions:
REMARK  status: ('A' for Active; 'I' for Inactive)
REMARK    1  A    between atoms: C_2  and  C_3
REMARK    2  A    between atoms: C_7  and  N_8
REMARK    3  A    between atoms: N_8  and  C_9
REMARK    4  A    between atoms: C_9  and  C_10
REMARK    5  A    between atoms: C_14  and  C_15
REMARK                            x       y       z     vdW  Elec       q    Type
REMARK                         _______ _______ _______ _____ _____    ______ ____
ROOT
ATOM      1  C   UNL     1      44.605   5.888  11.864  0.00  0.00    +0.000 A 
ATOM      2  C   UNL     1      43.479   5.254  12.373  0.00  0.00    +0.000 A 
ATOM      3  N   UNL     1      42.961   4.107  11.882  0.00  0.00    +0.000 NA
ATOM      4  C   UNL     1      43.606   3.547  10.833  0.00  0.00    +0.000 A 
ATOM      5  C   UNL     1      44.758   4.066  10.232  0.00  0.00    +0.000 A 
ATOM      6  C   UNL     1      45.247   5.266  10.785  0.00  0.00    +0.000 A 
ENDROOT
BRANCH   5   7
ATOM      7  C   UNL     1      45.426   3.393   9.099  0.00  0.00    +0.000 A 
ATOM      8  C   UNL     1      45.958   4.130   8.026  0.00  0.00    +0.000 A 
ATOM      9  C   UNL     1      46.639   3.508   6.978  0.00  0.00    +0.000 A 
ATOM     10  C   UNL     1      46.794   2.126   6.974  0.00  0.00    +0.000 A 
ATOM     11  C   UNL     1      46.256   1.367   8.009  0.00  0.00    +0.000 A 
ATOM     12  C   UNL     1      45.579   1.994   9.058  0.00  0.00    +0.000 A 
ENDBRANCH   5   7
BRANCH   1  13
ATOM     13  C   UNL     1      45.084   7.187  12.461  0.00  0.00    +0.000 C 
BRANCH  13  14
ATOM     14  N   UNL     1      46.260   7.682  11.754  0.00  0.00    +0.000 N 
ATOM     15  H   UNL     1      46.096   8.583  11.310  0.00  0.00    +0.000 HD
BRANCH  14  20
ATOM     16  C   UNL     1      48.832   7.123  14.369  0.00  0.00    +0.000 A 
ATOM     17  C   UNL     1      49.991   7.590  13.751  0.00  0.00    +0.000 A 
ATOM     18  C   UNL     1      49.924   8.075  12.448  0.00  0.00    +0.000 A 
ATOM     19  C   UNL     1      48.700   8.091  11.760  0.00  0.00    +0.000 A 
ATOM     20  C   UNL     1      47.527   7.600  12.348  0.00  0.00    +0.000 A 
ATOM     21  C   UNL     1      47.612   7.139  13.672  0.00  0.00    +0.000 A 
BRANCH  16  23
ATOM     22  N   UNL     1      48.913   6.237  16.804  0.00  0.00    +0.000 NA
ATOM     23  C   UNL     1      48.879   6.635  15.717  0.00  0.00    +0.000 C 
ENDBRANCH  16  23
ENDBRANCH  14  20
ENDBRANCH  13  14
ENDBRANCH   1  13
TORSDOF 5
ENDMDL
MODEL 9
REMARK VINA RESULT:    -6.795      2.379      7.114
REMARK INTER + INTRA:          -9.484
REMARK INTER:                  -8.747
REMARK INTRA:                  -0.737
REMARK UNBOUND:                -0.703
REMARK  Name = 
REMARK  5 active torsions:
REMARK  status: ('A' for Active; 'I' for Inactive)
REMARK    1  A    between atoms: C_2  and  C_3
REMARK    2  A    between atoms: C_7  and  N_8
REMARK    3  A    between atoms: N_8  and  C_9
REMARK    4  A    between atoms: C_9  and  C_10
REMARK    5  A    between atoms: C_14  and  C_15
REMARK                            x       y       z     vdW  Elec       q    Type
REMARK                         _______ _______ _______ _____ _____    ______ ____
ROOT
ATOM      1  C   UNL     1      45.670   5.925  12.286  0.00  0.00    +0.000 A 
ATOM      2  C   UNL     1      46.615   6.732  11.665  0.00  0.00    +0.000 A 
ATOM      3  N   UNL     1      47.835   7.009  12.175  0.00  0.00    +0.000 NA
ATOM      4  C   UNL     1      48.142   6.441  13.364  0.00  0.00    +0.000 A 
ATOM      5  C   UNL     1      47.295   5.598  14.090  0.00  0.00    +0.000 A 
ATOM      6  C   UNL     1      46.035   5.350  13.510  0.00  0.00    +0.000 A 
ENDROOT
BRANCH   5   7
ATOM      7  C   UNL     1      47.701   4.993  15.376  0.00  0.00    +0.000 A 
ATOM      8  C   UNL     1      48.486   5.706  16.300  0.00  0.00    +0.000 A 
ATOM      9  C   UNL     1      48.829   5.164  17.540  0.00  0.00    +0.000 A 
ATOM     10  C   UNL     1      48.401   3.885  17.881  0.00  0.00    +0.000 A 
ATOM     11  C   UNL     1      47.645   3.145  16.977  0.00  0.00    +0.000 A 
ATOM     12  C   UNL     1      47.301   3.693  15.739  0.00  0.00    +0.000 A 
ENDBRANCH   5   7
BRANCH   1  13
ATOM     13  C   UNL     1      44.319   5.706  11.652  0.00  0.00    +0.000 C 
BRANCH  13  14
ATOM     14  N   UNL     1      44.442   5.542  10.208  0.00  0.00    +0.000 N 
ATOM     15  H   UNL     1      44.944   6.312   9.770  0.00  0.00    +0.000 HD
BRANCH  14  20
ATOM     16  C   UNL     1      45.778   3.069   7.788  0.00  0.00    +0.000 A 
ATOM     17  C   UNL     1      45.366   1.857   8.342  0.00  0.00    +0.000 A 
ATOM     18  C   UNL     1      44.657   1.859   9.540  0.00  0.00    +0.000 A 
ATOM     19  C   UNL     1      44.363   3.070  10.187  0.00  0.00    +0.000 A 
ATOM     20  C   UNL     1      44.791   4.298   9.666  0.00  0.00    +0.000 A 
ATOM     21  C   UNL     1      45.483   4.275   8.444  0.00  0.00    +0.000 A 
BRANCH  16  23
ATOM     22  N   UNL     1      47.067   3.101   5.539  0.00  0.00    +0.000 NA
ATOM     23  C   UNL     1      46.495   3.087   6.545  0.00  0.00    +0.000 C 
ENDBRANCH  16  23
ENDBRANCH  14  20
ENDBRANCH  13  14
ENDBRANCH   1  13
TORSDOF 5
ENDMDL
