MODEL 1
REMARK VINA RESULT:    -8.180      0.000      0.000
REMARK INTER + INTRA:         -13.262
REMARK INTER:                 -12.006
REMARK INTRA:                  -1.256
REMARK UNBOUND:                -1.256
REMARK  Name = 
REMARK  8 active torsions:
REMARK  status: ('A' for Active; 'I' for Inactive)
REMARK    1  A    between atoms: C_2  and  C_3
REMARK    2  A    between atoms: C_3  and  N_4
REMARK    3  A    between atoms: C_3  and  C_26
REMARK    4  A    between atoms: N_4  and  C_5
REMARK    5  A    between atoms: C_5  and  C_6
REMARK    6  A    between atoms: C_9  and  C_10
REMARK    7  A    between atoms: C_10  and  N_11
REMARK    8  A    between atoms: C_12  and  C_14
REMARK                            x       y       z     vdW  Elec       q    Type
REMARK                         _______ _______ _______ _____ _____    ______ ____
ROOT
ATOM      1  C   UNL     1      45.339   6.726  11.267  0.00  0.00    +0.000 A 
ATOM      2  C   UNL     1      46.579   6.160  11.601  0.00  0.00    +0.000 A 
ATOM      3  C   UNL     1      47.395   6.758  12.563  0.00  0.00    +0.000 A 
ATOM      4  C   UNL     1      46.993   7.938  13.198  0.00  0.00    +0.000 A 
ATOM      5  C   UNL     1      45.776   8.528  12.833  0.00  0.00    +0.000 A 
ATOM      6  C   UNL     1      44.950   7.922  11.885  0.00  0.00    +0.000 A 
ENDROOT
BRANCH   1   7
ATOM      7  C   UNL     1      44.442   6.055  10.255  0.00  0.00    +0.000 C 
BRANCH   7   8
ATOM      8  N   UNL     1      45.248   5.325   9.269  0.00  0.00    +0.000 NA
ATOM      9  H   UNL     1      45.323   5.893   8.428  0.00  0.00    +0.000 HD
BRANCH   8  10
ATOM     10  C   UNL     1      44.677   4.016   8.894  0.00  0.00    +0.000 C 
BRANCH  10  11
ATOM     11  C   UNL     1      45.677   3.091   8.168  0.00  0.00    +0.000 A 
ATOM     12  C   UNL     1      45.770   1.716   8.484  0.00  0.00    +0.000 A 
ATOM     13  C   UNL     1      46.679   0.878   7.833  0.00  0.00    +0.000 A 
ATOM     14  C   UNL     1      47.503   1.387   6.837  0.00  0.00    +0.000 A 
ATOM     15  C   UNL     1      47.415   2.733   6.488  0.00  0.00    +0.000 A 
ATOM     16  C   UNL     1      46.503   3.573   7.137  0.00  0.00    +0.000 A 
ENDBRANCH  10  11
BRANCH  10  18
ATOM     17  N   UNL     1      43.548   2.691  11.062  0.00  0.00    +0.000 NA
ATOM     18  C   UNL     1      44.060   3.291  10.079  0.00  0.00    +0.000 C 
ENDBRANCH  10  18
ENDBRANCH   8  10
ENDBRANCH   7   8
ENDBRANCH   1   7
BRANCH   4  19
ATOM     19  C   UNL     1      47.877   8.593  14.221  0.00  0.00    +0.000 C 
BRANCH  19  20
ATOM     20  N   UNL     1      48.105   7.716  15.338  0.00  0.00    +0.000 N 
ATOM     21  C   UNL     1      49.309   7.082  15.500  0.00  0.00    +0.000 C 
ATOM     22  O   UNL     1      50.247   7.266  14.729  0.00  0.00    +0.000 OA
ATOM     23  H   UNL     1      47.290   7.394  15.852  0.00  0.00    +0.000 HD
BRANCH  21  24
ATOM     24  C   UNL     1      49.445   6.217  16.677  0.00  0.00    +0.000 A 
ATOM     25  C   UNL     1      50.412   6.510  17.629  0.00  0.00    +0.000 A 
ATOM     26  S   UNL     1      50.415   5.439  18.954  0.00  0.00    +0.000 S 
ATOM     27  C   UNL     1      49.154   4.516  18.280  0.00  0.00    +0.000 A 
ATOM     28  N   UNL     1      48.683   3.409  18.915  0.00  0.00    +0.000 NA
ATOM     29  C   UNL     1      47.747   2.787  18.279  0.00  0.00    +0.000 A 
ATOM     30  N   UNL     1      47.236   3.175  17.067  0.00  0.00    +0.000 N 
ATOM     31  C   UNL     1      47.659   4.302  16.403  0.00  0.00    +0.000 A 
ATOM     32  O   UNL     1      47.148   4.646  15.343  0.00  0.00    +0.000 OA
ATOM     33  C   UNL     1      48.722   5.030  17.070  0.00  0.00    +0.000 A 
ATOM     34  H   UNL     1      46.496   2.648  16.627  0.00  0.00    +0.000 HD
ENDBRANCH  21  24
ENDBRANCH  19  20
ENDBRANCH   4  19
TORSDOF 8
ENDMDL
MODEL 2
REMARK VINA RESULT:    -7.989      1.789      2.135
REMARK INTER + INTRA:         -12.981
REMARK INTER:                 -12.170
REMARK INTRA:                  -0.811
REMARK UNBOUND:                -1.256
REMARK  Name = 
REMARK  8 active torsions:
REMARK  status: ('A' for Active; 'I' for Inactive)
REMARK    1  A    between atoms: C_2  and  C_3
REMARK    2  A    between atoms: C_3  and  N_4
REMARK    3  A    between atoms: C_3  and  C_26
REMARK    4  A    between atoms: N_4  and  C_5
REMARK    5  A    between atoms: C_5  and  C_6
REMARK    6  A    between atoms: C_9  and  C_10
REMARK    7  A    between atoms: C_10  and  N_11
REMARK    8  A    between atoms: C_12  and  C_14
REMARK                            x       y       z     vdW  Elec       q    Type
REMARK                         _______ _______ _______ _____ _____    ______ ____
ROOT
ATOM      1  C   UNL     1      45.723   5.960  11.877  0.00  0.00    +0.000 A 
ATOM      2  C   UNL     1      45.979   5.256  13.065  0.00  0.00    +0.000 A 
ATOM      3  C   UNL     1      47.098   5.560  13.842  0.00  0.00    +0.000 A 
ATOM      4  C   UNL     1      47.988   6.562  13.440  0.00  0.00    +0.000 A 
ATOM      5  C   UNL     1      47.758   7.234  12.233  0.00  0.00    +0.000 A 
ATOM      6  C   UNL     1      46.631   6.945  11.463  0.00  0.00    +0.000 A 
ENDROOT
BRANCH   1   7
ATOM      7  C   UNL     1      44.491   5.656  11.060  0.00  0.00    +0.000 C 
BRANCH   7   8
ATOM      8  N   UNL     1      44.869   5.294   9.689  0.00  0.00    +0.000 NA
ATOM      9  H   UNL     1      44.492   5.992   9.053  0.00  0.00    +0.000 HD
BRANCH   8  10
ATOM     10  C   UNL     1      44.369   3.969   9.270  0.00  0.00    +0.000 C 
BRANCH  10  11
ATOM     11  C   UNL     1      45.408   3.135   8.489  0.00  0.00    +0.000 A 
ATOM     12  C   UNL     1      45.516   1.738   8.673  0.00  0.00    +0.000 A 
ATOM     13  C   UNL     1      46.460   0.981   7.973  0.00  0.00    +0.000 A 
ATOM     14  C   UNL     1      47.305   1.598   7.059  0.00  0.00    +0.000 A 
ATOM     15  C   UNL     1      47.203   2.970   6.840  0.00  0.00    +0.000 A 
ATOM     16  C   UNL     1      46.256   3.729   7.537  0.00  0.00    +0.000 A 
ENDBRANCH  10  11
BRANCH  10  18
ATOM     17  N   UNL     1      43.362   2.492  11.400  0.00  0.00    +0.000 NA
ATOM     18  C   UNL     1      43.819   3.162  10.434  0.00  0.00    +0.000 C 
ENDBRANCH  10  18
ENDBRANCH   8  10
ENDBRANCH   7   8
ENDBRANCH   1   7
BRANCH   4  19
ATOM     19  C   UNL     1      49.202   6.879  14.266  0.00  0.00    +0.000 C 
BRANCH  19  20
ATOM     20  N   UNL     1      48.841   7.119  15.638  0.00  0.00    +0.000 N 
ATOM     21  C   UNL     1      49.515   6.504  16.661  0.00  0.00    +0.000 C 
ATOM     22  O   UNL     1      50.472   5.762  16.452  0.00  0.00    +0.000 OA
ATOM     23  H   UNL     1      47.938   7.550  15.814  0.00  0.00    +0.000 HD
BRANCH  21  24
ATOM     24  C   UNL     1      49.078   6.822  18.024  0.00  0.00    +0.000 A 
ATOM     25  C   UNL     1      48.874   8.148  18.381  0.00  0.00    +0.000 A 
ATOM     26  S   UNL     1      48.327   8.349  19.982  0.00  0.00    +0.000 S 
ATOM     27  C   UNL     1      48.387   6.672  20.271  0.00  0.00    +0.000 A 
ATOM     28  N   UNL     1      48.058   6.162  21.487  0.00  0.00    +0.000 NA
ATOM     29  C   UNL     1      48.176   4.879  21.578  0.00  0.00    +0.000 A 
ATOM     30  N   UNL     1      48.589   4.061  20.558  0.00  0.00    +0.000 N 
ATOM     31  C   UNL     1      48.901   4.527  19.302  0.00  0.00    +0.000 A 
ATOM     32  O   UNL     1      49.222   3.762  18.400  0.00  0.00    +0.000 OA
ATOM     33  C   UNL     1      48.799   5.967  19.154  0.00  0.00    +0.000 A 
ATOM     34  H   UNL     1      48.650   3.062  20.690  0.00  0.00    +0.000 HD
ENDBRANCH  21  24
ENDBRANCH  19  20
ENDBRANCH   4  19
TORSDOF 8
ENDMDL
MODEL 3
REMARK VINA RESULT:    -7.812      2.117      2.683
REMARK INTER + INTRA:         -12.721
REMARK INTER:                 -11.692
REMARK INTRA:                  -1.029
REMARK UNBOUND:                -1.256
REMARK  Name = 
REMARK  8 active torsions:
REMARK  status: ('A' for Active; 'I' for Inactive)
REMARK    1  A    between atoms: C_2  and  C_3
REMARK    2  A    between atoms: C_3  and  N_4
REMARK    3  A    between atoms: C_3  and  C_26
REMARK    4  A    between atoms: N_4  and  C_5
REMARK    5  A    between atoms: C_5  and  C_6
REMARK    6  A    between atoms: C_9  and  C_10
REMARK    7  A    between atoms: C_10  and  N_11
REMARK    8  A    between atoms: C_12  and  C_14
REMARK                            x       y       z     vdW  Elec       q    Type
REMARK                         _______ _______ _______ _____ _____    ______ ____
ROOT
ATOM      1  C   UNL     1      45.725   6.299  11.987  0.00  0.00    +0.000 A 
ATOM      2  C   UNL     1      46.349   5.314  12.769  0.00  0.00    +0.000 A 
ATOM      3  C   UNL     1      47.379   5.656  13.648  0.00  0.00    +0.000 A 
ATOM      4  C   UNL     1      47.812   6.982  13.751  0.00  0.00    +0.000 A 
ATOM      5  C   UNL     1      47.219   7.957  12.938  0.00  0.00    +0.000 A 
ATOM      6  C   UNL     1      46.178   7.622  12.072  0.00  0.00    +0.000 A 
ENDROOT
BRANCH   1   7
ATOM      7  C   UNL     1      44.586   5.932  11.067  0.00  0.00    +0.000 C 
BRANCH   7   8
ATOM      8  N   UNL     1      45.106   5.451   9.782  0.00  0.00    +0.000 NA
ATOM      9  H   UNL     1      44.948   6.169   9.079  0.00  0.00    +0.000 HD
BRANCH   8  10
ATOM     10  C   UNL     1      44.470   4.202   9.319  0.00  0.00    +0.000 C 
BRANCH  10  11
ATOM     11  C   UNL     1      45.414   3.293   8.503  0.00  0.00    +0.000 A 
ATOM     12  C   UNL     1      46.261   3.821   7.503  0.00  0.00    +0.000 A 
ATOM     13  C   UNL     1      47.111   2.999   6.757  0.00  0.00    +0.000 A 
ATOM     14  C   UNL     1      47.150   1.633   7.007  0.00  0.00    +0.000 A 
ATOM     15  C   UNL     1      46.344   1.089   8.005  0.00  0.00    +0.000 A 
ATOM     16  C   UNL     1      45.495   1.911   8.753  0.00  0.00    +0.000 A 
ENDBRANCH  10  11
BRANCH  10  18
ATOM     17  N   UNL     1      43.319   2.761  11.400  0.00  0.00    +0.000 NA
ATOM     18  C   UNL     1      43.841   3.415  10.457  0.00  0.00    +0.000 C 
ENDBRANCH  10  18
ENDBRANCH   8  10
ENDBRANCH   7   8
ENDBRANCH   1   7
BRANCH   4  19
ATOM     19  C   UNL     1      48.931   7.349  14.684  0.00  0.00    +0.000 C 
BRANCH  19  20
ATOM     20  N   UNL     1      48.605   6.998  16.040  0.00  0.00    +0.000 N 
ATOM     21  C   UNL     1      49.474   6.267  16.806  0.00  0.00    +0.000 C 
ATOM     22  O   UNL     1      50.575   5.920  16.385  0.00  0.00    +0.000 OA
ATOM     23  H   UNL     1      47.634   7.090  16.325  0.00  0.00    +0.000 HD
BRANCH  21  24
ATOM     24  C   UNL     1      49.053   5.970  18.179  0.00  0.00    +0.000 A 
ATOM     25  C   UNL     1      49.222   4.686  18.680  0.00  0.00    +0.000 A 
ATOM     26  S   UNL     1      48.725   4.513  20.301  0.00  0.00    +0.000 S 
ATOM     27  C   UNL     1      48.221   6.137  20.377  0.00  0.00    +0.000 A 
ATOM     28  N   UNL     1      47.663   6.642  21.509  0.00  0.00    +0.000 NA
ATOM     29  C   UNL     1      47.300   7.878  21.420  0.00  0.00    +0.000 A 
ATOM     30  N   UNL     1      47.451   8.656  20.301  0.00  0.00    +0.000 N 
ATOM     31  C   UNL     1      48.037   8.199  19.144  0.00  0.00    +0.000 A 
ATOM     32  O   UNL     1      48.197   8.935  18.177  0.00  0.00    +0.000 OA
ATOM     33  C   UNL     1      48.449   6.808  19.188  0.00  0.00    +0.000 A 
ATOM     34  H   UNL     1      47.154   9.621  20.300  0.00  0.00    +0.000 HD
ENDBRANCH  21  24
ENDBRANCH  19  20
ENDBRANCH   4  19
TORSDOF 8
ENDMDL
MODEL 4
REMARK VINA RESULT:    -7.637      1.636      2.100
REMARK INTER + INTRA:         -12.465
REMARK INTER:                 -11.157
REMARK INTRA:                  -1.308
REMARK UNBOUND:                -1.256
REMARK  Name = 
REMARK  8 active torsions:
REMARK  status: ('A' for Active; 'I' for Inactive)
REMARK    1  A    between atoms: C_2  and  C_3
REMARK    2  A    between atoms: C_3  and  N_4
REMARK    3  A    between atoms: C_3  and  C_26
REMARK    4  A    between atoms: N_4  and  C_5
REMARK    5  A    between atoms: C_5  and  C_6
REMARK    6  A    between atoms: C_9  and  C_10
REMARK    7  A    between atoms: C_10  and  N_11
REMARK    8  A    between atoms: C_12  and  C_14
REMARK                            x       y       z     vdW  Elec       q    Type
REMARK                         _______ _______ _______ _____ _____    ______ ____
ROOT
ATOM      1  C   UNL     1      45.468   6.528  12.165  0.00  0.00    +0.000 A 
ATOM      2  C   UNL     1      45.779   7.858  11.843  0.00  0.00    +0.000 A 
ATOM      3  C   UNL     1      47.077   8.343  12.012  0.00  0.00    +0.000 A 
ATOM      4  C   UNL     1      48.084   7.512  12.517  0.00  0.00    +0.000 A 
ATOM      5  C   UNL     1      47.763   6.197  12.880  0.00  0.00    +0.000 A 
ATOM      6  C   UNL     1      46.471   5.706  12.696  0.00  0.00    +0.000 A 
ENDROOT
BRANCH   1   7
ATOM      7  C   UNL     1      44.073   5.996  11.944  0.00  0.00    +0.000 C 
BRANCH   7   8
ATOM      8  N   UNL     1      43.887   5.629  10.534  0.00  0.00    +0.000 NA
ATOM      9  H   UNL     1      43.059   6.103  10.182  0.00  0.00    +0.000 HD
BRANCH   8  10
ATOM     10  C   UNL     1      43.716   4.178  10.321  0.00  0.00    +0.000 C 
BRANCH  10  11
ATOM     11  C   UNL     1      44.743   3.571   9.342  0.00  0.00    +0.000 A 
ATOM     12  C   UNL     1      44.983   2.179   9.297  0.00  0.00    +0.000 A 
ATOM     13  C   UNL     1      45.918   1.628   8.416  0.00  0.00    +0.000 A 
ATOM     14  C   UNL     1      46.621   2.451   7.545  0.00  0.00    +0.000 A 
ATOM     15  C   UNL     1      46.386   3.824   7.551  0.00  0.00    +0.000 A 
ATOM     16  C   UNL     1      45.449   4.377   8.430  0.00  0.00    +0.000 A 
ENDBRANCH  10  11
BRANCH  10  18
ATOM     17  N   UNL     1      43.710   2.748  12.706  0.00  0.00    +0.000 NA
ATOM     18  C   UNL     1      43.712   3.397  11.624  0.00  0.00    +0.000 C 
ENDBRANCH  10  18
ENDBRANCH   8  10
ENDBRANCH   7   8
ENDBRANCH   1   7
BRANCH   4  19
ATOM     19  C   UNL     1      49.477   8.036  12.715  0.00  0.00    +0.000 C 
BRANCH  19  20
ATOM     20  N   UNL     1      50.179   7.266  13.708  0.00  0.00    +0.000 N 
ATOM     21  C   UNL     1      50.392   7.766  14.965  0.00  0.00    +0.000 C 
ATOM     22  O   UNL     1      49.962   8.865  15.307  0.00  0.00    +0.000 OA
ATOM     23  H   UNL     1      50.714   6.465  13.383  0.00  0.00    +0.000 HD
BRANCH  21  24
ATOM     24  C   UNL     1      51.107   6.899  15.907  0.00  0.00    +0.000 A 
ATOM     25  C   UNL     1      52.481   7.037  16.051  0.00  0.00    +0.000 A 
ATOM     26  S   UNL     1      53.156   5.989  17.213  0.00  0.00    +0.000 S 
ATOM     27  C   UNL     1      51.643   5.279  17.530  0.00  0.00    +0.000 A 
ATOM     28  N   UNL     1      51.523   4.268  18.433  0.00  0.00    +0.000 NA
ATOM     29  C   UNL     1      50.324   3.801  18.555  0.00  0.00    +0.000 A 
ATOM     30  N   UNL     1      49.235   4.259  17.859  0.00  0.00    +0.000 N 
ATOM     31  C   UNL     1      49.302   5.298  16.961  0.00  0.00    +0.000 A 
ATOM     32  O   UNL     1      48.299   5.713  16.391  0.00  0.00    +0.000 OA
ATOM     33  C   UNL     1      50.632   5.848  16.776  0.00  0.00    +0.000 A 
ATOM     34  H   UNL     1      48.321   3.857  18.010  0.00  0.00    +0.000 HD
ENDBRANCH  21  24
ENDBRANCH  19  20
ENDBRANCH   4  19
TORSDOF 8
ENDMDL
MODEL 5
REMARK VINA RESULT:    -7.126      2.997      8.455
REMARK INTER + INTRA:         -11.715
REMARK INTER:                  -9.778
REMARK INTRA:                  -1.937
REMARK UNBOUND:                -1.256
REMARK  Name = 
REMARK  8 active torsions:
REMARK  status: ('A' for Active; 'I' for Inactive)
REMARK    1  A    between atoms: C_2  and  C_3
REMARK    2  A    between atoms: C_3  and  N_4
REMARK    3  A    between atoms: C_3  and  C_26
REMARK    4  A    between atoms: N_4  and  C_5
REMARK    5  A    between atoms: C_5  and  C_6
REMARK    6  A    between atoms: C_9  and  C_10
REMARK    7  A    between atoms: C_10  and  N_11
REMARK    8  A    between atoms: C_12  and  C_14
REMARK                            x       y       z     vdW  Elec       q    Type
REMARK                         _______ _______ _______ _____ _____    ______ ____
ROOT
ATOM      1  C   UNL     1      48.904   8.022  16.299  0.00  0.00    +0.000 A 
ATOM      2  C   UNL     1      49.203   6.877  15.544  0.00  0.00    +0.000 A 
ATOM      3  C   UNL     1      48.850   6.806  14.195  0.00  0.00    +0.000 A 
ATOM      4  C   UNL     1      48.181   7.871  13.581  0.00  0.00    +0.000 A 
ATOM      5  C   UNL     1      47.842   8.995  14.346  0.00  0.00    +0.000 A 
ATOM      6  C   UNL     1      48.209   9.076  15.689  0.00  0.00    +0.000 A 
ENDROOT
BRANCH   1   7
ATOM      7  C   UNL     1      49.322   8.112  17.747  0.00  0.00    +0.000 C 
BRANCH   7   8
ATOM      8  N   UNL     1      48.251   7.608  18.616  0.00  0.00    +0.000 NA
ATOM      9  H   UNL     1      48.025   8.325  19.300  0.00  0.00    +0.000 HD
BRANCH   8  10
ATOM     10  C   UNL     1      48.613   6.374  19.342  0.00  0.00    +0.000 C 
BRANCH  10  11
ATOM     11  C   UNL     1      48.514   5.097  18.479  0.00  0.00    +0.000 A 
ATOM     12  C   UNL     1      49.634   4.261  18.271  0.00  0.00    +0.000 A 
ATOM     13  C   UNL     1      49.548   3.109  17.485  0.00  0.00    +0.000 A 
ATOM     14  C   UNL     1      48.337   2.754  16.903  0.00  0.00    +0.000 A 
ATOM     15  C   UNL     1      47.212   3.546  17.112  0.00  0.00    +0.000 A 
ATOM     16  C   UNL     1      47.294   4.698  17.901  0.00  0.00    +0.000 A 
ENDBRANCH  10  11
BRANCH  10  18
ATOM     17  N   UNL     1      51.125   6.535  20.523  0.00  0.00    +0.000 NA
ATOM     18  C   UNL     1      49.985   6.462  19.988  0.00  0.00    +0.000 C 
ENDBRANCH  10  18
ENDBRANCH   8  10
ENDBRANCH   7   8
ENDBRANCH   1   7
BRANCH   4  19
ATOM     19  C   UNL     1      47.785   7.789  12.134  0.00  0.00    +0.000 C 
BRANCH  19  20
ATOM     20  N   UNL     1      47.071   6.569  11.865  0.00  0.00    +0.000 N 
ATOM     21  C   UNL     1      45.716   6.492  12.048  0.00  0.00    +0.000 C 
ATOM     22  O   UNL     1      45.054   7.464  12.405  0.00  0.00    +0.000 OA
ATOM     23  H   UNL     1      47.620   5.718  11.779  0.00  0.00    +0.000 HD
BRANCH  21  24
ATOM     24  C   UNL     1      45.080   5.208  11.736  0.00  0.00    +0.000 A 
ATOM     25  C   UNL     1      44.394   4.529  12.733  0.00  0.00    +0.000 A 
ATOM     26  S   UNL     1      43.677   3.076  12.203  0.00  0.00    +0.000 S 
ATOM     27  C   UNL     1      44.300   3.279  10.632  0.00  0.00    +0.000 A 
ATOM     28  N   UNL     1      44.070   2.350   9.666  0.00  0.00    +0.000 NA
ATOM     29  C   UNL     1      44.624   2.614   8.529  0.00  0.00    +0.000 A 
ATOM     30  N   UNL     1      45.383   3.727   8.272  0.00  0.00    +0.000 N 
ATOM     31  C   UNL     1      45.617   4.707   9.207  0.00  0.00    +0.000 A 
ATOM     32  O   UNL     1      46.262   5.712   8.930  0.00  0.00    +0.000 OA
ATOM     33  C   UNL     1      45.027   4.450  10.508  0.00  0.00    +0.000 A 
ATOM     34  H   UNL     1      45.781   3.879   7.357  0.00  0.00    +0.000 HD
ENDBRANCH  21  24
ENDBRANCH  19  20
ENDBRANCH   4  19
TORSDOF 8
ENDMDL
MODEL 6
REMARK VINA RESULT:    -7.046      3.816      9.857
REMARK INTER + INTRA:         -11.597
REMARK INTER:                  -9.744
REMARK INTRA:                  -1.854
REMARK UNBOUND:                -1.256
REMARK  Name = 
REMARK  8 active torsions:
REMARK  status: ('A' for Active; 'I' for Inactive)
REMARK    1  A    between atoms: C_2  and  C_3
REMARK    2  A    between atoms: C_3  and  N_4
REMARK    3  A    between atoms: C_3  and  C_26
REMARK    4  A    between atoms: N_4  and  C_5
REMARK    5  A    between atoms: C_5  and  C_6
REMARK    6  A    between atoms: C_9  and  C_10
REMARK    7  A    between atoms: C_10  and  N_11
REMARK    8  A    between atoms: C_12  and  C_14
REMARK                            x       y       z     vdW  Elec       q    Type
REMARK                         _______ _______ _______ _____ _____    ______ ____
ROOT
ATOM      1  C   UNL     1      51.332   4.917  17.727  0.00  0.00    +0.000 A 
ATOM      2  C   UNL     1      50.976   3.568  17.886  0.00  0.00    +0.000 A 
ATOM      3  C   UNL     1      49.722   3.113  17.472  0.00  0.00    +0.000 A 
ATOM      4  C   UNL     1      48.799   3.998  16.906  0.00  0.00    +0.000 A 
ATOM      5  C   UNL     1      49.137   5.353  16.788  0.00  0.00    +0.000 A 
ATOM      6  C   UNL     1      50.396   5.807  17.184  0.00  0.00    +0.000 A 
ENDROOT
BRANCH   1   7
ATOM      7  C   UNL     1      52.702   5.397  18.138  0.00  0.00    +0.000 C 
BRANCH   7   8
ATOM      8  N   UNL     1      52.585   6.542  19.050  0.00  0.00    +0.000 NA
ATOM      9  H   UNL     1      53.479   7.028  19.076  0.00  0.00    +0.000 HD
BRANCH   8  10
ATOM     10  C   UNL     1      52.225   6.161  20.430  0.00  0.00    +0.000 C 
BRANCH  10  11
ATOM     11  C   UNL     1      50.702   6.067  20.668  0.00  0.00    +0.000 A 
ATOM     12  C   UNL     1      50.104   4.879  21.144  0.00  0.00    +0.000 A 
ATOM     13  C   UNL     1      48.726   4.788  21.353  0.00  0.00    +0.000 A 
ATOM     14  C   UNL     1      47.913   5.890  21.112  0.00  0.00    +0.000 A 
ATOM     15  C   UNL     1      48.479   7.082  20.667  0.00  0.00    +0.000 A 
ATOM     16  C   UNL     1      49.860   7.175  20.459  0.00  0.00    +0.000 A 
ENDBRANCH  10  11
BRANCH  10  18
ATOM     17  N   UNL     1      53.466   3.809  21.243  0.00  0.00    +0.000 NA
ATOM     18  C   UNL     1      52.903   4.876  20.874  0.00  0.00    +0.000 C 
ENDBRANCH  10  18
ENDBRANCH   8  10
ENDBRANCH   7   8
ENDBRANCH   1   7
BRANCH   4  19
ATOM     19  C   UNL     1      47.443   3.514  16.476  0.00  0.00    +0.000 C 
BRANCH  19  20
ATOM     20  N   UNL     1      46.814   4.464  15.598  0.00  0.00    +0.000 N 
ATOM     21  C   UNL     1      46.749   4.239  14.248  0.00  0.00    +0.000 C 
ATOM     22  O   UNL     1      47.185   3.208  13.741  0.00  0.00    +0.000 OA
ATOM     23  H   UNL     1      46.645   5.397  15.964  0.00  0.00    +0.000 HD
BRANCH  21  24
ATOM     24  C   UNL     1      46.078   5.263  13.440  0.00  0.00    +0.000 A 
ATOM     25  C   UNL     1      46.698   6.489  13.243  0.00  0.00    +0.000 A 
ATOM     26  S   UNL     1      45.812   7.552  12.249  0.00  0.00    +0.000 S 
ATOM     27  C   UNL     1      44.544   6.428  12.085  0.00  0.00    +0.000 A 
ATOM     28  N   UNL     1      43.435   6.730  11.359  0.00  0.00    +0.000 NA
ATOM     29  C   UNL     1      42.539   5.799  11.341  0.00  0.00    +0.000 A 
ATOM     30  N   UNL     1      42.657   4.592  11.980  0.00  0.00    +0.000 N 
ATOM     31  C   UNL     1      43.772   4.230  12.698  0.00  0.00    +0.000 A 
ATOM     32  O   UNL     1      43.864   3.124  13.219  0.00  0.00    +0.000 OA
ATOM     33  C   UNL     1      44.803   5.249  12.762  0.00  0.00    +0.000 A 
ATOM     34  H   UNL     1      41.923   3.902  11.918  0.00  0.00    +0.000 HD
ENDBRANCH  21  24
ENDBRANCH  19  20
ENDBRANCH   4  19
TORSDOF 8
ENDMDL
MODEL 7
REMARK VINA RESULT:    -6.807      3.617      8.301
REMARK INTER + INTRA:         -11.247
REMARK INTER:                  -9.316
REMARK INTRA:                  -1.930
REMARK UNBOUND:                -1.256
REMARK  Name = 
REMARK  8 active torsions:
REMARK  status: ('A' for Active; 'I' for Inactive)
REMARK    1  A    between atoms: C_2  and  C_3
REMARK    2  A    between atoms: C_3  and  N_4
REMARK    3  A    between atoms: C_3  and  C_26
REMARK    4  A    between atoms: N_4  and  C_5
REMARK    5  A    between atoms: C_5  and  C_6
REMARK    6  A    between atoms: C_9  and  C_10
REMARK    7  A    between atoms: C_10  and  N_11
REMARK    8  A    between atoms: C_12  and  C_14
REMARK                            x       y       z     vdW  Elec       q    Type
REMARK                         _______ _______ _______ _____ _____    ______ ____
ROOT
ATOM      1  C   UNL     1      49.987   7.845  18.196  0.00  0.00    +0.000 A 
ATOM      2  C   UNL     1      50.617   7.275  17.078  0.00  0.00    +0.000 A 
ATOM      3  C   UNL     1      50.145   7.535  15.790  0.00  0.00    +0.000 A 
ATOM      4  C   UNL     1      49.030   8.358  15.597  0.00  0.00    +0.000 A 
ATOM      5  C   UNL     1      48.374   8.891  16.715  0.00  0.00    +0.000 A 
ATOM      6  C   UNL     1      48.854   8.647  18.002  0.00  0.00    +0.000 A 
ENDROOT
BRANCH   1   7
ATOM      7  C   UNL     1      50.524   7.594  19.584  0.00  0.00    +0.000 C 
BRANCH   7   8
ATOM      8  N   UNL     1      50.287   6.199  19.975  0.00  0.00    +0.000 NA
ATOM      9  H   UNL     1      50.838   5.595  19.370  0.00  0.00    +0.000 HD
BRANCH   8  10
ATOM     10  C   UNL     1      48.872   5.791  19.871  0.00  0.00    +0.000 C 
BRANCH  10  11
ATOM     11  C   UNL     1      48.599   4.791  18.726  0.00  0.00    +0.000 A 
ATOM     12  C   UNL     1      49.555   3.818  18.357  0.00  0.00    +0.000 A 
ATOM     13  C   UNL     1      49.314   2.917  17.316  0.00  0.00    +0.000 A 
ATOM     14  C   UNL     1      48.104   2.953  16.632  0.00  0.00    +0.000 A 
ATOM     15  C   UNL     1      47.135   3.886  16.992  0.00  0.00    +0.000 A 
ATOM     16  C   UNL     1      47.373   4.787  18.035  0.00  0.00    +0.000 A 
ENDBRANCH  10  11
BRANCH  10  18
ATOM     17  N   UNL     1      47.876   4.792  22.267  0.00  0.00    +0.000 NA
ATOM     18  C   UNL     1      48.327   5.245  21.181  0.00  0.00    +0.000 C 
ENDBRANCH  10  18
ENDBRANCH   8  10
ENDBRANCH   7   8
ENDBRANCH   1   7
BRANCH   4  19
ATOM     19  C   UNL     1      48.510   8.625  14.213  0.00  0.00    +0.000 C 
BRANCH  19  20
ATOM     20  N   UNL     1      47.446   7.715  13.881  0.00  0.00    +0.000 N 
ATOM     21  C   UNL     1      47.698   6.561  13.187  0.00  0.00    +0.000 C 
ATOM     22  O   UNL     1      48.837   6.237  12.860  0.00  0.00    +0.000 OA
ATOM     23  H   UNL     1      46.494   8.065  13.954  0.00  0.00    +0.000 HD
BRANCH  21  24
ATOM     24  C   UNL     1      46.548   5.696  12.907  0.00  0.00    +0.000 A 
ATOM     25  C   UNL     1      46.623   4.343  13.210  0.00  0.00    +0.000 A 
ATOM     26  S   UNL     1      45.192   3.484  12.866  0.00  0.00    +0.000 S 
ATOM     27  C   UNL     1      44.437   4.880  12.253  0.00  0.00    +0.000 A 
ATOM     28  N   UNL     1      43.171   4.828  11.757  0.00  0.00    +0.000 NA
ATOM     29  C   UNL     1      42.731   5.952  11.299  0.00  0.00    +0.000 A 
ATOM     30  N   UNL     1      43.441   7.125  11.297  0.00  0.00    +0.000 N 
ATOM     31  C   UNL     1      44.710   7.233  11.815  0.00  0.00    +0.000 A 
ATOM     32  O   UNL     1      45.299   8.308  11.840  0.00  0.00    +0.000 OA
ATOM     33  C   UNL     1      45.257   5.992  12.330  0.00  0.00    +0.000 A 
ATOM     34  H   UNL     1      43.034   7.974  10.932  0.00  0.00    +0.000 HD
ENDBRANCH  21  24
ENDBRANCH  19  20
ENDBRANCH   4  19
TORSDOF 8
ENDMDL
MODEL 8
REMARK VINA RESULT:    -6.582      3.670      8.848
REMARK INTER + INTRA:         -10.917
REMARK INTER:                  -9.676
REMARK INTRA:                  -1.241
REMARK UNBOUND:                -1.256
REMARK  Name = 
REMARK  8 active torsions:
REMARK  status: ('A' for Active; 'I' for Inactive)
REMARK    1  A    between atoms: C_2  and  C_3
REMARK    2  A    between atoms: C_3  and  N_4
REMARK    3  A    between atoms: C_3  and  C_26
REMARK    4  A    between atoms: N_4  and  C_5
REMARK    5  A    between atoms: C_5  and  C_6
REMARK    6  A    between atoms: C_9  and  C_10
REMARK    7  A    between atoms: C_10  and  N_11
REMARK    8  A    between atoms: C_12  and  C_14
REMARK                            x       y       z     vdW  Elec       q    Type
REMARK                         _______ _______ _______ _____ _____    ______ ____
ROOT
ATOM      1  C   UNL     1      50.922   5.881  17.830  0.00  0.00    +0.000 A 
ATOM      2  C   UNL     1      51.576   6.504  16.756  0.00  0.00    +0.000 A 
ATOM      3  C   UNL     1      50.848   7.210  15.796  0.00  0.00    +0.000 A 
ATOM      4  C   UNL     1      49.454   7.294  15.885  0.00  0.00    +0.000 A 
ATOM      5  C   UNL     1      48.797   6.635  16.932  0.00  0.00    +0.000 A 
ATOM      6  C   UNL     1      49.524   5.944  17.902  0.00  0.00    +0.000 A 
ENDROOT
BRANCH   1   7
ATOM      7  C   UNL     1      51.715   5.153  18.887  0.00  0.00    +0.000 C 
BRANCH   7   8
ATOM      8  N   UNL     1      51.335   3.735  18.920  0.00  0.00    +0.000 NA
ATOM      9  H   UNL     1      51.703   3.320  19.772  0.00  0.00    +0.000 HD
BRANCH   8  10
ATOM     10  C   UNL     1      51.845   2.961  17.770  0.00  0.00    +0.000 C 
BRANCH  10  11
ATOM     11  C   UNL     1      52.962   1.963  18.144  0.00  0.00    +0.000 A 
ATOM     12  C   UNL     1      53.036   0.685  17.546  0.00  0.00    +0.000 A 
ATOM     13  C   UNL     1      54.041  -0.224  17.887  0.00  0.00    +0.000 A 
ATOM     14  C   UNL     1      55.008   0.129  18.820  0.00  0.00    +0.000 A 
ATOM     15  C   UNL     1      54.974   1.391  19.407  0.00  0.00    +0.000 A 
ATOM     16  C   UNL     1      53.970   2.304  19.064  0.00  0.00    +0.000 A 
ENDBRANCH  10  11
BRANCH  10  18
ATOM     17  N   UNL     1      49.818   1.656  16.385  0.00  0.00    +0.000 NA
ATOM     18  C   UNL     1      50.738   2.247  17.014  0.00  0.00    +0.000 C 
ENDBRANCH  10  18
ENDBRANCH   8  10
ENDBRANCH   7   8
ENDBRANCH   1   7
BRANCH   4  19
ATOM     19  C   UNL     1      48.667   8.039  14.844  0.00  0.00    +0.000 C 
BRANCH  19  20
ATOM     20  N   UNL     1      47.574   7.239  14.358  0.00  0.00    +0.000 N 
ATOM     21  C   UNL     1      47.763   6.327  13.353  0.00  0.00    +0.000 C 
ATOM     22  O   UNL     1      48.869   6.127  12.859  0.00  0.00    +0.000 OA
ATOM     23  H   UNL     1      46.634   7.537  14.601  0.00  0.00    +0.000 HD
BRANCH  21  24
ATOM     24  C   UNL     1      46.588   5.553  12.936  0.00  0.00    +0.000 A 
ATOM     25  C   UNL     1      46.582   4.177  13.113  0.00  0.00    +0.000 A 
ATOM     26  S   UNL     1      45.132   3.430  12.619  0.00  0.00    +0.000 S 
ATOM     27  C   UNL     1      44.478   4.915  12.107  0.00  0.00    +0.000 A 
ATOM     28  N   UNL     1      43.240   4.976  11.548  0.00  0.00    +0.000 NA
ATOM     29  C   UNL     1      42.879   6.160  11.178  0.00  0.00    +0.000 A 
ATOM     30  N   UNL     1      43.644   7.288  11.323  0.00  0.00    +0.000 N 
ATOM     31  C   UNL     1      44.887   7.281  11.910  0.00  0.00    +0.000 A 
ATOM     32  O   UNL     1      45.525   8.316  12.064  0.00  0.00    +0.000 OA
ATOM     33  C   UNL     1      45.346   5.970  12.329  0.00  0.00    +0.000 A 
ATOM     34  H   UNL     1      43.298   8.188  11.021  0.00  0.00    +0.000 HD
ENDBRANCH  21  24
ENDBRANCH  19  20
ENDBRANCH   4  19
TORSDOF 8
ENDMDL
MODEL 9
REMARK VINA RESULT:    -6.515      3.595      8.106
REMARK INTER + INTRA:         -10.817
REMARK INTER:                  -8.632
REMARK INTRA:                  -2.186
REMARK UNBOUND:                -1.256
REMARK  Name = 
REMARK  8 active torsions:
REMARK  status: ('A' for Active; 'I' for Inactive)
REMARK    1  A    between atoms: C_2  and  C_3
REMARK    2  A    between atoms: C_3  and  N_4
REMARK    3  A    between atoms: C_3  and  C_26
REMARK    4  A    between atoms: N_4  and  C_5
REMARK    5  A    between atoms: C_5  and  C_6
REMARK    6  A    between atoms: C_9  and  C_10
REMARK    7  A    between atoms: C_10  and  N_11
REMARK    8  A    between atoms: C_12  and  C_14
REMARK                            x       y       z     vdW  Elec       q    Type
REMARK                         _______ _______ _______ _____ _____    ______ ____
ROOT
ATOM      1  C   UNL     1      51.677   7.297  16.964  0.00  0.00    +0.000 A 
ATOM      2  C   UNL     1      50.685   7.868  17.777  0.00  0.00    +0.000 A 
ATOM      3  C   UNL     1      49.573   8.490  17.206  0.00  0.00    +0.000 A 
ATOM      4  C   UNL     1      49.438   8.564  15.816  0.00  0.00    +0.000 A 
ATOM      5  C   UNL     1      50.449   8.033  15.004  0.00  0.00    +0.000 A 
ATOM      6  C   UNL     1      51.553   7.396  15.571  0.00  0.00    +0.000 A 
ENDROOT
BRANCH   1   7
ATOM      7  C   UNL     1      52.858   6.592  17.584  0.00  0.00    +0.000 C 
BRANCH   7   8
ATOM      8  N   UNL     1      52.817   5.159  17.266  0.00  0.00    +0.000 NA
ATOM      9  H   UNL     1      52.356   5.040  16.366  0.00  0.00    +0.000 HD
BRANCH   8  10
ATOM     10  C   UNL     1      52.091   4.353  18.268  0.00  0.00    +0.000 C 
BRANCH  10  11
ATOM     11  C   UNL     1      50.755   3.779  17.749  0.00  0.00    +0.000 A 
ATOM     12  C   UNL     1      50.682   2.489  17.177  0.00  0.00    +0.000 A 
ATOM     13  C   UNL     1      49.476   1.969  16.700  0.00  0.00    +0.000 A 
ATOM     14  C   UNL     1      48.309   2.717  16.801  0.00  0.00    +0.000 A 
ATOM     15  C   UNL     1      48.348   3.982  17.383  0.00  0.00    +0.000 A 
ATOM     16  C   UNL     1      49.554   4.503  17.863  0.00  0.00    +0.000 A 
ENDBRANCH  10  11
BRANCH  10  18
ATOM     17  N   UNL     1      53.657   2.317  19.332  0.00  0.00    +0.000 NA
ATOM     18  C   UNL     1      52.947   3.241  18.849  0.00  0.00    +0.000 C 
ENDBRANCH  10  18
ENDBRANCH   8  10
ENDBRANCH   7   8
ENDBRANCH   1   7
BRANCH   4  19
ATOM     19  C   UNL     1      48.250   9.247  15.200  0.00  0.00    +0.000 C 
BRANCH  19  20
ATOM     20  N   UNL     1      47.359   8.288  14.602  0.00  0.00    +0.000 N 
ATOM     21  C   UNL     1      47.112   8.303  13.254  0.00  0.00    +0.000 C 
ATOM     22  O   UNL     1      47.665   9.102  12.503  0.00  0.00    +0.000 OA
ATOM     23  H   UNL     1      46.744   7.772  15.224  0.00  0.00    +0.000 HD
BRANCH  21  24
ATOM     24  C   UNL     1      46.198   7.278  12.741  0.00  0.00    +0.000 A 
ATOM     25  C   UNL     1      45.108   7.661  11.971  0.00  0.00    +0.000 A 
ATOM     26  S   UNL     1      44.169   6.352  11.415  0.00  0.00    +0.000 S 
ATOM     27  C   UNL     1      45.159   5.228  12.223  0.00  0.00    +0.000 A 
ATOM     28  N   UNL     1      44.885   3.897  12.174  0.00  0.00    +0.000 NA
ATOM     29  C   UNL     1      45.699   3.160  12.855  0.00  0.00    +0.000 A 
ATOM     30  N   UNL     1      46.765   3.635  13.574  0.00  0.00    +0.000 N 
ATOM     31  C   UNL     1      47.099   4.968  13.627  0.00  0.00    +0.000 A 
ATOM     32  O   UNL     1      48.086   5.353  14.243  0.00  0.00    +0.000 OA
ATOM     33  C   UNL     1      46.205   5.841  12.891  0.00  0.00    +0.000 A 
ATOM     34  H   UNL     1      47.370   3.003  14.078  0.00  0.00    +0.000 HD
ENDBRANCH  21  24
ENDBRANCH  19  20
ENDBRANCH   4  19
TORSDOF 8
ENDMDL
