MODEL 1
REMARK VINA RESULT:    -8.225      0.000      0.000
REMARK INTER + INTRA:         -13.324
REMARK INTER:                 -12.312
REMARK INTRA:                  -1.012
REMARK UNBOUND:                -1.012
REMARK  Name = 
REMARK  9 active torsions:
REMARK  status: ('A' for Active; 'I' for Inactive)
REMARK    1  A    between atoms: C_2  and  C_13
REMARK    2  A    between atoms: N_3  and  CA_4
REMARK    3  A    between atoms: CA_4  and  C_5
REMARK    4  A    between atoms: CA_4  and  C_7
REMARK    5  A    between atoms: C_5  and  O_6
REMARK    6  A    between atoms: C_16  and  C_17
REMARK    7  A    between atoms: C_17  and  N_18
REMARK    8  A    between atoms: N_18  and  C_19
REMARK    9  A    between atoms: C_19  and  C_20
REMARK                            x       y       z     vdW  Elec       q    Type
REMARK                         _______ _______ _______ _____ _____    ______ ____
ROOT
ATOM      1  C   UNL     1      46.768   4.589  13.977  0.00  0.00    +0.000 A 
ATOM      2  C   UNL     1      45.858   3.816  13.243  0.00  0.00    +0.000 A 
ATOM      3  C   UNL     1      45.324   4.307  12.050  0.00  0.00    +0.000 A 
ATOM      4  C   UNL     1      45.692   5.572  11.570  0.00  0.00    +0.000 A 
ATOM      5  C   UNL     1      46.591   6.348  12.320  0.00  0.00    +0.000 A 
ATOM      6  C   UNL     1      47.129   5.858  13.515  0.00  0.00    +0.000 A 
ENDROOT
BRANCH   1   8
ATOM      7  O   UNL     1      47.748   2.874  15.271  0.00  0.00    +0.000 OA
ATOM      8  C   UNL     1      47.414   4.049  15.204  0.00  0.00    +0.000 C 
ATOM      9  N   UNL     1      47.589   4.951  16.223  0.00  0.00    +0.000 N 
ATOM     10  H   UNL     1      47.483   5.938  16.032  0.00  0.00    +0.000 HD
BRANCH   9  11
ATOM     11  CA  UNL     1      48.150   4.583  17.518  0.00  0.00    +0.000 C 
BRANCH  11  12
ATOM     12  C   UNL     1      49.667   4.563  17.390  0.00  0.00    +0.000 A 
ATOM     13  C   UNL     1      50.353   5.745  17.067  0.00  0.00    +0.000 A 
ATOM     14  C   UNL     1      51.747   5.800  17.132  0.00  0.00    +0.000 A 
ATOM     15  C   UNL     1      52.473   4.677  17.519  0.00  0.00    +0.000 A 
ATOM     16  C   UNL     1      51.811   3.484  17.801  0.00  0.00    +0.000 A 
ATOM     17  C   UNL     1      50.419   3.423  17.724  0.00  0.00    +0.000 A 
ENDBRANCH  11  12
BRANCH  11  18
ATOM     18  C   UNL     1      47.595   5.471  18.655  0.00  0.00    +0.000 C 
BRANCH  18  19
ATOM     19  O   UNL     1      46.171   5.394  18.792  0.00  0.00    +0.000 OA
ATOM     20  H   UNL     1      45.936   4.461  18.643  0.00  0.00    +0.000 HD
ENDBRANCH  18  19
ENDBRANCH  11  18
ENDBRANCH   9  11
ENDBRANCH   1   8
BRANCH   4  21
ATOM     21  C   UNL     1      45.172   6.061  10.237  0.00  0.00    +0.000 C 
BRANCH  21  22
ATOM     22  N   UNL     1      45.898   5.447   9.128  0.00  0.00    +0.000 NA
ATOM     23  H   UNL     1      46.717   4.961   9.501  0.00  0.00    +0.000 HD
BRANCH  22  24
ATOM     24  C   UNL     1      45.055   4.476   8.426  0.00  0.00    +0.000 C 
BRANCH  24  25
ATOM     25  C   UNL     1      45.876   3.291   7.963  0.00  0.00    +0.000 A 
ATOM     26  C   UNL     1      46.927   3.521   7.052  0.00  0.00    +0.000 A 
ATOM     27  C   UNL     1      47.729   2.474   6.589  0.00  0.00    +0.000 A 
ATOM     28  C   UNL     1      47.487   1.176   7.026  0.00  0.00    +0.000 A 
ATOM     29  C   UNL     1      46.446   0.923   7.918  0.00  0.00    +0.000 A 
ATOM     30  C   UNL     1      45.639   1.971   8.381  0.00  0.00    +0.000 A 
ATOM     31 CL   UNL     1      44.367   1.558   9.474  0.00  0.00    +0.000 Cl
ENDBRANCH  24  25
ENDBRANCH  22  24
ENDBRANCH  21  22
ENDBRANCH   4  21
TORSDOF 9
ENDMDL
MODEL 2
REMARK VINA RESULT:    -7.892      3.040      8.547
REMARK INTER + INTRA:         -12.825
REMARK INTER:                 -11.312
REMARK INTRA:                  -1.513
REMARK UNBOUND:                -1.012
REMARK  Name = 
REMARK  9 active torsions:
REMARK  status: ('A' for Active; 'I' for Inactive)
REMARK    1  A    between atoms: C_2  and  C_13
REMARK    2  A    between atoms: N_3  and  CA_4
REMARK    3  A    between atoms: CA_4  and  C_5
REMARK    4  A    between atoms: CA_4  and  C_7
REMARK    5  A    between atoms: C_5  and  O_6
REMARK    6  A    between atoms: C_16  and  C_17
REMARK    7  A    between atoms: C_17  and  N_18
REMARK    8  A    between atoms: N_18  and  C_19
REMARK    9  A    between atoms: C_19  and  C_20
REMARK                            x       y       z     vdW  Elec       q    Type
REMARK                         _______ _______ _______ _____ _____    ______ ____
ROOT
ATOM      1  C   UNL     1      46.339   6.381  12.556  0.00  0.00    +0.000 A 
ATOM      2  C   UNL     1      47.146   5.472  13.254  0.00  0.00    +0.000 A 
ATOM      3  C   UNL     1      48.051   5.930  14.212  0.00  0.00    +0.000 A 
ATOM      4  C   UNL     1      48.164   7.299  14.490  0.00  0.00    +0.000 A 
ATOM      5  C   UNL     1      47.365   8.206  13.774  0.00  0.00    +0.000 A 
ATOM      6  C   UNL     1      46.455   7.749  12.815  0.00  0.00    +0.000 A 
ENDROOT
BRANCH   1   8
ATOM      7  O   UNL     1      44.547   6.694  11.051  0.00  0.00    +0.000 OA
ATOM      8  C   UNL     1      45.307   5.906  11.595  0.00  0.00    +0.000 C 
ATOM      9  N   UNL     1      45.278   4.550  11.384  0.00  0.00    +0.000 N 
ATOM     10  H   UNL     1      46.055   3.985  11.699  0.00  0.00    +0.000 HD
BRANCH   9  11
ATOM     11  CA  UNL     1      44.295   3.904  10.521  0.00  0.00    +0.000 C 
BRANCH  11  12
ATOM     12  C   UNL     1      45.022   3.360   9.299  0.00  0.00    +0.000 A 
ATOM     13  C   UNL     1      45.574   4.251   8.365  0.00  0.00    +0.000 A 
ATOM     14  C   UNL     1      46.406   3.788   7.344  0.00  0.00    +0.000 A 
ATOM     15  C   UNL     1      46.698   2.430   7.242  0.00  0.00    +0.000 A 
ATOM     16  C   UNL     1      46.125   1.527   8.135  0.00  0.00    +0.000 A 
ATOM     17  C   UNL     1      45.282   1.987   9.149  0.00  0.00    +0.000 A 
ENDBRANCH  11  12
BRANCH  11  18
ATOM     18  C   UNL     1      43.444   2.874  11.297  0.00  0.00    +0.000 C 
BRANCH  18  19
ATOM     19  O   UNL     1      44.015   2.497  12.556  0.00  0.00    +0.000 OA
ATOM     20  H   UNL     1      43.819   1.551  12.669  0.00  0.00    +0.000 HD
ENDBRANCH  18  19
ENDBRANCH  11  18
ENDBRANCH   9  11
ENDBRANCH   1   8
BRANCH   4  21
ATOM     21  C   UNL     1      49.089   7.779  15.586  0.00  0.00    +0.000 C 
BRANCH  21  22
ATOM     22  N   UNL     1      48.435   7.729  16.891  0.00  0.00    +0.000 NA
ATOM     23  H   UNL     1      47.504   7.320  16.776  0.00  0.00    +0.000 HD
BRANCH  22  24
ATOM     24  C   UNL     1      49.199   6.900  17.826  0.00  0.00    +0.000 C 
BRANCH  24  25
ATOM     25  C   UNL     1      48.873   5.434  17.630  0.00  0.00    +0.000 A 
ATOM     26  C   UNL     1      47.519   5.042  17.646  0.00  0.00    +0.000 A 
ATOM     27  C   UNL     1      47.148   3.707  17.465  0.00  0.00    +0.000 A 
ATOM     28  C   UNL     1      48.127   2.739  17.271  0.00  0.00    +0.000 A 
ATOM     29  C   UNL     1      49.473   3.101  17.264  0.00  0.00    +0.000 A 
ATOM     30  C   UNL     1      49.848   4.439  17.448  0.00  0.00    +0.000 A 
ATOM     31 CL   UNL     1      51.540   4.790  17.434  0.00  0.00    +0.000 Cl
ENDBRANCH  24  25
ENDBRANCH  22  24
ENDBRANCH  21  22
ENDBRANCH   4  21
TORSDOF 9
ENDMDL
MODEL 3
REMARK VINA RESULT:    -7.798      3.603      8.918
REMARK INTER + INTRA:         -12.685
REMARK INTER:                 -11.406
REMARK INTRA:                  -1.279
REMARK UNBOUND:                -1.012
REMARK  Name = 
REMARK  9 active torsions:
REMARK  status: ('A' for Active; 'I' for Inactive)
REMARK    1  A    between atoms: C_2  and  C_13
REMARK    2  A    between atoms: N_3  and  CA_4
REMARK    3  A    between atoms: CA_4  and  C_5
REMARK    4  A    between atoms: CA_4  and  C_7
REMARK    5  A    between atoms: C_5  and  O_6
REMARK    6  A    between atoms: C_16  and  C_17
REMARK    7  A    between atoms: C_17  and  N_18
REMARK    8  A    between atoms: N_18  and  C_19
REMARK    9  A    between atoms: C_19  and  C_20
REMARK                            x       y       z     vdW  Elec       q    Type
REMARK                         _______ _______ _______ _____ _____    ______ ____
ROOT
ATOM      1  C   UNL     1      45.559   6.599  11.783  0.00  0.00    +0.000 A 
ATOM      2  C   UNL     1      46.858   6.204  12.131  0.00  0.00    +0.000 A 
ATOM      3  C   UNL     1      47.673   7.055  12.878  0.00  0.00    +0.000 A 
ATOM      4  C   UNL     1      47.205   8.310  13.292  0.00  0.00    +0.000 A 
ATOM      5  C   UNL     1      45.910   8.707  12.925  0.00  0.00    +0.000 A 
ATOM      6  C   UNL     1      45.089   7.855  12.177  0.00  0.00    +0.000 A 
ENDROOT
BRANCH   1   8
ATOM      7  O   UNL     1      43.437   5.863  11.055  0.00  0.00    +0.000 OA
ATOM      8  C   UNL     1      44.645   5.672  11.063  0.00  0.00    +0.000 C 
ATOM      9  N   UNL     1      45.253   4.615  10.435  0.00  0.00    +0.000 N 
ATOM     10  H   UNL     1      46.255   4.628  10.306  0.00  0.00    +0.000 HD
BRANCH   9  11
ATOM     11  CA  UNL     1      44.508   3.576   9.732  0.00  0.00    +0.000 C 
BRANCH  11  12
ATOM     12  C   UNL     1      45.383   3.044   8.607  0.00  0.00    +0.000 A 
ATOM     13  C   UNL     1      45.928   3.935   7.668  0.00  0.00    +0.000 A 
ATOM     14  C   UNL     1      46.884   3.504   6.746  0.00  0.00    +0.000 A 
ATOM     15  C   UNL     1      47.309   2.177   6.750  0.00  0.00    +0.000 A 
ATOM     16  C   UNL     1      46.747   1.269   7.645  0.00  0.00    +0.000 A 
ATOM     17  C   UNL     1      45.782   1.696   8.559  0.00  0.00    +0.000 A 
ENDBRANCH  11  12
BRANCH  11  18
ATOM     18  C   UNL     1      43.960   2.508  10.706  0.00  0.00    +0.000 C 
BRANCH  18  19
ATOM     19  O   UNL     1      42.802   2.939  11.430  0.00  0.00    +0.000 OA
ATOM     20  H   UNL     1      42.855   3.911  11.468  0.00  0.00    +0.000 HD
ENDBRANCH  18  19
ENDBRANCH  11  18
ENDBRANCH   9  11
ENDBRANCH   1   8
BRANCH   4  21
ATOM     21  C   UNL     1      48.066   9.192  14.169  0.00  0.00    +0.000 C 
BRANCH  21  22
ATOM     22  N   UNL     1      47.639   9.128  15.565  0.00  0.00    +0.000 NA
ATOM     23  H   UNL     1      46.913   8.413  15.654  0.00  0.00    +0.000 HD
BRANCH  22  24
ATOM     24  C   UNL     1      48.760   8.770  16.437  0.00  0.00    +0.000 C 
BRANCH  24  25
ATOM     25  C   UNL     1      48.518   7.427  17.094  0.00  0.00    +0.000 A 
ATOM     26  C   UNL     1      48.863   6.261  16.381  0.00  0.00    +0.000 A 
ATOM     27  C   UNL     1      48.672   4.990  16.931  0.00  0.00    +0.000 A 
ATOM     28  C   UNL     1      48.124   4.865  18.203  0.00  0.00    +0.000 A 
ATOM     29  C   UNL     1      47.764   6.003  18.922  0.00  0.00    +0.000 A 
ATOM     30  C   UNL     1      47.952   7.278  18.372  0.00  0.00    +0.000 A 
ATOM     31 CL   UNL     1      47.465   8.628  19.333  0.00  0.00    +0.000 Cl
ENDBRANCH  24  25
ENDBRANCH  22  24
ENDBRANCH  21  22
ENDBRANCH   4  21
TORSDOF 9
ENDMDL
MODEL 4
REMARK VINA RESULT:    -7.383      3.696      4.911
REMARK INTER + INTRA:         -12.064
REMARK INTER:                 -10.740
REMARK INTRA:                  -1.324
REMARK UNBOUND:                -1.012
REMARK  Name = 
REMARK  9 active torsions:
REMARK  status: ('A' for Active; 'I' for Inactive)
REMARK    1  A    between atoms: C_2  and  C_13
REMARK    2  A    between atoms: N_3  and  CA_4
REMARK    3  A    between atoms: CA_4  and  C_5
REMARK    4  A    between atoms: CA_4  and  C_7
REMARK    5  A    between atoms: C_5  and  O_6
REMARK    6  A    between atoms: C_16  and  C_17
REMARK    7  A    between atoms: C_17  and  N_18
REMARK    8  A    between atoms: N_18  and  C_19
REMARK    9  A    between atoms: C_19  and  C_20
REMARK                            x       y       z     vdW  Elec       q    Type
REMARK                         _______ _______ _______ _____ _____    ______ ____
ROOT
ATOM      1  C   UNL     1      46.772   5.812  12.420  0.00  0.00    +0.000 A 
ATOM      2  C   UNL     1      46.111   6.097  11.217  0.00  0.00    +0.000 A 
ATOM      3  C   UNL     1      45.167   5.204  10.709  0.00  0.00    +0.000 A 
ATOM      4  C   UNL     1      44.865   4.018  11.392  0.00  0.00    +0.000 A 
ATOM      5  C   UNL     1      45.545   3.730  12.587  0.00  0.00    +0.000 A 
ATOM      6  C   UNL     1      46.490   4.624  13.100  0.00  0.00    +0.000 A 
ENDROOT
BRANCH   1   8
ATOM      7  O   UNL     1      47.954   6.776  14.223  0.00  0.00    +0.000 OA
ATOM      8  C   UNL     1      47.717   6.791  13.023  0.00  0.00    +0.000 C 
ATOM      9  N   UNL     1      48.276   7.686  12.147  0.00  0.00    +0.000 N 
ATOM     10  H   UNL     1      48.202   7.517  11.154  0.00  0.00    +0.000 HD
BRANCH   9  11
ATOM     11  CA  UNL     1      49.177   8.752  12.572  0.00  0.00    +0.000 C 
BRANCH  11  12
ATOM     12  C   UNL     1      50.296   8.863  11.546  0.00  0.00    +0.000 A 
ATOM     13  C   UNL     1      50.767  10.130  11.165  0.00  0.00    +0.000 A 
ATOM     14  C   UNL     1      51.914  10.258  10.378  0.00  0.00    +0.000 A 
ATOM     15  C   UNL     1      52.606   9.123   9.963  0.00  0.00    +0.000 A 
ATOM     16  C   UNL     1      52.129   7.857  10.296  0.00  0.00    +0.000 A 
ATOM     17  C   UNL     1      50.975   7.727  11.071  0.00  0.00    +0.000 A 
ENDBRANCH  11  12
BRANCH  11  18
ATOM     18  C   UNL     1      48.413  10.065  12.862  0.00  0.00    +0.000 C 
BRANCH  18  19
ATOM     19  O   UNL     1      48.101  10.245  14.248  0.00  0.00    +0.000 OA
ATOM     20  H   UNL     1      48.952  10.373  14.702  0.00  0.00    +0.000 HD
ENDBRANCH  18  19
ENDBRANCH  11  18
ENDBRANCH   9  11
ENDBRANCH   1   8
BRANCH   4  21
ATOM     21  C   UNL     1      43.783   3.096  10.875  0.00  0.00    +0.000 C 
BRANCH  21  22
ATOM     22  N   UNL     1      43.949   2.833   9.448  0.00  0.00    +0.000 NA
ATOM     23  H   UNL     1      44.287   3.685   8.994  0.00  0.00    +0.000 HD
BRANCH  22  24
ATOM     24  C   UNL     1      44.924   1.764   9.224  0.00  0.00    +0.000 C 
BRANCH  24  25
ATOM     25  C   UNL     1      45.881   2.138   8.112  0.00  0.00    +0.000 A 
ATOM     26  C   UNL     1      45.954   3.489   7.717  0.00  0.00    +0.000 A 
ATOM     27  C   UNL     1      46.820   3.904   6.702  0.00  0.00    +0.000 A 
ATOM     28  C   UNL     1      47.625   2.970   6.058  0.00  0.00    +0.000 A 
ATOM     29  C   UNL     1      47.562   1.626   6.424  0.00  0.00    +0.000 A 
ATOM     30  C   UNL     1      46.692   1.208   7.439  0.00  0.00    +0.000 A 
ATOM     31 CL   UNL     1      46.676  -0.479   7.814  0.00  0.00    +0.000 Cl
ENDBRANCH  24  25
ENDBRANCH  22  24
ENDBRANCH  21  22
ENDBRANCH   4  21
TORSDOF 9
ENDMDL
MODEL 5
REMARK VINA RESULT:    -7.367      1.831      3.129
REMARK INTER + INTRA:         -12.040
REMARK INTER:                 -11.045
REMARK INTRA:                  -0.995
REMARK UNBOUND:                -1.012
REMARK  Name = 
REMARK  9 active torsions:
REMARK  status: ('A' for Active; 'I' for Inactive)
REMARK    1  A    between atoms: C_2  and  C_13
REMARK    2  A    between atoms: N_3  and  CA_4
REMARK    3  A    between atoms: CA_4  and  C_5
REMARK    4  A    between atoms: CA_4  and  C_7
REMARK    5  A    between atoms: C_5  and  O_6
REMARK    6  A    between atoms: C_16  and  C_17
REMARK    7  A    between atoms: C_17  and  N_18
REMARK    8  A    between atoms: N_18  and  C_19
REMARK    9  A    between atoms: C_19  and  C_20
REMARK                            x       y       z     vdW  Elec       q    Type
REMARK                         _______ _______ _______ _____ _____    ______ ____
ROOT
ATOM      1  C   UNL     1      47.748   6.003  13.825  0.00  0.00    +0.000 A 
ATOM      2  C   UNL     1      47.728   6.786  12.662  0.00  0.00    +0.000 A 
ATOM      3  C   UNL     1      46.806   6.515  11.651  0.00  0.00    +0.000 A 
ATOM      4  C   UNL     1      45.889   5.463  11.784  0.00  0.00    +0.000 A 
ATOM      5  C   UNL     1      45.927   4.671  12.943  0.00  0.00    +0.000 A 
ATOM      6  C   UNL     1      46.849   4.942  13.960  0.00  0.00    +0.000 A 
ENDROOT
BRANCH   1   8
ATOM      7  O   UNL     1      49.699   6.954  14.756  0.00  0.00    +0.000 OA
ATOM      8  C   UNL     1      48.665   6.331  14.951  0.00  0.00    +0.000 C 
ATOM      9  N   UNL     1      48.267   5.880  16.184  0.00  0.00    +0.000 N 
ATOM     10  H   UNL     1      47.317   5.558  16.309  0.00  0.00    +0.000 HD
BRANCH   9  11
ATOM     11  CA  UNL     1      49.070   6.058  17.389  0.00  0.00    +0.000 C 
BRANCH  11  12
ATOM     12  C   UNL     1      48.325   7.004  18.320  0.00  0.00    +0.000 A 
ATOM     13  C   UNL     1      47.890   6.546  19.574  0.00  0.00    +0.000 A 
ATOM     14  C   UNL     1      47.379   7.437  20.520  0.00  0.00    +0.000 A 
ATOM     15  C   UNL     1      47.295   8.796  20.227  0.00  0.00    +0.000 A 
ATOM     16  C   UNL     1      47.682   9.261  18.971  0.00  0.00    +0.000 A 
ATOM     17  C   UNL     1      48.181   8.370  18.020  0.00  0.00    +0.000 A 
ENDBRANCH  11  12
BRANCH  11  18
ATOM     18  C   UNL     1      49.476   4.702  18.010  0.00  0.00    +0.000 C 
BRANCH  18  19
ATOM     19  O   UNL     1      50.100   3.814  17.076  0.00  0.00    +0.000 OA
ATOM     20  H   UNL     1      49.725   2.933  17.250  0.00  0.00    +0.000 HD
ENDBRANCH  18  19
ENDBRANCH  11  18
ENDBRANCH   9  11
ENDBRANCH   1   8
BRANCH   4  21
ATOM     21  C   UNL     1      44.841   5.227  10.719  0.00  0.00    +0.000 C 
BRANCH  21  22
ATOM     22  N   UNL     1      45.407   5.367   9.380  0.00  0.00    +0.000 NA
ATOM     23  H   UNL     1      46.397   5.114   9.414  0.00  0.00    +0.000 HD
BRANCH  22  24
ATOM     24  C   UNL     1      44.728   4.480   8.432  0.00  0.00    +0.000 C 
BRANCH  24  25
ATOM     25  C   UNL     1      45.651   3.363   7.992  0.00  0.00    +0.000 A 
ATOM     26  C   UNL     1      46.657   3.658   7.049  0.00  0.00    +0.000 A 
ATOM     27  C   UNL     1      47.546   2.675   6.605  0.00  0.00    +0.000 A 
ATOM     28  C   UNL     1      47.439   1.377   7.092  0.00  0.00    +0.000 A 
ATOM     29  C   UNL     1      46.445   1.059   8.016  0.00  0.00    +0.000 A 
ATOM     30  C   UNL     1      45.550   2.042   8.461  0.00  0.00    +0.000 A 
ATOM     31 CL   UNL     1      44.345   1.551   9.597  0.00  0.00    +0.000 Cl
ENDBRANCH  24  25
ENDBRANCH  22  24
ENDBRANCH  21  22
ENDBRANCH   4  21
TORSDOF 9
ENDMDL
MODEL 6
REMARK VINA RESULT:    -7.344      4.599      8.637
REMARK INTER + INTRA:         -12.005
REMARK INTER:                 -10.738
REMARK INTRA:                  -1.266
REMARK UNBOUND:                -1.012
REMARK  Name = 
REMARK  9 active torsions:
REMARK  status: ('A' for Active; 'I' for Inactive)
REMARK    1  A    between atoms: C_2  and  C_13
REMARK    2  A    between atoms: N_3  and  CA_4
REMARK    3  A    between atoms: CA_4  and  C_5
REMARK    4  A    between atoms: CA_4  and  C_7
REMARK    5  A    between atoms: C_5  and  O_6
REMARK    6  A    between atoms: C_16  and  C_17
REMARK    7  A    between atoms: C_17  and  N_18
REMARK    8  A    between atoms: N_18  and  C_19
REMARK    9  A    between atoms: C_19  and  C_20
REMARK                            x       y       z     vdW  Elec       q    Type
REMARK                         _______ _______ _______ _____ _____    ______ ____
ROOT
ATOM      1  C   UNL     1      45.318   6.218  11.880  0.00  0.00    +0.000 A 
ATOM      2  C   UNL     1      45.040   7.591  11.925  0.00  0.00    +0.000 A 
ATOM      3  C   UNL     1      45.905   8.460  12.590  0.00  0.00    +0.000 A 
ATOM      4  C   UNL     1      47.062   7.975  13.217  0.00  0.00    +0.000 A 
ATOM      5  C   UNL     1      47.325   6.597  13.184  0.00  0.00    +0.000 A 
ATOM      6  C   UNL     1      46.460   5.723  12.516  0.00  0.00    +0.000 A 
ENDROOT
BRANCH   1   8
ATOM      7  O   UNL     1      43.242   5.437  11.072  0.00  0.00    +0.000 OA
ATOM      8  C   UNL     1      44.455   5.288  11.103  0.00  0.00    +0.000 C 
ATOM      9  N   UNL     1      45.115   4.277  10.452  0.00  0.00    +0.000 N 
ATOM     10  H   UNL     1      46.119   4.329  10.349  0.00  0.00    +0.000 HD
BRANCH   9  11
ATOM     11  CA  UNL     1      44.425   3.240   9.692  0.00  0.00    +0.000 C 
BRANCH  11  12
ATOM     12  C   UNL     1      45.330   2.808   8.548  0.00  0.00    +0.000 A 
ATOM     13  C   UNL     1      45.769   3.757   7.611  0.00  0.00    +0.000 A 
ATOM     14  C   UNL     1      46.748   3.432   6.670  0.00  0.00    +0.000 A 
ATOM     15  C   UNL     1      47.301   2.153   6.652  0.00  0.00    +0.000 A 
ATOM     16  C   UNL     1      46.847   1.186   7.546  0.00  0.00    +0.000 A 
ATOM     17  C   UNL     1      45.859   1.507   8.479  0.00  0.00    +0.000 A 
ENDBRANCH  11  12
BRANCH  11  18
ATOM     18  C   UNL     1      43.925   2.099  10.607  0.00  0.00    +0.000 C 
BRANCH  18  19
ATOM     19  O   UNL     1      42.839   2.487  11.458  0.00  0.00    +0.000 OA
ATOM     20  H   UNL     1      43.218   2.590  12.348  0.00  0.00    +0.000 HD
ENDBRANCH  18  19
ENDBRANCH  11  18
ENDBRANCH   9  11
ENDBRANCH   1   8
BRANCH   4  21
ATOM     21  C   UNL     1      48.035   8.934  13.865  0.00  0.00    +0.000 C 
BRANCH  21  22
ATOM     22  N   UNL     1      47.726  10.319  13.516  0.00  0.00    +0.000 NA
ATOM     23  H   UNL     1      47.666  10.869  14.376  0.00  0.00    +0.000 HD
BRANCH  22  24
ATOM     24  C   UNL     1      48.774  10.888  12.666  0.00  0.00    +0.000 C 
BRANCH  24  25
ATOM     25  C   UNL     1      48.186  11.416  11.374  0.00  0.00    +0.000 A 
ATOM     26  C   UNL     1      46.804  11.689  11.330  0.00  0.00    +0.000 A 
ATOM     27  C   UNL     1      46.198  12.183  10.171  0.00  0.00    +0.000 A 
ATOM     28  C   UNL     1      46.966  12.407   9.033  0.00  0.00    +0.000 A 
ATOM     29  C   UNL     1      48.333  12.134   9.050  0.00  0.00    +0.000 A 
ATOM     30  C   UNL     1      48.942  11.635  10.210  0.00  0.00    +0.000 A 
ATOM     31 CL   UNL     1      50.638  11.316  10.131  0.00  0.00    +0.000 Cl
ENDBRANCH  24  25
ENDBRANCH  22  24
ENDBRANCH  21  22
ENDBRANCH   4  21
TORSDOF 9
ENDMDL
MODEL 7
REMARK VINA RESULT:    -7.220      2.420      3.424
REMARK INTER + INTRA:         -11.819
REMARK INTER:                 -10.673
REMARK INTRA:                  -1.146
REMARK UNBOUND:                -1.012
REMARK  Name = 
REMARK  9 active torsions:
REMARK  status: ('A' for Active; 'I' for Inactive)
REMARK    1  A    between atoms: C_2  and  C_13
REMARK    2  A    between atoms: N_3  and  CA_4
REMARK    3  A    between atoms: CA_4  and  C_5
REMARK    4  A    between atoms: CA_4  and  C_7
REMARK    5  A    between atoms: C_5  and  O_6
REMARK    6  A    between atoms: C_16  and  C_17
REMARK    7  A    between atoms: C_17  and  N_18
REMARK    8  A    between atoms: N_18  and  C_19
REMARK    9  A    between atoms: C_19  and  C_20
REMARK                            x       y       z     vdW  Elec       q    Type
REMARK                         _______ _______ _______ _____ _____    ______ ____
ROOT
ATOM      1  C   UNL     1      46.980   6.058  13.405  0.00  0.00    +0.000 A 
ATOM      2  C   UNL     1      46.884   4.684  13.668  0.00  0.00    +0.000 A 
ATOM      3  C   UNL     1      45.950   3.904  12.986  0.00  0.00    +0.000 A 
ATOM      4  C   UNL     1      45.100   4.480  12.031  0.00  0.00    +0.000 A 
ATOM      5  C   UNL     1      45.189   5.860  11.786  0.00  0.00    +0.000 A 
ATOM      6  C   UNL     1      46.127   6.644  12.466  0.00  0.00    +0.000 A 
ENDROOT
BRANCH   1   8
ATOM      7  O   UNL     1      48.701   7.675  13.404  0.00  0.00    +0.000 OA
ATOM      8  C   UNL     1      48.028   6.890  14.057  0.00  0.00    +0.000 C 
ATOM      9  N   UNL     1      48.173   6.701  15.408  0.00  0.00    +0.000 N 
ATOM     10  H   UNL     1      47.458   6.199  15.916  0.00  0.00    +0.000 HD
BRANCH   9  11
ATOM     11  CA  UNL     1      49.190   7.387  16.199  0.00  0.00    +0.000 C 
BRANCH  11  12
ATOM     12  C   UNL     1      48.691   7.480  17.633  0.00  0.00    +0.000 A 
ATOM     13  C   UNL     1      48.132   8.682  18.099  0.00  0.00    +0.000 A 
ATOM     14  C   UNL     1      47.495   8.738  19.340  0.00  0.00    +0.000 A 
ATOM     15  C   UNL     1      47.407   7.597  20.133  0.00  0.00    +0.000 A 
ATOM     16  C   UNL     1      47.994   6.407  19.706  0.00  0.00    +0.000 A 
ATOM     17  C   UNL     1      48.643   6.352  18.471  0.00  0.00    +0.000 A 
ENDBRANCH  11  12
BRANCH  11  18
ATOM     18  C   UNL     1      50.583   6.739  16.024  0.00  0.00    +0.000 C 
BRANCH  18  19
ATOM     19  O   UNL     1      51.328   7.283  14.928  0.00  0.00    +0.000 OA
ATOM     20  H   UNL     1      50.718   7.876  14.455  0.00  0.00    +0.000 HD
ENDBRANCH  18  19
ENDBRANCH  11  18
ENDBRANCH   9  11
ENDBRANCH   1   8
BRANCH   4  21
ATOM     21  C   UNL     1      44.147   3.613  11.239  0.00  0.00    +0.000 C 
BRANCH  21  22
ATOM     22  N   UNL     1      44.815   2.416  10.735  0.00  0.00    +0.000 NA
ATOM     23  H   UNL     1      44.555   1.621  11.324  0.00  0.00    +0.000 HD
BRANCH  22  24
ATOM     24  C   UNL     1      44.406   2.132   9.357  0.00  0.00    +0.000 C 
BRANCH  24  25
ATOM     25  C   UNL     1      45.603   2.153   8.429  0.00  0.00    +0.000 A 
ATOM     26  C   UNL     1      46.170   0.922   8.041  0.00  0.00    +0.000 A 
ATOM     27  C   UNL     1      47.272   0.869   7.182  0.00  0.00    +0.000 A 
ATOM     28  C   UNL     1      47.830   2.049   6.702  0.00  0.00    +0.000 A 
ATOM     29  C   UNL     1      47.293   3.278   7.082  0.00  0.00    +0.000 A 
ATOM     30  C   UNL     1      46.190   3.334   7.946  0.00  0.00    +0.000 A 
ATOM     31 CL   UNL     1      45.603   4.902   8.369  0.00  0.00    +0.000 Cl
ENDBRANCH  24  25
ENDBRANCH  22  24
ENDBRANCH  21  22
ENDBRANCH   4  21
TORSDOF 9
ENDMDL
MODEL 8
REMARK VINA RESULT:    -7.211      4.927      8.454
REMARK INTER + INTRA:         -11.806
REMARK INTER:                 -11.171
REMARK INTRA:                  -0.635
REMARK UNBOUND:                -1.012
REMARK  Name = 
REMARK  9 active torsions:
REMARK  status: ('A' for Active; 'I' for Inactive)
REMARK    1  A    between atoms: C_2  and  C_13
REMARK    2  A    between atoms: N_3  and  CA_4
REMARK    3  A    between atoms: CA_4  and  C_5
REMARK    4  A    between atoms: CA_4  and  C_7
REMARK    5  A    between atoms: C_5  and  O_6
REMARK    6  A    between atoms: C_16  and  C_17
REMARK    7  A    between atoms: C_17  and  N_18
REMARK    8  A    between atoms: N_18  and  C_19
REMARK    9  A    between atoms: C_19  and  C_20
REMARK                            x       y       z     vdW  Elec       q    Type
REMARK                         _______ _______ _______ _____ _____    ______ ____
ROOT
ATOM      1  C   UNL     1      45.810   6.523  11.563  0.00  0.00    +0.000 A 
ATOM      2  C   UNL     1      44.857   7.550  11.595  0.00  0.00    +0.000 A 
ATOM      3  C   UNL     1      45.255   8.870  11.811  0.00  0.00    +0.000 A 
ATOM      4  C   UNL     1      46.609   9.186  11.995  0.00  0.00    +0.000 A 
ATOM      5  C   UNL     1      47.556   8.150  11.981  0.00  0.00    +0.000 A 
ATOM      6  C   UNL     1      47.160   6.826  11.762  0.00  0.00    +0.000 A 
ENDROOT
BRANCH   1   8
ATOM      7  O   UNL     1      45.682   4.209  12.016  0.00  0.00    +0.000 OA
ATOM      8  C   UNL     1      45.416   5.123  11.248  0.00  0.00    +0.000 C 
ATOM      9  N   UNL     1      44.757   4.951  10.057  0.00  0.00    +0.000 N 
ATOM     10  H   UNL     1      44.391   5.760   9.575  0.00  0.00    +0.000 HD
BRANCH   9  11
ATOM     11  CA  UNL     1      44.349   3.642   9.560  0.00  0.00    +0.000 C 
BRANCH  11  12
ATOM     12  C   UNL     1      45.457   3.109   8.663  0.00  0.00    +0.000 A 
ATOM     13  C   UNL     1      45.773   1.741   8.686  0.00  0.00    +0.000 A 
ATOM     14  C   UNL     1      46.645   1.195   7.742  0.00  0.00    +0.000 A 
ATOM     15  C   UNL     1      47.213   2.007   6.763  0.00  0.00    +0.000 A 
ATOM     16  C   UNL     1      46.944   3.374   6.752  0.00  0.00    +0.000 A 
ATOM     17  C   UNL     1      46.082   3.924   7.703  0.00  0.00    +0.000 A 
ENDBRANCH  11  12
BRANCH  11  18
ATOM     18  C   UNL     1      43.919   2.702  10.710  0.00  0.00    +0.000 C 
BRANCH  18  19
ATOM     19  O   UNL     1      42.794   3.188  11.450  0.00  0.00    +0.000 OA
ATOM     20  H   UNL     1      42.814   4.158  11.366  0.00  0.00    +0.000 HD
ENDBRANCH  18  19
ENDBRANCH  11  18
ENDBRANCH   9  11
ENDBRANCH   1   8
BRANCH   4  21
ATOM     21  C   UNL     1      47.040  10.627  12.148  0.00  0.00    +0.000 C 
BRANCH  21  22
ATOM     22  N   UNL     1      45.895  11.497  12.407  0.00  0.00    +0.000 NA
ATOM     23  H   UNL     1      45.954  11.841  13.368  0.00  0.00    +0.000 HD
BRANCH  22  24
ATOM     24  C   UNL     1      45.896  12.645  11.496  0.00  0.00    +0.000 C 
BRANCH  24  25
ATOM     25  C   UNL     1      45.358  12.249  10.137  0.00  0.00    +0.000 A 
ATOM     26  C   UNL     1      46.201  12.390   9.017  0.00  0.00    +0.000 A 
ATOM     27  C   UNL     1      45.769  12.038   7.734  0.00  0.00    +0.000 A 
ATOM     28  C   UNL     1      44.482  11.545   7.551  0.00  0.00    +0.000 A 
ATOM     29  C   UNL     1      43.626  11.408   8.644  0.00  0.00    +0.000 A 
ATOM     30  C   UNL     1      44.056  11.763   9.929  0.00  0.00    +0.000 A 
ATOM     31 CL   UNL     1      42.921  11.570  11.218  0.00  0.00    +0.000 Cl
ENDBRANCH  24  25
ENDBRANCH  22  24
ENDBRANCH  21  22
ENDBRANCH   4  21
TORSDOF 9
ENDMDL
MODEL 9
REMARK VINA RESULT:    -7.092      2.935      8.535
REMARK INTER + INTRA:         -11.628
REMARK INTER:                 -10.295
REMARK INTRA:                  -1.334
REMARK UNBOUND:                -1.012
REMARK  Name = 
REMARK  9 active torsions:
REMARK  status: ('A' for Active; 'I' for Inactive)
REMARK    1  A    between atoms: C_2  and  C_13
REMARK    2  A    between atoms: N_3  and  CA_4
REMARK    3  A    between atoms: CA_4  and  C_5
REMARK    4  A    between atoms: CA_4  and  C_7
REMARK    5  A    between atoms: C_5  and  O_6
REMARK    6  A    between atoms: C_16  and  C_17
REMARK    7  A    between atoms: C_17  and  N_18
REMARK    8  A    between atoms: N_18  and  C_19
REMARK    9  A    between atoms: C_19  and  C_20
REMARK                            x       y       z     vdW  Elec       q    Type
REMARK                         _______ _______ _______ _____ _____    ______ ____
ROOT
ATOM      1  C   UNL     1      46.581   6.937  12.586  0.00  0.00    +0.000 A 
ATOM      2  C   UNL     1      46.410   8.097  13.354  0.00  0.00    +0.000 A 
ATOM      3  C   UNL     1      47.400   8.494  14.253  0.00  0.00    +0.000 A 
ATOM      4  C   UNL     1      48.576   7.745  14.397  0.00  0.00    +0.000 A 
ATOM      5  C   UNL     1      48.733   6.574  13.638  0.00  0.00    +0.000 A 
ATOM      6  C   UNL     1      47.743   6.174  12.734  0.00  0.00    +0.000 A 
ENDROOT
BRANCH   1   8
ATOM      7  O   UNL     1      44.877   7.385  11.015  0.00  0.00    +0.000 OA
ATOM      8  C   UNL     1      45.577   6.544  11.560  0.00  0.00    +0.000 C 
ATOM      9  N   UNL     1      45.502   5.200  11.294  0.00  0.00    +0.000 N 
ATOM     10  H   UNL     1      46.238   4.591  11.621  0.00  0.00    +0.000 HD
BRANCH   9  11
ATOM     11  CA  UNL     1      44.535   4.631  10.361  0.00  0.00    +0.000 C 
BRANCH  11  12
ATOM     12  C   UNL     1      45.295   3.799   9.339  0.00  0.00    +0.000 A 
ATOM     13  C   UNL     1      45.247   2.397   9.408  0.00  0.00    +0.000 A 
ATOM     14  C   UNL     1      45.772   1.614   8.378  0.00  0.00    +0.000 A 
ATOM     15  C   UNL     1      46.351   2.220   7.265  0.00  0.00    +0.000 A 
ATOM     16  C   UNL     1      46.446   3.608   7.200  0.00  0.00    +0.000 A 
ATOM     17  C   UNL     1      45.934   4.392   8.236  0.00  0.00    +0.000 A 
ENDBRANCH  11  12
BRANCH  11  18
ATOM     18  C   UNL     1      43.396   3.891  11.100  0.00  0.00    +0.000 C 
BRANCH  18  19
ATOM     19  O   UNL     1      42.416   4.773  11.660  0.00  0.00    +0.000 OA
ATOM     20  H   UNL     1      42.837   5.189  12.433  0.00  0.00    +0.000 HD
ENDBRANCH  18  19
ENDBRANCH  11  18
ENDBRANCH   9  11
ENDBRANCH   1   8
BRANCH   4  21
ATOM     21  C   UNL     1      49.678   8.227  15.314  0.00  0.00    +0.000 C 
BRANCH  21  22
ATOM     22  N   UNL     1      50.361   7.107  15.956  0.00  0.00    +0.000 NA
ATOM     23  H   UNL     1      51.249   7.439  16.338  0.00  0.00    +0.000 HD
BRANCH  22  24
ATOM     24  C   UNL     1      49.554   6.561  17.050  0.00  0.00    +0.000 C 
BRANCH  24  25
ATOM     25  C   UNL     1      49.732   5.061  17.148  0.00  0.00    +0.000 A 
ATOM     26  C   UNL     1      50.991   4.561  17.540  0.00  0.00    +0.000 A 
ATOM     27  C   UNL     1      51.222   3.187  17.657  0.00  0.00    +0.000 A 
ATOM     28  C   UNL     1      50.198   2.289  17.377  0.00  0.00    +0.000 A 
ATOM     29  C   UNL     1      48.948   2.760  16.977  0.00  0.00    +0.000 A 
ATOM     30  C   UNL     1      48.715   4.137  16.856  0.00  0.00    +0.000 A 
ATOM     31 CL   UNL     1      47.139   4.624  16.344  0.00  0.00    +0.000 Cl
ENDBRANCH  24  25
ENDBRANCH  22  24
ENDBRANCH  21  22
ENDBRANCH   4  21
TORSDOF 9
ENDMDL
