MODEL 1
REMARK VINA RESULT:    -8.069      0.000      0.000
REMARK INTER + INTRA:         -11.968
REMARK INTER:                 -10.899
REMARK INTRA:                  -1.069
REMARK UNBOUND:                -1.069
REMARK  Name = 
REMARK  6 active torsions:
REMARK  status: ('A' for Active; 'I' for Inactive)
REMARK    1  A    between atoms: C_2  and  C_4
REMARK    2  A    between atoms: C_7  and  S_8
REMARK    3  A    between atoms: S_8  and  C_9
REMARK    4  A    between atoms: C_9  and  C_10
REMARK    5  A    between atoms: C_10  and  C_11
REMARK    6  A    between atoms: C_15  and  C_16
REMARK                            x       y       z     vdW  Elec       q    Type
REMARK                         _______ _______ _______ _____ _____    ______ ____
ROOT
ATOM      1  C   UNL     1      43.238   4.878  10.963  0.00  0.00    +0.000 C 
ENDROOT
BRANCH   1   2
ATOM      2  S   UNL     1      43.691   3.110  10.935  0.00  0.00    +0.000 S 
BRANCH   2   6
ATOM      3  C   UNL     1      46.595   2.621   7.387  0.00  0.00    +0.000 A 
ATOM      4  C   UNL     1      46.195   3.906   7.757  0.00  0.00    +0.000 A 
ATOM      5  C   UNL     1      45.313   4.086   8.829  0.00  0.00    +0.000 A 
ATOM      6  C   UNL     1      44.812   2.993   9.542  0.00  0.00    +0.000 A 
ATOM      7  C   UNL     1      45.205   1.706   9.147  0.00  0.00    +0.000 A 
ATOM      8  C   UNL     1      46.084   1.517   8.074  0.00  0.00    +0.000 A 
BRANCH   3  10
ATOM      9  N   UNL     1      47.360   3.147   5.137  0.00  0.00    +0.000 N 
ATOM     10  C   UNL     1      47.537   2.389   6.261  0.00  0.00    +0.000 C 
ATOM     11  O   UNL     1      48.456   1.586   6.345  0.00  0.00    +0.000 OA
ATOM     12  H   UNL     1      48.074   3.060   4.425  0.00  0.00    +0.000 HD
ATOM     13  H   UNL     1      46.795   3.985   5.133  0.00  0.00    +0.000 HD
ENDBRANCH   3  10
ENDBRANCH   2   6
ENDBRANCH   1   2
BRANCH   1  14
ATOM     14  C   UNL     1      43.526   5.495  12.332  0.00  0.00    +0.000 C 
BRANCH  14  15
ATOM     15  C   UNL     1      45.016   5.683  12.517  0.00  0.00    +0.000 A 
ATOM     16  C   UNL     1      45.751   6.472  11.628  0.00  0.00    +0.000 A 
ATOM     17  C   UNL     1      47.107   6.693  11.850  0.00  0.00    +0.000 A 
ATOM     18  C   UNL     1      47.733   6.146  12.973  0.00  0.00    +0.000 A 
ATOM     19  C   UNL     1      47.018   5.381  13.912  0.00  0.00    +0.000 A 
ATOM     20  C   UNL     1      45.658   5.139  13.643  0.00  0.00    +0.000 A 
BRANCH  19  21
ATOM     21  C   UNL     1      47.639   4.931  15.181  0.00  0.00    +0.000 A 
ATOM     22  C   UNL     1      48.543   5.762  15.871  0.00  0.00    +0.000 A 
ATOM     23  C   UNL     1      49.071   5.401  17.113  0.00  0.00    +0.000 A 
ATOM     24  C   UNL     1      48.701   4.198  17.702  0.00  0.00    +0.000 A 
ATOM     25  C   UNL     1      47.823   3.347  17.038  0.00  0.00    +0.000 A 
ATOM     26  C   UNL     1      47.306   3.706  15.786  0.00  0.00    +0.000 A 
ENDBRANCH  19  21
ENDBRANCH  14  15
ENDBRANCH   1  14
TORSDOF 6
ENDMDL
MODEL 2
REMARK VINA RESULT:    -8.060      1.656      3.566
REMARK INTER + INTRA:         -11.956
REMARK INTER:                 -11.090
REMARK INTRA:                  -0.866
REMARK UNBOUND:                -1.069
REMARK  Name = 
REMARK  6 active torsions:
REMARK  status: ('A' for Active; 'I' for Inactive)
REMARK    1  A    between atoms: C_2  and  C_4
REMARK    2  A    between atoms: C_7  and  S_8
REMARK    3  A    between atoms: S_8  and  C_9
REMARK    4  A    between atoms: C_9  and  C_10
REMARK    5  A    between atoms: C_10  and  C_11
REMARK    6  A    between atoms: C_15  and  C_16
REMARK                            x       y       z     vdW  Elec       q    Type
REMARK                         _______ _______ _______ _____ _____    ______ ____
ROOT
ATOM      1  C   UNL     1      43.413   5.198  11.040  0.00  0.00    +0.000 C 
ENDROOT
BRANCH   1   2
ATOM      2  S   UNL     1      43.603   3.388  10.905  0.00  0.00    +0.000 S 
BRANCH   2   6
ATOM      3  C   UNL     1      46.596   2.702   7.465  0.00  0.00    +0.000 A 
ATOM      4  C   UNL     1      46.213   4.009   7.773  0.00  0.00    +0.000 A 
ATOM      5  C   UNL     1      45.304   4.249   8.812  0.00  0.00    +0.000 A 
ATOM      6  C   UNL     1      44.760   3.195   9.551  0.00  0.00    +0.000 A 
ATOM      7  C   UNL     1      45.136   1.885   9.217  0.00  0.00    +0.000 A 
ATOM      8  C   UNL     1      46.042   1.637   8.178  0.00  0.00    +0.000 A 
BRANCH   3  10
ATOM      9  N   UNL     1      47.400   3.084   5.199  0.00  0.00    +0.000 N 
ATOM     10  C   UNL     1      47.565   2.408   6.377  0.00  0.00    +0.000 C 
ATOM     11  O   UNL     1      48.493   1.628   6.535  0.00  0.00    +0.000 OA
ATOM     12  H   UNL     1      48.129   2.958   4.509  0.00  0.00    +0.000 HD
ATOM     13  H   UNL     1      46.822   3.909   5.125  0.00  0.00    +0.000 HD
ENDBRANCH   3  10
ENDBRANCH   2   6
ENDBRANCH   1   2
BRANCH   1  14
ATOM     14  C   UNL     1      43.513   5.652  12.496  0.00  0.00    +0.000 C 
BRANCH  14  15
ATOM     15  C   UNL     1      44.964   5.741  12.916  0.00  0.00    +0.000 A 
ATOM     16  C   UNL     1      45.566   4.700  13.629  0.00  0.00    +0.000 A 
ATOM     17  C   UNL     1      46.919   4.765  13.948  0.00  0.00    +0.000 A 
ATOM     18  C   UNL     1      47.685   5.858  13.536  0.00  0.00    +0.000 A 
ATOM     19  C   UNL     1      47.126   6.905  12.782  0.00  0.00    +0.000 A 
ATOM     20  C   UNL     1      45.748   6.835  12.509  0.00  0.00    +0.000 A 
BRANCH  19  21
ATOM     21  C   UNL     1      47.967   7.986  12.213  0.00  0.00    +0.000 A 
ATOM     22  C   UNL     1      47.472   9.300  12.108  0.00  0.00    +0.000 A 
ATOM     23  C   UNL     1      48.272  10.354  11.662  0.00  0.00    +0.000 A 
ATOM     24  C   UNL     1      49.597  10.119  11.314  0.00  0.00    +0.000 A 
ATOM     25  C   UNL     1      50.111   8.829  11.390  0.00  0.00    +0.000 A 
ATOM     26  C   UNL     1      49.301   7.772  11.825  0.00  0.00    +0.000 A 
ENDBRANCH  19  21
ENDBRANCH  14  15
ENDBRANCH   1  14
TORSDOF 6
ENDMDL
MODEL 3
REMARK VINA RESULT:    -8.031      2.709      4.216
REMARK INTER + INTRA:         -11.917
REMARK INTER:                 -10.872
REMARK INTRA:                  -1.045
REMARK UNBOUND:                -1.069
REMARK  Name = 
REMARK  6 active torsions:
REMARK  status: ('A' for Active; 'I' for Inactive)
REMARK    1  A    between atoms: C_2  and  C_4
REMARK    2  A    between atoms: C_7  and  S_8
REMARK    3  A    between atoms: S_8  and  C_9
REMARK    4  A    between atoms: C_9  and  C_10
REMARK    5  A    between atoms: C_10  and  C_11
REMARK    6  A    between atoms: C_15  and  C_16
REMARK                            x       y       z     vdW  Elec       q    Type
REMARK                         _______ _______ _______ _____ _____    ______ ____
ROOT
ATOM      1  C   UNL     1      44.357   4.501  12.225  0.00  0.00    +0.000 C 
ENDROOT
BRANCH   1   2
ATOM      2  S   UNL     1      43.582   4.675  10.582  0.00  0.00    +0.000 S 
BRANCH   2   6
ATOM      3  C   UNL     1      46.476   2.515   7.716  0.00  0.00    +0.000 A 
ATOM      4  C   UNL     1      45.704   1.751   8.593  0.00  0.00    +0.000 A 
ATOM      5  C   UNL     1      44.817   2.380   9.476  0.00  0.00    +0.000 A 
ATOM      6  C   UNL     1      44.692   3.772   9.505  0.00  0.00    +0.000 A 
ATOM      7  C   UNL     1      45.490   4.528   8.633  0.00  0.00    +0.000 A 
ATOM      8  C   UNL     1      46.381   3.908   7.749  0.00  0.00    +0.000 A 
BRANCH   3  10
ATOM      9  N   UNL     1      48.540   2.600   6.427  0.00  0.00    +0.000 N 
ATOM     10  C   UNL     1      47.422   1.885   6.757  0.00  0.00    +0.000 C 
ATOM     11  O   UNL     1      47.234   0.763   6.311  0.00  0.00    +0.000 OA
ATOM     12  H   UNL     1      49.227   2.116   5.865  0.00  0.00    +0.000 HD
ATOM     13  H   UNL     1      48.853   3.395   6.967  0.00  0.00    +0.000 HD
ENDBRANCH   3  10
ENDBRANCH   2   6
ENDBRANCH   1   2
BRANCH   1  14
ATOM     14  C   UNL     1      45.862   4.760  12.150  0.00  0.00    +0.000 C 
BRANCH  14  15
ATOM     15  C   UNL     1      46.139   6.246  12.208  0.00  0.00    +0.000 A 
ATOM     16  C   UNL     1      45.209   7.124  12.772  0.00  0.00    +0.000 A 
ATOM     17  C   UNL     1      45.507   8.479  12.881  0.00  0.00    +0.000 A 
ATOM     18  C   UNL     1      46.745   8.962  12.450  0.00  0.00    +0.000 A 
ATOM     19  C   UNL     1      47.723   8.104  11.915  0.00  0.00    +0.000 A 
ATOM     20  C   UNL     1      47.381   6.747  11.778  0.00  0.00    +0.000 A 
BRANCH  19  21
ATOM     21  C   UNL     1      49.090   8.586  11.602  0.00  0.00    +0.000 A 
ATOM     22  C   UNL     1      50.144   7.673  11.404  0.00  0.00    +0.000 A 
ATOM     23  C   UNL     1      51.419   8.094  11.018  0.00  0.00    +0.000 A 
ATOM     24  C   UNL     1      51.670   9.446  10.812  0.00  0.00    +0.000 A 
ATOM     25  C   UNL     1      50.654  10.374  11.015  0.00  0.00    +0.000 A 
ATOM     26  C   UNL     1      49.381   9.949  11.415  0.00  0.00    +0.000 A 
ENDBRANCH  19  21
ENDBRANCH  14  15
ENDBRANCH   1  14
TORSDOF 6
ENDMDL
MODEL 4
REMARK VINA RESULT:    -7.863      3.803      7.679
REMARK INTER + INTRA:         -11.690
REMARK INTER:                 -10.460
REMARK INTRA:                  -1.230
REMARK UNBOUND:                -1.069
REMARK  Name = 
REMARK  6 active torsions:
REMARK  status: ('A' for Active; 'I' for Inactive)
REMARK    1  A    between atoms: C_2  and  C_4
REMARK    2  A    between atoms: C_7  and  S_8
REMARK    3  A    between atoms: S_8  and  C_9
REMARK    4  A    between atoms: C_9  and  C_10
REMARK    5  A    between atoms: C_10  and  C_11
REMARK    6  A    between atoms: C_15  and  C_16
REMARK                            x       y       z     vdW  Elec       q    Type
REMARK                         _______ _______ _______ _____ _____    ______ ____
ROOT
ATOM      1  C   UNL     1      45.780   7.903  12.642  0.00  0.00    +0.000 C 
ENDROOT
BRANCH   1   2
ATOM      2  S   UNL     1      47.534   7.400  12.634  0.00  0.00    +0.000 S 
BRANCH   2   6
ATOM      3  C   UNL     1      47.664   4.315  16.058  0.00  0.00    +0.000 A 
ATOM      4  C   UNL     1      48.389   5.500  16.193  0.00  0.00    +0.000 A 
ATOM      5  C   UNL     1      48.371   6.455  15.168  0.00  0.00    +0.000 A 
ATOM      6  C   UNL     1      47.638   6.243  13.997  0.00  0.00    +0.000 A 
ATOM      7  C   UNL     1      46.931   5.039  13.865  0.00  0.00    +0.000 A 
ATOM      8  C   UNL     1      46.947   4.077  14.883  0.00  0.00    +0.000 A 
BRANCH   3  10
ATOM      9  N   UNL     1      48.857   2.930  17.666  0.00  0.00    +0.000 N 
ATOM     10  C   UNL     1      47.650   3.281  17.126  0.00  0.00    +0.000 C 
ATOM     11  O   UNL     1      46.607   2.792  17.535  0.00  0.00    +0.000 OA
ATOM     12  H   UNL     1      48.823   2.312  18.465  0.00  0.00    +0.000 HD
ATOM     13  H   UNL     1      49.688   3.491  17.543  0.00  0.00    +0.000 HD
ENDBRANCH   3  10
ENDBRANCH   2   6
ENDBRANCH   1   2
BRANCH   1  14
ATOM     14  C   UNL     1      45.136   7.665  11.276  0.00  0.00    +0.000 C 
BRANCH  14  15
ATOM     15  C   UNL     1      44.756   6.209  11.124  0.00  0.00    +0.000 A 
ATOM     16  C   UNL     1      43.694   5.669  11.855  0.00  0.00    +0.000 A 
ATOM     17  C   UNL     1      43.311   4.346  11.653  0.00  0.00    +0.000 A 
ATOM     18  C   UNL     1      43.971   3.561  10.703  0.00  0.00    +0.000 A 
ATOM     19  C   UNL     1      45.017   4.081   9.919  0.00  0.00    +0.000 A 
ATOM     20  C   UNL     1      45.411   5.407  10.172  0.00  0.00    +0.000 A 
BRANCH  19  21
ATOM     21  C   UNL     1      45.613   3.302   8.807  0.00  0.00    +0.000 A 
ATOM     22  C   UNL     1      46.167   3.957   7.689  0.00  0.00    +0.000 A 
ATOM     23  C   UNL     1      46.815   3.253   6.673  0.00  0.00    +0.000 A 
ATOM     24  C   UNL     1      46.934   1.870   6.752  0.00  0.00    +0.000 A 
ATOM     25  C   UNL     1      46.383   1.193   7.835  0.00  0.00    +0.000 A 
ATOM     26  C   UNL     1      45.721   1.901   8.846  0.00  0.00    +0.000 A 
ENDBRANCH  19  21
ENDBRANCH  14  15
ENDBRANCH   1  14
TORSDOF 6
ENDMDL
MODEL 5
REMARK VINA RESULT:    -7.418      1.236      2.219
REMARK INTER + INTRA:         -11.089
REMARK INTER:                 -10.157
REMARK INTRA:                  -0.932
REMARK UNBOUND:                -1.069
REMARK  Name = 
REMARK  6 active torsions:
REMARK  status: ('A' for Active; 'I' for Inactive)
REMARK    1  A    between atoms: C_2  and  C_4
REMARK    2  A    between atoms: C_7  and  S_8
REMARK    3  A    between atoms: S_8  and  C_9
REMARK    4  A    between atoms: C_9  and  C_10
REMARK    5  A    between atoms: C_10  and  C_11
REMARK    6  A    between atoms: C_15  and  C_16
REMARK                            x       y       z     vdW  Elec       q    Type
REMARK                         _______ _______ _______ _____ _____    ______ ____
ROOT
ATOM      1  C   UNL     1      44.494   5.594  11.551  0.00  0.00    +0.000 C 
ENDROOT
BRANCH   1   2
ATOM      2  S   UNL     1      43.524   4.251  10.785  0.00  0.00    +0.000 S 
BRANCH   2   6
ATOM      3  C   UNL     1      46.453   2.650   7.604  0.00  0.00    +0.000 A 
ATOM      4  C   UNL     1      45.798   1.739   8.435  0.00  0.00    +0.000 A 
ATOM      5  C   UNL     1      44.904   2.196   9.411  0.00  0.00    +0.000 A 
ATOM      6  C   UNL     1      44.655   3.561   9.580  0.00  0.00    +0.000 A 
ATOM      7  C   UNL     1      45.336   4.467   8.753  0.00  0.00    +0.000 A 
ATOM      8  C   UNL     1      46.234   4.018   7.777  0.00  0.00    +0.000 A 
BRANCH   3  10
ATOM      9  N   UNL     1      47.482   2.973   5.422  0.00  0.00    +0.000 N 
ATOM     10  C   UNL     1      47.402   2.205   6.550  0.00  0.00    +0.000 C 
ATOM     11  O   UNL     1      48.110   1.218   6.696  0.00  0.00    +0.000 OA
ATOM     12  H   UNL     1      48.210   2.723   4.765  0.00  0.00    +0.000 HD
ATOM     13  H   UNL     1      47.119   3.915   5.381  0.00  0.00    +0.000 HD
ENDBRANCH   3  10
ENDBRANCH   2   6
ENDBRANCH   1   2
BRANCH   1  14
ATOM     14  C   UNL     1      45.368   5.059  12.686  0.00  0.00    +0.000 C 
BRANCH  14  15
ATOM     15  C   UNL     1      46.654   5.850  12.772  0.00  0.00    +0.000 A 
ATOM     16  C   UNL     1      47.050   6.685  11.723  0.00  0.00    +0.000 A 
ATOM     17  C   UNL     1      48.199   7.460  11.845  0.00  0.00    +0.000 A 
ATOM     18  C   UNL     1      48.948   7.424  13.024  0.00  0.00    +0.000 A 
ATOM     19  C   UNL     1      48.561   6.628  14.117  0.00  0.00    +0.000 A 
ATOM     20  C   UNL     1      47.418   5.824  13.953  0.00  0.00    +0.000 A 
BRANCH  19  21
ATOM     21  C   UNL     1      49.263   6.705  15.421  0.00  0.00    +0.000 A 
ATOM     22  C   UNL     1      48.816   5.949  16.522  0.00  0.00    +0.000 A 
ATOM     23  C   UNL     1      49.512   5.933  17.732  0.00  0.00    +0.000 A 
ATOM     24  C   UNL     1      50.682   6.670  17.871  0.00  0.00    +0.000 A 
ATOM     25  C   UNL     1      51.140   7.440  16.807  0.00  0.00    +0.000 A 
ATOM     26  C   UNL     1      50.432   7.465  15.599  0.00  0.00    +0.000 A 
ENDBRANCH  19  21
ENDBRANCH  14  15
ENDBRANCH   1  14
TORSDOF 6
ENDMDL
MODEL 6
REMARK VINA RESULT:    -7.228      2.340      4.474
REMARK INTER + INTRA:         -10.831
REMARK INTER:                  -9.836
REMARK INTRA:                  -0.995
REMARK UNBOUND:                -1.069
REMARK  Name = 
REMARK  6 active torsions:
REMARK  status: ('A' for Active; 'I' for Inactive)
REMARK    1  A    between atoms: C_2  and  C_4
REMARK    2  A    between atoms: C_7  and  S_8
REMARK    3  A    between atoms: S_8  and  C_9
REMARK    4  A    between atoms: C_9  and  C_10
REMARK    5  A    between atoms: C_10  and  C_11
REMARK    6  A    between atoms: C_15  and  C_16
REMARK                            x       y       z     vdW  Elec       q    Type
REMARK                         _______ _______ _______ _____ _____    ______ ____
ROOT
ATOM      1  C   UNL     1      44.026   4.677  12.312  0.00  0.00    +0.000 C 
ENDROOT
BRANCH   1   2
ATOM      2  S   UNL     1      43.270   3.362  11.298  0.00  0.00    +0.000 S 
BRANCH   2   6
ATOM      3  C   UNL     1      46.152   2.851   7.737  0.00  0.00    +0.000 A 
ATOM      4  C   UNL     1      45.662   4.125   8.027  0.00  0.00    +0.000 A 
ATOM      5  C   UNL     1      44.783   4.311   9.102  0.00  0.00    +0.000 A 
ATOM      6  C   UNL     1      44.376   3.235   9.896  0.00  0.00    +0.000 A 
ATOM      7  C   UNL     1      44.859   1.957   9.579  0.00  0.00    +0.000 A 
ATOM      8  C   UNL     1      45.735   1.762   8.505  0.00  0.00    +0.000 A 
BRANCH   3  10
ATOM      9  N   UNL     1      48.148   1.776   6.848  0.00  0.00    +0.000 N 
ATOM     10  C   UNL     1      47.094   2.614   6.611  0.00  0.00    +0.000 C 
ATOM     11  O   UNL     1      46.916   3.112   5.508  0.00  0.00    +0.000 OA
ATOM     12  H   UNL     1      48.715   1.536   6.045  0.00  0.00    +0.000 HD
ATOM     13  H   UNL     1      48.177   1.154   7.644  0.00  0.00    +0.000 HD
ENDBRANCH   3  10
ENDBRANCH   2   6
ENDBRANCH   1   2
BRANCH   1  14
ATOM     14  C   UNL     1      45.466   4.322  12.684  0.00  0.00    +0.000 C 
BRANCH  14  15
ATOM     15  C   UNL     1      46.231   5.570  13.065  0.00  0.00    +0.000 A 
ATOM     16  C   UNL     1      47.420   5.484  13.794  0.00  0.00    +0.000 A 
ATOM     17  C   UNL     1      48.150   6.635  14.077  0.00  0.00    +0.000 A 
ATOM     18  C   UNL     1      47.708   7.877  13.613  0.00  0.00    +0.000 A 
ATOM     19  C   UNL     1      46.539   8.000  12.841  0.00  0.00    +0.000 A 
ATOM     20  C   UNL     1      45.799   6.827  12.604  0.00  0.00    +0.000 A 
BRANCH  19  21
ATOM     21  C   UNL     1      46.152   9.289  12.218  0.00  0.00    +0.000 A 
ATOM     22  C   UNL     1      44.813   9.539  11.861  0.00  0.00    +0.000 A 
ATOM     23  C   UNL     1      44.406  10.777  11.358  0.00  0.00    +0.000 A 
ATOM     24  C   UNL     1      45.332  11.803  11.206  0.00  0.00    +0.000 A 
ATOM     25  C   UNL     1      46.665  11.581  11.534  0.00  0.00    +0.000 A 
ATOM     26  C   UNL     1      47.072  10.334  12.025  0.00  0.00    +0.000 A 
ENDBRANCH  19  21
ENDBRANCH  14  15
ENDBRANCH   1  14
TORSDOF 6
ENDMDL
MODEL 7
REMARK VINA RESULT:    -7.127      4.139      7.413
REMARK INTER + INTRA:         -10.696
REMARK INTER:                  -9.869
REMARK INTRA:                  -0.827
REMARK UNBOUND:                -1.069
REMARK  Name = 
REMARK  6 active torsions:
REMARK  status: ('A' for Active; 'I' for Inactive)
REMARK    1  A    between atoms: C_2  and  C_4
REMARK    2  A    between atoms: C_7  and  S_8
REMARK    3  A    between atoms: S_8  and  C_9
REMARK    4  A    between atoms: C_9  and  C_10
REMARK    5  A    between atoms: C_10  and  C_11
REMARK    6  A    between atoms: C_15  and  C_16
REMARK                            x       y       z     vdW  Elec       q    Type
REMARK                         _______ _______ _______ _____ _____    ______ ____
ROOT
ATOM      1  C   UNL     1      45.384   7.057  12.597  0.00  0.00    +0.000 C 
ENDROOT
BRANCH   1   2
ATOM      2  S   UNL     1      45.912   8.796  12.764  0.00  0.00    +0.000 S 
BRANCH   2   6
ATOM      3  C   UNL     1      50.321   8.509  11.446  0.00  0.00    +0.000 A 
ATOM      4  C   UNL     1      49.758   9.771  11.640  0.00  0.00    +0.000 A 
ATOM      5  C   UNL     1      48.421   9.890  12.039  0.00  0.00    +0.000 A 
ATOM      6  C   UNL     1      47.625   8.759  12.242  0.00  0.00    +0.000 A 
ATOM      7  C   UNL     1      48.197   7.497  12.023  0.00  0.00    +0.000 A 
ATOM      8  C   UNL     1      49.533   7.370  11.621  0.00  0.00    +0.000 A 
BRANCH   3  10
ATOM      9  N   UNL     1      52.681   9.028  11.747  0.00  0.00    +0.000 N 
ATOM     10  C   UNL     1      51.739   8.341  11.032  0.00  0.00    +0.000 C 
ATOM     11  O   UNL     1      52.059   7.592  10.119  0.00  0.00    +0.000 OA
ATOM     12  H   UNL     1      53.646   8.819  11.528  0.00  0.00    +0.000 HD
ATOM     13  H   UNL     1      52.483   9.435  12.650  0.00  0.00    +0.000 HD
ENDBRANCH   3  10
ENDBRANCH   2   6
ENDBRANCH   1   2
BRANCH   1  14
ATOM     14  C   UNL     1      44.568   6.854  11.320  0.00  0.00    +0.000 C 
BRANCH  14  15
ATOM     15  C   UNL     1      44.427   5.378  11.020  0.00  0.00    +0.000 A 
ATOM     16  C   UNL     1      43.478   4.601  11.692  0.00  0.00    +0.000 A 
ATOM     17  C   UNL     1      43.311   3.260  11.356  0.00  0.00    +0.000 A 
ATOM     18  C   UNL     1      44.074   2.694  10.331  0.00  0.00    +0.000 A 
ATOM     19  C   UNL     1      45.008   3.453   9.604  0.00  0.00    +0.000 A 
ATOM     20  C   UNL     1      45.186   4.794   9.991  0.00  0.00    +0.000 A 
BRANCH  19  21
ATOM     21  C   UNL     1      45.704   2.898   8.418  0.00  0.00    +0.000 A 
ATOM     22  C   UNL     1      45.973   3.710   7.299  0.00  0.00    +0.000 A 
ATOM     23  C   UNL     1      46.706   3.238   6.209  0.00  0.00    +0.000 A 
ATOM     24  C   UNL     1      47.199   1.938   6.213  0.00  0.00    +0.000 A 
ATOM     25  C   UNL     1      46.936   1.106   7.296  0.00  0.00    +0.000 A 
ATOM     26  C   UNL     1      46.188   1.578   8.382  0.00  0.00    +0.000 A 
ENDBRANCH  19  21
ENDBRANCH  14  15
ENDBRANCH   1  14
TORSDOF 6
ENDMDL
MODEL 8
REMARK VINA RESULT:    -6.841      4.284      7.985
REMARK INTER + INTRA:         -10.309
REMARK INTER:                  -9.080
REMARK INTRA:                  -1.229
REMARK UNBOUND:                -1.069
REMARK  Name = 
REMARK  6 active torsions:
REMARK  status: ('A' for Active; 'I' for Inactive)
REMARK    1  A    between atoms: C_2  and  C_4
REMARK    2  A    between atoms: C_7  and  S_8
REMARK    3  A    between atoms: S_8  and  C_9
REMARK    4  A    between atoms: C_9  and  C_10
REMARK    5  A    between atoms: C_10  and  C_11
REMARK    6  A    between atoms: C_15  and  C_16
REMARK                            x       y       z     vdW  Elec       q    Type
REMARK                         _______ _______ _______ _____ _____    ______ ____
ROOT
ATOM      1  C   UNL     1      49.723   7.555  12.868  0.00  0.00    +0.000 C 
ENDROOT
BRANCH   1   2
ATOM      2  S   UNL     1      49.670   8.254  14.553  0.00  0.00    +0.000 S 
BRANCH   2   6
ATOM      3  C   UNL     1      48.131   4.665  17.003  0.00  0.00    +0.000 A 
ATOM      4  C   UNL     1      49.110   5.489  17.561  0.00  0.00    +0.000 A 
ATOM      5  C   UNL     1      49.598   6.586  16.839  0.00  0.00    +0.000 A 
ATOM      6  C   UNL     1      49.126   6.873  15.555  0.00  0.00    +0.000 A 
ATOM      7  C   UNL     1      48.158   6.024  14.999  0.00  0.00    +0.000 A 
ATOM      8  C   UNL     1      47.667   4.924  15.712  0.00  0.00    +0.000 A 
BRANCH   3  10
ATOM      9  N   UNL     1      48.264   3.086  18.852  0.00  0.00    +0.000 N 
ATOM     10  C   UNL     1      47.581   3.497  17.741  0.00  0.00    +0.000 C 
ATOM     11  O   UNL     1      46.543   2.950  17.397  0.00  0.00    +0.000 OA
ATOM     12  H   UNL     1      47.820   2.365  19.405  0.00  0.00    +0.000 HD
ATOM     13  H   UNL     1      48.958   3.664  19.305  0.00  0.00    +0.000 HD
ENDBRANCH   3  10
ENDBRANCH   2   6
ENDBRANCH   1   2
BRANCH   1  14
ATOM     14  C   UNL     1      48.798   8.327  11.926  0.00  0.00    +0.000 C 
BRANCH  14  15
ATOM     15  C   UNL     1      47.384   7.799  12.034  0.00  0.00    +0.000 A 
ATOM     16  C   UNL     1      46.414   8.502  12.754  0.00  0.00    +0.000 A 
ATOM     17  C   UNL     1      45.101   8.041  12.787  0.00  0.00    +0.000 A 
ATOM     18  C   UNL     1      44.744   6.888  12.083  0.00  0.00    +0.000 A 
ATOM     19  C   UNL     1      45.682   6.177  11.314  0.00  0.00    +0.000 A 
ATOM     20  C   UNL     1      47.010   6.641  11.330  0.00  0.00    +0.000 A 
BRANCH  19  21
ATOM     21  C   UNL     1      45.275   5.047  10.443  0.00  0.00    +0.000 A 
ATOM     22  C   UNL     1      45.651   5.016   9.086  0.00  0.00    +0.000 A 
ATOM     23  C   UNL     1      45.360   3.923   8.268  0.00  0.00    +0.000 A 
ATOM     24  C   UNL     1      44.689   2.823   8.792  0.00  0.00    +0.000 A 
ATOM     25  C   UNL     1      44.290   2.831  10.124  0.00  0.00    +0.000 A 
ATOM     26  C   UNL     1      44.571   3.935  10.938  0.00  0.00    +0.000 A 
ENDBRANCH  19  21
ENDBRANCH  14  15
ENDBRANCH   1  14
TORSDOF 6
ENDMDL
MODEL 9
REMARK VINA RESULT:    -6.823      4.341      8.432
REMARK INTER + INTRA:         -10.285
REMARK INTER:                  -9.713
REMARK INTRA:                  -0.572
REMARK UNBOUND:                -1.069
REMARK  Name = 
REMARK  6 active torsions:
REMARK  status: ('A' for Active; 'I' for Inactive)
REMARK    1  A    between atoms: C_2  and  C_4
REMARK    2  A    between atoms: C_7  and  S_8
REMARK    3  A    between atoms: S_8  and  C_9
REMARK    4  A    between atoms: C_9  and  C_10
REMARK    5  A    between atoms: C_10  and  C_11
REMARK    6  A    between atoms: C_15  and  C_16
REMARK                            x       y       z     vdW  Elec       q    Type
REMARK                         _______ _______ _______ _____ _____    ______ ____
ROOT
ATOM      1  C   UNL     1      46.950   4.242  14.584  0.00  0.00    +0.000 C 
ENDROOT
BRANCH   1   2
ATOM      2  S   UNL     1      46.992   4.395  16.402  0.00  0.00    +0.000 S 
BRANCH   2   6
ATOM      3  C   UNL     1      51.028   2.445  17.482  0.00  0.00    +0.000 A 
ATOM      4  C   UNL     1      50.846   3.804  17.745  0.00  0.00    +0.000 A 
ATOM      5  C   UNL     1      49.632   4.425  17.426  0.00  0.00    +0.000 A 
ATOM      6  C   UNL     1      48.587   3.706  16.837  0.00  0.00    +0.000 A 
ATOM      7  C   UNL     1      48.791   2.347  16.559  0.00  0.00    +0.000 A 
ATOM      8  C   UNL     1      50.004   1.720  16.871  0.00  0.00    +0.000 A 
BRANCH   3  10
ATOM      9  N   UNL     1      52.220   0.412  18.091  0.00  0.00    +0.000 N 
ATOM     10  C   UNL     1      52.299   1.749  17.814  0.00  0.00    +0.000 C 
ATOM     11  O   UNL     1      53.374   2.331  17.803  0.00  0.00    +0.000 OA
ATOM     12  H   UNL     1      53.102  -0.071  18.204  0.00  0.00    +0.000 HD
ATOM     13  H   UNL     1      51.409  -0.143  17.854  0.00  0.00    +0.000 HD
ENDBRANCH   3  10
ENDBRANCH   2   6
ENDBRANCH   1   2
BRANCH   1  14
ATOM     14  C   UNL     1      46.232   5.435  13.951  0.00  0.00    +0.000 C 
BRANCH  14  15
ATOM     15  C   UNL     1      45.237   4.956  12.917  0.00  0.00    +0.000 A 
ATOM     16  C   UNL     1      43.871   5.217  13.068  0.00  0.00    +0.000 A 
ATOM     17  C   UNL     1      42.975   4.832  12.076  0.00  0.00    +0.000 A 
ATOM     18  C   UNL     1      43.438   4.207  10.916  0.00  0.00    +0.000 A 
ATOM     19  C   UNL     1      44.808   3.965  10.708  0.00  0.00    +0.000 A 
ATOM     20  C   UNL     1      45.688   4.327  11.744  0.00  0.00    +0.000 A 
BRANCH  19  21
ATOM     21  C   UNL     1      45.317   3.445   9.416  0.00  0.00    +0.000 A 
ATOM     22  C   UNL     1      45.774   4.327   8.418  0.00  0.00    +0.000 A 
ATOM     23  C   UNL     1      46.343   3.862   7.231  0.00  0.00    +0.000 A 
ATOM     24  C   UNL     1      46.477   2.495   7.014  0.00  0.00    +0.000 A 
ATOM     25  C   UNL     1      46.020   1.598   7.973  0.00  0.00    +0.000 A 
ATOM     26  C   UNL     1      45.437   2.068   9.157  0.00  0.00    +0.000 A 
ENDBRANCH  19  21
ENDBRANCH  14  15
ENDBRANCH   1  14
TORSDOF 6
ENDMDL
