MODEL 1
REMARK VINA RESULT:    -8.280      0.000      0.000
REMARK INTER + INTRA:         -11.504
REMARK INTER:                 -10.701
REMARK INTRA:                  -0.804
REMARK UNBOUND:                -0.804
REMARK  Name = 
REMARK  5 active torsions:
REMARK  status: ('A' for Active; 'I' for Inactive)
REMARK    1  A    between atoms: C_2  and  C_5
REMARK    2  A    between atoms: C_9  and  C_10
REMARK    3  A    between atoms: C_14  and  C_15
REMARK    4  A    between atoms: C_15  and  O_16
REMARK    5  A    between atoms: O_16  and  C_17
REMARK                            x       y       z     vdW  Elec       q    Type
REMARK                         _______ _______ _______ _____ _____    ______ ____
ROOT
ATOM      1  C   UNL     1      46.322   5.530  13.291  0.00  0.00    +0.000 A 
ATOM      2  C   UNL     1      45.835   6.712  12.733  0.00  0.00    +0.000 A 
ATOM      3  N   UNL     1      45.000   6.783  11.662  0.00  0.00    +0.000 NA
ATOM      4  C   UNL     1      44.610   5.613  11.114  0.00  0.00    +0.000 A 
ATOM      5  C   UNL     1      45.026   4.370  11.571  0.00  0.00    +0.000 A 
ATOM      6  C   UNL     1      45.873   4.343  12.686  0.00  0.00    +0.000 A 
ENDROOT
BRANCH   1  11
ATOM      7  C   UNL     1      48.071   4.367  16.301  0.00  0.00    +0.000 A 
ATOM      8  C   UNL     1      48.977   5.391  16.582  0.00  0.00    +0.000 A 
ATOM      9  C   UNL     1      48.995   6.516  15.768  0.00  0.00    +0.000 A 
ATOM     10  C   UNL     1      48.122   6.589  14.687  0.00  0.00    +0.000 A 
ATOM     11  C   UNL     1      47.248   5.533  14.435  0.00  0.00    +0.000 A 
ATOM     12  N   UNL     1      47.209   4.442  15.242  0.00  0.00    +0.000 NA
BRANCH   7  14
ATOM     13  F   UNL     1      46.776   2.714  17.494  0.00  0.00    +0.000 F 
ATOM     14  C   UNL     1      48.044   3.128  17.189  0.00  0.00    +0.000 C 
ATOM     15  F   UNL     1      48.658   3.316  18.391  0.00  0.00    +0.000 F 
ATOM     16  F   UNL     1      48.647   2.046  16.618  0.00  0.00    +0.000 F 
ENDBRANCH   7  14
ENDBRANCH   1  11
BRANCH   5  17
ATOM     17  C   UNL     1      44.588   3.105  10.893  0.00  0.00    +0.000 C 
BRANCH  17  18
ATOM     18  O   UNL     1      44.310   3.371   9.521  0.00  0.00    +0.000 OA
BRANCH  18  19
ATOM     19  C   UNL     1      45.266   2.983   8.620  0.00  0.00    +0.000 A 
ATOM     20  C   UNL     1      45.962   3.828   7.749  0.00  0.00    +0.000 A 
ATOM     21  C   UNL     1      46.921   3.308   6.875  0.00  0.00    +0.000 A 
ATOM     22  C   UNL     1      47.190   1.941   6.866  0.00  0.00    +0.000 A 
ATOM     23  C   UNL     1      46.496   1.098   7.730  0.00  0.00    +0.000 A 
ATOM     24 CL   UNL     1      46.830  -0.590   7.718  0.00  0.00    +0.000 Cl
ATOM     25  C   UNL     1      45.539   1.612   8.604  0.00  0.00    +0.000 A 
ENDBRANCH  18  19
ENDBRANCH  17  18
ENDBRANCH   5  17
TORSDOF 5
ENDMDL
MODEL 2
REMARK VINA RESULT:    -8.270      4.263      5.409
REMARK INTER + INTRA:         -11.491
REMARK INTER:                 -10.551
REMARK INTRA:                  -0.940
REMARK UNBOUND:                -0.804
REMARK  Name = 
REMARK  5 active torsions:
REMARK  status: ('A' for Active; 'I' for Inactive)
REMARK    1  A    between atoms: C_2  and  C_5
REMARK    2  A    between atoms: C_9  and  C_10
REMARK    3  A    between atoms: C_14  and  C_15
REMARK    4  A    between atoms: C_15  and  O_16
REMARK    5  A    between atoms: O_16  and  C_17
REMARK                            x       y       z     vdW  Elec       q    Type
REMARK                         _______ _______ _______ _____ _____    ______ ____
ROOT
ATOM      1  C   UNL     1      45.692   5.921  12.256  0.00  0.00    +0.000 A 
ATOM      2  C   UNL     1      46.294   5.247  13.318  0.00  0.00    +0.000 A 
ATOM      3  N   UNL     1      46.262   3.901  13.506  0.00  0.00    +0.000 NA
ATOM      4  C   UNL     1      45.603   3.172  12.580  0.00  0.00    +0.000 A 
ATOM      5  C   UNL     1      44.958   3.721  11.481  0.00  0.00    +0.000 A 
ATOM      6  C   UNL     1      45.030   5.111  11.318  0.00  0.00    +0.000 A 
ENDROOT
BRANCH   1  11
ATOM      7  C   UNL     1      44.650   9.344  11.436  0.00  0.00    +0.000 A 
ATOM      8  C   UNL     1      45.699  10.138  11.902  0.00  0.00    +0.000 A 
ATOM      9  C   UNL     1      46.801   9.524  12.483  0.00  0.00    +0.000 A 
ATOM     10  C   UNL     1      46.826   8.138  12.599  0.00  0.00    +0.000 A 
ATOM     11  C   UNL     1      45.746   7.388  12.135  0.00  0.00    +0.000 A 
ATOM     12  N   UNL     1      44.678   7.981  11.544  0.00  0.00    +0.000 NA
BRANCH   7  14
ATOM     13  F   UNL     1      43.692  10.507   9.548  0.00  0.00    +0.000 F 
ATOM     14  C   UNL     1      43.436  10.009  10.797  0.00  0.00    +0.000 C 
ATOM     15  F   UNL     1      42.965  11.068  11.514  0.00  0.00    +0.000 F 
ATOM     16  F   UNL     1      42.383   9.159  10.635  0.00  0.00    +0.000 F 
ENDBRANCH   7  14
ENDBRANCH   1  11
BRANCH   5  17
ATOM     17  C   UNL     1      44.208   2.860  10.508  0.00  0.00    +0.000 C 
BRANCH  17  18
ATOM     18  O   UNL     1      44.314   3.417   9.200  0.00  0.00    +0.000 OA
BRANCH  18  19
ATOM     19  C   UNL     1      45.359   2.973   8.433  0.00  0.00    +0.000 A 
ATOM     20  C   UNL     1      46.202   3.774   7.654  0.00  0.00    +0.000 A 
ATOM     21  C   UNL     1      47.239   3.198   6.915  0.00  0.00    +0.000 A 
ATOM     22  C   UNL     1      47.440   1.820   6.948  0.00  0.00    +0.000 A 
ATOM     23  C   UNL     1      46.601   1.021   7.720  0.00  0.00    +0.000 A 
ATOM     24 CL   UNL     1      46.850  -0.681   7.760  0.00  0.00    +0.000 Cl
ATOM     25  C   UNL     1      45.564   1.590   8.459  0.00  0.00    +0.000 A 
ENDBRANCH  18  19
ENDBRANCH  17  18
ENDBRANCH   5  17
TORSDOF 5
ENDMDL
MODEL 3
REMARK VINA RESULT:    -8.134      2.607      3.307
REMARK INTER + INTRA:         -11.315
REMARK INTER:                 -10.371
REMARK INTRA:                  -0.944
REMARK UNBOUND:                -0.804
REMARK  Name = 
REMARK  5 active torsions:
REMARK  status: ('A' for Active; 'I' for Inactive)
REMARK    1  A    between atoms: C_2  and  C_5
REMARK    2  A    between atoms: C_9  and  C_10
REMARK    3  A    between atoms: C_14  and  C_15
REMARK    4  A    between atoms: C_15  and  O_16
REMARK    5  A    between atoms: O_16  and  C_17
REMARK                            x       y       z     vdW  Elec       q    Type
REMARK                         _______ _______ _______ _____ _____    ______ ____
ROOT
ATOM      1  C   UNL     1      47.055   5.781  12.690  0.00  0.00    +0.000 A 
ATOM      2  C   UNL     1      46.855   4.832  13.692  0.00  0.00    +0.000 A 
ATOM      3  N   UNL     1      45.846   3.921  13.713  0.00  0.00    +0.000 NA
ATOM      4  C   UNL     1      44.987   3.939  12.674  0.00  0.00    +0.000 A 
ATOM      5  C   UNL     1      45.071   4.835  11.617  0.00  0.00    +0.000 A 
ATOM      6  C   UNL     1      46.136   5.746  11.628  0.00  0.00    +0.000 A 
ENDROOT
BRANCH   1  11
ATOM      7  C   UNL     1      49.977   7.592  13.979  0.00  0.00    +0.000 A 
ATOM      8  C   UNL     1      50.290   8.494  12.962  0.00  0.00    +0.000 A 
ATOM      9  C   UNL     1      49.497   8.527  11.823  0.00  0.00    +0.000 A 
ATOM     10  C   UNL     1      48.421   7.653  11.717  0.00  0.00    +0.000 A 
ATOM     11  C   UNL     1      48.156   6.756  12.751  0.00  0.00    +0.000 A 
ATOM     12  N   UNL     1      48.914   6.736  13.877  0.00  0.00    +0.000 NA
BRANCH   7  14
ATOM     13  F   UNL     1      50.817   8.717  15.943  0.00  0.00    +0.000 F 
ATOM     14  C   UNL     1      50.841   7.548  15.234  0.00  0.00    +0.000 C 
ATOM     15  F   UNL     1      52.158   7.316  14.969  0.00  0.00    +0.000 F 
ATOM     16  F   UNL     1      50.455   6.584  16.118  0.00  0.00    +0.000 F 
ENDBRANCH   7  14
ENDBRANCH   1  11
BRANCH   5  17
ATOM     17  C   UNL     1      44.060   4.830  10.508  0.00  0.00    +0.000 C 
BRANCH  17  18
ATOM     18  O   UNL     1      44.030   3.542   9.898  0.00  0.00    +0.000 OA
BRANCH  18  19
ATOM     19  C   UNL     1      45.007   3.285   8.972  0.00  0.00    +0.000 A 
ATOM     20  C   UNL     1      45.661   4.240   8.186  0.00  0.00    +0.000 A 
ATOM     21  C   UNL     1      46.647   3.850   7.275  0.00  0.00    +0.000 A 
ATOM     22  C   UNL     1      46.984   2.504   7.142  0.00  0.00    +0.000 A 
ATOM     23  C   UNL     1      46.332   1.553   7.922  0.00  0.00    +0.000 A 
ATOM     24 CL   UNL     1      46.749  -0.108   7.759  0.00  0.00    +0.000 Cl
ATOM     25  C   UNL     1      45.348   1.937   8.833  0.00  0.00    +0.000 A 
ENDBRANCH  18  19
ENDBRANCH  17  18
ENDBRANCH   5  17
TORSDOF 5
ENDMDL
MODEL 4
REMARK VINA RESULT:    -8.088      3.633      4.498
REMARK INTER + INTRA:         -11.256
REMARK INTER:                 -10.431
REMARK INTRA:                  -0.826
REMARK UNBOUND:                -0.804
REMARK  Name = 
REMARK  5 active torsions:
REMARK  status: ('A' for Active; 'I' for Inactive)
REMARK    1  A    between atoms: C_2  and  C_5
REMARK    2  A    between atoms: C_9  and  C_10
REMARK    3  A    between atoms: C_14  and  C_15
REMARK    4  A    between atoms: C_15  and  O_16
REMARK    5  A    between atoms: O_16  and  C_17
REMARK                            x       y       z     vdW  Elec       q    Type
REMARK                         _______ _______ _______ _____ _____    ______ ____
ROOT
ATOM      1  C   UNL     1      46.419   6.274  12.306  0.00  0.00    +0.000 A 
ATOM      2  C   UNL     1      46.586   5.371  13.356  0.00  0.00    +0.000 A 
ATOM      3  N   UNL     1      45.878   4.222  13.516  0.00  0.00    +0.000 NA
ATOM      4  C   UNL     1      44.953   3.939  12.575  0.00  0.00    +0.000 A 
ATOM      5  C   UNL     1      44.686   4.756  11.485  0.00  0.00    +0.000 A 
ATOM      6  C   UNL     1      45.451   5.922  11.350  0.00  0.00    +0.000 A 
ENDROOT
BRANCH   1  11
ATOM      7  C   UNL     1      49.289   8.491  11.740  0.00  0.00    +0.000 A 
ATOM      8  C   UNL     1      48.775   9.771  11.952  0.00  0.00    +0.000 A 
ATOM      9  C   UNL     1      47.443   9.909  12.320  0.00  0.00    +0.000 A 
ATOM     10  C   UNL     1      46.652   8.772  12.454  0.00  0.00    +0.000 A 
ATOM     11  C   UNL     1      47.206   7.515  12.215  0.00  0.00    +0.000 A 
ATOM     12  N   UNL     1      48.513   7.373  11.879  0.00  0.00    +0.000 NA
BRANCH   7  14
ATOM     13  F   UNL     1      51.257   9.430  10.701  0.00  0.00    +0.000 F 
ATOM     14  C   UNL     1      50.751   8.329  11.337  0.00  0.00    +0.000 C 
ATOM     15  F   UNL     1      50.958   7.292  10.477  0.00  0.00    +0.000 F 
ATOM     16  F   UNL     1      51.579   8.115  12.398  0.00  0.00    +0.000 F 
ENDBRANCH   7  14
ENDBRANCH   1  11
BRANCH   5  17
ATOM     17  C   UNL     1      43.617   4.405  10.492  0.00  0.00    +0.000 C 
BRANCH  17  18
ATOM     18  O   UNL     1      43.835   3.083  10.005  0.00  0.00    +0.000 OA
BRANCH  18  19
ATOM     19  C   UNL     1      44.799   2.941   9.042  0.00  0.00    +0.000 A 
ATOM     20  C   UNL     1      45.321   3.968   8.249  0.00  0.00    +0.000 A 
ATOM     21  C   UNL     1      46.309   3.694   7.298  0.00  0.00    +0.000 A 
ATOM     22  C   UNL     1      46.779   2.393   7.132  0.00  0.00    +0.000 A 
ATOM     23  C   UNL     1      46.257   1.369   7.919  0.00  0.00    +0.000 A 
ATOM     24 CL   UNL     1      46.838  -0.238   7.714  0.00  0.00    +0.000 Cl
ATOM     25  C   UNL     1      45.272   1.637   8.869  0.00  0.00    +0.000 A 
ENDBRANCH  18  19
ENDBRANCH  17  18
ENDBRANCH   5  17
TORSDOF 5
ENDMDL
MODEL 5
REMARK VINA RESULT:    -8.026      4.112      4.897
REMARK INTER + INTRA:         -11.175
REMARK INTER:                 -10.323
REMARK INTRA:                  -0.852
REMARK UNBOUND:                -0.804
REMARK  Name = 
REMARK  5 active torsions:
REMARK  status: ('A' for Active; 'I' for Inactive)
REMARK    1  A    between atoms: C_2  and  C_5
REMARK    2  A    between atoms: C_9  and  C_10
REMARK    3  A    between atoms: C_14  and  C_15
REMARK    4  A    between atoms: C_15  and  O_16
REMARK    5  A    between atoms: O_16  and  C_17
REMARK                            x       y       z     vdW  Elec       q    Type
REMARK                         _______ _______ _______ _____ _____    ______ ____
ROOT
ATOM      1  C   UNL     1      46.582   6.130  12.348  0.00  0.00    +0.000 A 
ATOM      2  C   UNL     1      46.496   5.335  13.492  0.00  0.00    +0.000 A 
ATOM      3  N   UNL     1      45.602   4.328  13.676  0.00  0.00    +0.000 NA
ATOM      4  C   UNL     1      44.745   4.081  12.663  0.00  0.00    +0.000 A 
ATOM      5  C   UNL     1      44.723   4.801  11.477  0.00  0.00    +0.000 A 
ATOM      6  C   UNL     1      45.673   5.819  11.323  0.00  0.00    +0.000 A 
ENDROOT
BRANCH   1  11
ATOM      7  C   UNL     1      47.907   9.532  11.967  0.00  0.00    +0.000 A 
ATOM      8  C   UNL     1      49.290   9.368  12.062  0.00  0.00    +0.000 A 
ATOM      9  C   UNL     1      49.807   8.091  12.231  0.00  0.00    +0.000 A 
ATOM     10  C   UNL     1      48.936   7.009  12.316  0.00  0.00    +0.000 A 
ATOM     11  C   UNL     1      47.561   7.224  12.233  0.00  0.00    +0.000 A 
ATOM     12  N   UNL     1      47.051   8.467  12.044  0.00  0.00    +0.000 NA
BRANCH   7  14
ATOM     13  F   UNL     1      47.962  11.878  12.540  0.00  0.00    +0.000 F 
ATOM     14  C   UNL     1      47.330  10.931  11.782  0.00  0.00    +0.000 C 
ATOM     15  F   UNL     1      46.013  11.017  12.125  0.00  0.00    +0.000 F 
ATOM     16  F   UNL     1      47.419  11.381  10.498  0.00  0.00    +0.000 F 
ENDBRANCH   7  14
ENDBRANCH   1  11
BRANCH   5  17
ATOM     17  C   UNL     1      43.719   4.502  10.402  0.00  0.00    +0.000 C 
BRANCH  17  18
ATOM     18  O   UNL     1      43.908   3.169   9.932  0.00  0.00    +0.000 OA
BRANCH  18  19
ATOM     19  C   UNL     1      44.879   2.991   8.983  0.00  0.00    +0.000 A 
ATOM     20  C   UNL     1      45.445   3.997   8.191  0.00  0.00    +0.000 A 
ATOM     21  C   UNL     1      46.435   3.686   7.255  0.00  0.00    +0.000 A 
ATOM     22  C   UNL     1      46.865   2.369   7.102  0.00  0.00    +0.000 A 
ATOM     23  C   UNL     1      46.300   1.367   7.887  0.00  0.00    +0.000 A 
ATOM     24 CL   UNL     1      46.831  -0.258   7.698  0.00  0.00    +0.000 Cl
ATOM     25  C   UNL     1      45.312   1.672   8.823  0.00  0.00    +0.000 A 
ENDBRANCH  18  19
ENDBRANCH  17  18
ENDBRANCH   5  17
TORSDOF 5
ENDMDL
MODEL 6
REMARK VINA RESULT:    -7.303      3.705      4.213
REMARK INTER + INTRA:         -10.242
REMARK INTER:                  -9.371
REMARK INTRA:                  -0.871
REMARK UNBOUND:                -0.804
REMARK  Name = 
REMARK  5 active torsions:
REMARK  status: ('A' for Active; 'I' for Inactive)
REMARK    1  A    between atoms: C_2  and  C_5
REMARK    2  A    between atoms: C_9  and  C_10
REMARK    3  A    between atoms: C_14  and  C_15
REMARK    4  A    between atoms: C_15  and  O_16
REMARK    5  A    between atoms: O_16  and  C_17
REMARK                            x       y       z     vdW  Elec       q    Type
REMARK                         _______ _______ _______ _____ _____    ______ ____
ROOT
ATOM      1  C   UNL     1      46.170   6.572  12.385  0.00  0.00    +0.000 A 
ATOM      2  C   UNL     1      45.173   7.478  12.020  0.00  0.00    +0.000 A 
ATOM      3  N   UNL     1      43.971   7.139  11.484  0.00  0.00    +0.000 NA
ATOM      4  C   UNL     1      43.731   5.823  11.307  0.00  0.00    +0.000 A 
ATOM      5  C   UNL     1      44.640   4.823  11.623  0.00  0.00    +0.000 A 
ATOM      6  C   UNL     1      45.860   5.216  12.189  0.00  0.00    +0.000 A 
ENDROOT
BRANCH   1  11
ATOM      7  C   UNL     1      49.267   8.507  12.751  0.00  0.00    +0.000 A 
ATOM      8  C   UNL     1      49.859   7.983  13.901  0.00  0.00    +0.000 A 
ATOM      9  C   UNL     1      49.231   6.939  14.566  0.00  0.00    +0.000 A 
ATOM     10  C   UNL     1      48.023   6.451  14.078  0.00  0.00    +0.000 A 
ATOM     11  C   UNL     1      47.461   7.017  12.936  0.00  0.00    +0.000 A 
ATOM     12  N   UNL     1      48.083   8.022  12.268  0.00  0.00    +0.000 NA
BRANCH   7  14
ATOM     13  F   UNL     1      50.040  10.796  12.763  0.00  0.00    +0.000 F 
ATOM     14  C   UNL     1      49.950   9.654  12.014  0.00  0.00    +0.000 C 
ATOM     15  F   UNL     1      49.298  10.024  10.875  0.00  0.00    +0.000 F 
ATOM     16  F   UNL     1      51.230   9.367  11.643  0.00  0.00    +0.000 F 
ENDBRANCH   7  14
ENDBRANCH   1  11
BRANCH   5  17
ATOM     17  C   UNL     1      44.329   3.377  11.366  0.00  0.00    +0.000 C 
BRANCH  17  18
ATOM     18  O   UNL     1      43.879   3.219  10.023  0.00  0.00    +0.000 OA
BRANCH  18  19
ATOM     19  C   UNL     1      44.851   3.055   9.072  0.00  0.00    +0.000 A 
ATOM     20  C   UNL     1      45.428   4.075   8.306  0.00  0.00    +0.000 A 
ATOM     21  C   UNL     1      46.418   3.778   7.365  0.00  0.00    +0.000 A 
ATOM     22  C   UNL     1      46.837   2.462   7.182  0.00  0.00    +0.000 A 
ATOM     23  C   UNL     1      46.262   1.446   7.940  0.00  0.00    +0.000 A 
ATOM     24 CL   UNL     1      46.780  -0.179   7.713  0.00  0.00    +0.000 Cl
ATOM     25  C   UNL     1      45.274   1.736   8.881  0.00  0.00    +0.000 A 
ENDBRANCH  18  19
ENDBRANCH  17  18
ENDBRANCH   5  17
TORSDOF 5
ENDMDL
MODEL 7
REMARK VINA RESULT:    -7.161      4.535      7.920
REMARK INTER + INTRA:         -10.058
REMARK INTER:                  -9.136
REMARK INTRA:                  -0.922
REMARK UNBOUND:                -0.804
REMARK  Name = 
REMARK  5 active torsions:
REMARK  status: ('A' for Active; 'I' for Inactive)
REMARK    1  A    between atoms: C_2  and  C_5
REMARK    2  A    between atoms: C_9  and  C_10
REMARK    3  A    between atoms: C_14  and  C_15
REMARK    4  A    between atoms: C_15  and  O_16
REMARK    5  A    between atoms: O_16  and  C_17
REMARK                            x       y       z     vdW  Elec       q    Type
REMARK                         _______ _______ _______ _____ _____    ______ ____
ROOT
ATOM      1  C   UNL     1      45.622   6.460  12.089  0.00  0.00    +0.000 A 
ATOM      2  C   UNL     1      44.977   7.693  12.000  0.00  0.00    +0.000 A 
ATOM      3  N   UNL     1      45.419   8.847  12.567  0.00  0.00    +0.000 NA
ATOM      4  C   UNL     1      46.578   8.783  13.255  0.00  0.00    +0.000 A 
ATOM      5  C   UNL     1      47.313   7.618  13.423  0.00  0.00    +0.000 A 
ATOM      6  C   UNL     1      46.829   6.456  12.808  0.00  0.00    +0.000 A 
ENDROOT
BRANCH   1  11
ATOM      7  C   UNL     1      45.065   3.810   9.610  0.00  0.00    +0.000 A 
ATOM      8  C   UNL     1      44.146   2.959  10.225  0.00  0.00    +0.000 A 
ATOM      9  C   UNL     1      43.673   3.281  11.491  0.00  0.00    +0.000 A 
ATOM     10  C   UNL     1      44.135   4.434  12.118  0.00  0.00    +0.000 A 
ATOM     11  C   UNL     1      45.066   5.244  11.471  0.00  0.00    +0.000 A 
ATOM     12  N   UNL     1      45.514   4.947  10.224  0.00  0.00    +0.000 NA
BRANCH   7  14
ATOM     13  F   UNL     1      46.531   4.350   7.768  0.00  0.00    +0.000 F 
ATOM     14  C   UNL     1      45.590   3.466   8.221  0.00  0.00    +0.000 C 
ATOM     15  F   UNL     1      44.617   3.459   7.266  0.00  0.00    +0.000 F 
ATOM     16  F   UNL     1      46.189   2.243   8.163  0.00  0.00    +0.000 F 
ENDBRANCH   7  14
ENDBRANCH   1  11
BRANCH   5  17
ATOM     17  C   UNL     1      48.576   7.604  14.234  0.00  0.00    +0.000 C 
BRANCH  17  18
ATOM     18  O   UNL     1      48.848   6.273  14.666  0.00  0.00    +0.000 OA
BRANCH  18  19
ATOM     19  C   UNL     1      48.553   5.986  15.973  0.00  0.00    +0.000 A 
ATOM     20  C   UNL     1      48.728   6.849  17.061  0.00  0.00    +0.000 A 
ATOM     21  C   UNL     1      48.384   6.437  18.351  0.00  0.00    +0.000 A 
ATOM     22  C   UNL     1      47.865   5.161  18.564  0.00  0.00    +0.000 A 
ATOM     23  C   UNL     1      47.694   4.301  17.483  0.00  0.00    +0.000 A 
ATOM     24 CL   UNL     1      47.052   2.726  17.746  0.00  0.00    +0.000 Cl
ATOM     25  C   UNL     1      48.035   4.707  16.193  0.00  0.00    +0.000 A 
ENDBRANCH  18  19
ENDBRANCH  17  18
ENDBRANCH   5  17
TORSDOF 5
ENDMDL
MODEL 8
REMARK VINA RESULT:    -7.125      1.752      2.290
REMARK INTER + INTRA:         -10.011
REMARK INTER:                  -9.217
REMARK INTRA:                  -0.794
REMARK UNBOUND:                -0.804
REMARK  Name = 
REMARK  5 active torsions:
REMARK  status: ('A' for Active; 'I' for Inactive)
REMARK    1  A    between atoms: C_2  and  C_5
REMARK    2  A    between atoms: C_9  and  C_10
REMARK    3  A    between atoms: C_14  and  C_15
REMARK    4  A    between atoms: C_15  and  O_16
REMARK    5  A    between atoms: O_16  and  C_17
REMARK                            x       y       z     vdW  Elec       q    Type
REMARK                         _______ _______ _______ _____ _____    ______ ____
ROOT
ATOM      1  C   UNL     1      46.705   5.661  13.581  0.00  0.00    +0.000 A 
ATOM      2  C   UNL     1      47.059   6.918  13.092  0.00  0.00    +0.000 A 
ATOM      3  N   UNL     1      46.518   7.507  11.991  0.00  0.00    +0.000 NA
ATOM      4  C   UNL     1      45.559   6.817  11.340  0.00  0.00    +0.000 A 
ATOM      5  C   UNL     1      45.121   5.556  11.721  0.00  0.00    +0.000 A 
ATOM      6  C   UNL     1      45.694   4.994  12.869  0.00  0.00    +0.000 A 
ENDROOT
BRANCH   1  11
ATOM      7  C   UNL     1      48.940   5.358  16.477  0.00  0.00    +0.000 A 
ATOM      8  C   UNL     1      48.613   4.118  17.028  0.00  0.00    +0.000 A 
ATOM      9  C   UNL     1      47.641   3.342  16.411  0.00  0.00    +0.000 A 
ATOM     10  C   UNL     1      47.009   3.824  15.269  0.00  0.00    +0.000 A 
ATOM     11  C   UNL     1      47.357   5.076  14.765  0.00  0.00    +0.000 A 
ATOM     12  N   UNL     1      48.323   5.828  15.350  0.00  0.00    +0.000 NA
BRANCH   7  14
ATOM     13  F   UNL     1      49.574   7.483  17.433  0.00  0.00    +0.000 F 
ATOM     14  C   UNL     1      50.006   6.217  17.148  0.00  0.00    +0.000 C 
ATOM     15  F   UNL     1      51.121   6.383  16.381  0.00  0.00    +0.000 F 
ATOM     16  F   UNL     1      50.435   5.707  18.338  0.00  0.00    +0.000 F 
ENDBRANCH   7  14
ENDBRANCH   1  11
BRANCH   5  17
ATOM     17  C   UNL     1      44.077   4.823  10.931  0.00  0.00    +0.000 C 
BRANCH  17  18
ATOM     18  O   UNL     1      44.529   3.498  10.659  0.00  0.00    +0.000 OA
BRANCH  18  19
ATOM     19  C   UNL     1      45.193   3.313   9.475  0.00  0.00    +0.000 A 
ATOM     20  C   UNL     1      45.529   4.317   8.559  0.00  0.00    +0.000 A 
ATOM     21  C   UNL     1      46.213   3.998   7.382  0.00  0.00    +0.000 A 
ATOM     22  C   UNL     1      46.563   2.677   7.112  0.00  0.00    +0.000 A 
ATOM     23  C   UNL     1      46.226   1.677   8.021  0.00  0.00    +0.000 A 
ATOM     24 CL   UNL     1      46.659   0.046   7.687  0.00  0.00    +0.000 Cl
ATOM     25  C   UNL     1      45.545   1.989   9.197  0.00  0.00    +0.000 A 
ENDBRANCH  18  19
ENDBRANCH  17  18
ENDBRANCH   5  17
TORSDOF 5
ENDMDL
MODEL 9
REMARK VINA RESULT:    -6.939      2.692      3.287
REMARK INTER + INTRA:          -9.771
REMARK INTER:                  -8.950
REMARK INTRA:                  -0.821
REMARK UNBOUND:                -0.804
REMARK  Name = 
REMARK  5 active torsions:
REMARK  status: ('A' for Active; 'I' for Inactive)
REMARK    1  A    between atoms: C_2  and  C_5
REMARK    2  A    between atoms: C_9  and  C_10
REMARK    3  A    between atoms: C_14  and  C_15
REMARK    4  A    between atoms: C_15  and  O_16
REMARK    5  A    between atoms: O_16  and  C_17
REMARK                            x       y       z     vdW  Elec       q    Type
REMARK                         _______ _______ _______ _____ _____    ______ ____
ROOT
ATOM      1  C   UNL     1      45.684   4.764  12.966  0.00  0.00    +0.000 A 
ATOM      2  C   UNL     1      44.444   4.212  13.287  0.00  0.00    +0.000 A 
ATOM      3  N   UNL     1      43.464   3.924  12.389  0.00  0.00    +0.000 NA
ATOM      4  C   UNL     1      43.728   4.187  11.092  0.00  0.00    +0.000 A 
ATOM      5  C   UNL     1      44.919   4.740  10.644  0.00  0.00    +0.000 A 
ATOM      6  C   UNL     1      45.908   5.005  11.600  0.00  0.00    +0.000 A 
ENDROOT
BRANCH   1  11
ATOM      7  C   UNL     1      48.455   6.471  14.665  0.00  0.00    +0.000 A 
ATOM      8  C   UNL     1      48.573   5.795  15.880  0.00  0.00    +0.000 A 
ATOM      9  C   UNL     1      47.730   4.724  16.140  0.00  0.00    +0.000 A 
ATOM     10  C   UNL     1      46.780   4.359  15.192  0.00  0.00    +0.000 A 
ATOM     11  C   UNL     1      46.687   5.074  13.999  0.00  0.00    +0.000 A 
ATOM     12  N   UNL     1      47.526   6.107  13.729  0.00  0.00    +0.000 NA
BRANCH   7  14
ATOM     13  F   UNL     1      48.860   8.849  14.775  0.00  0.00    +0.000 F 
ATOM     14  C   UNL     1      49.377   7.648  14.371  0.00  0.00    +0.000 C 
ATOM     15  F   UNL     1      49.643   7.802  13.042  0.00  0.00    +0.000 F 
ATOM     16  F   UNL     1      50.587   7.551  14.992  0.00  0.00    +0.000 F 
ENDBRANCH   7  14
ENDBRANCH   1  11
BRANCH   5  17
ATOM     17  C   UNL     1      45.138   5.046   9.191  0.00  0.00    +0.000 C 
BRANCH  17  18
ATOM     18  O   UNL     1      44.537   4.027   8.395  0.00  0.00    +0.000 OA
BRANCH  18  19
ATOM     19  C   UNL     1      45.354   2.998   8.006  0.00  0.00    +0.000 A 
ATOM     20  C   UNL     1      45.458   1.752   8.635  0.00  0.00    +0.000 A 
ATOM     21  C   UNL     1      46.330   0.780   8.137  0.00  0.00    +0.000 A 
ATOM     22  C   UNL     1      47.104   1.046   7.010  0.00  0.00    +0.000 A 
ATOM     23  C   UNL     1      47.004   2.287   6.385  0.00  0.00    +0.000 A 
ATOM     24 CL   UNL     1      47.960   2.615   4.992  0.00  0.00    +0.000 Cl
ATOM     25  C   UNL     1      46.135   3.260   6.877  0.00  0.00    +0.000 A 
ENDBRANCH  18  19
ENDBRANCH  17  18
ENDBRANCH   5  17
TORSDOF 5
ENDMDL
