MODEL 1
REMARK VINA RESULT:    -8.861      0.000      0.000
REMARK INTER + INTRA:         -12.985
REMARK INTER:                 -11.969
REMARK INTRA:                  -1.016
REMARK UNBOUND:                -1.016
REMARK  Name = 
REMARK  7 active torsions:
REMARK  status: ('A' for Active; 'I' for Inactive)
REMARK    1  A    between atoms: C_1  and  C_2
REMARK    2  A    between atoms: C_2  and  N_3
REMARK    3  A    between atoms: C_2  and  C_16
REMARK    4  A    between atoms: C_4  and  C_6
REMARK    5  A    between atoms: C_19  and  N_20
REMARK    6  A    between atoms: N_20  and  C_21
REMARK    7  A    between atoms: C_21  and  C_22
REMARK                            x       y       z     vdW  Elec       q    Type
REMARK                         _______ _______ _______ _____ _____    ______ ____
ROOT
ATOM      1  C   UNL     1      45.470   8.882  12.918  0.00  0.00    +0.000 C 
ATOM      2  C   UNL     1      46.500   7.770  12.696  0.00  0.00    +0.000 C 
ENDROOT
BRANCH   2   3
ATOM      3  C   UNL     1      45.942   6.632  11.860  0.00  0.00    +0.000 A 
ATOM      4  C   UNL     1      44.947   5.799  12.385  0.00  0.00    +0.000 A 
ATOM      5  C   UNL     1      44.346   4.810  11.594  0.00  0.00    +0.000 A 
ATOM      6  C   UNL     1      44.702   4.651  10.253  0.00  0.00    +0.000 A 
ATOM      7  C   UNL     1      45.756   5.424   9.756  0.00  0.00    +0.000 A 
ATOM      8  C   UNL     1      46.356   6.416  10.538  0.00  0.00    +0.000 A 
BRANCH   6   9
ATOM      9  N   UNL     1      44.125   3.706   9.395  0.00  0.00    +0.000 N 
ATOM     10  H   UNL     1      44.003   4.104   8.466  0.00  0.00    +0.000 HD
BRANCH   9  11
ATOM     11  C   UNL     1      44.738   2.382   9.341  0.00  0.00    +0.000 C 
BRANCH  11  12
ATOM     12  C   UNL     1      45.648   2.259   8.145  0.00  0.00    +0.000 A 
ATOM     13  C   UNL     1      45.751   3.292   7.208  0.00  0.00    +0.000 A 
ATOM     14  C   UNL     1      46.656   3.190   6.155  0.00  0.00    +0.000 A 
ATOM     15  C   UNL     1      47.444   2.054   6.073  0.00  0.00    +0.000 A 
ATOM     16  N   UNL     1      47.392   1.043   6.965  0.00  0.00    +0.000 NA
ATOM     17  C   UNL     1      46.505   1.172   7.981  0.00  0.00    +0.000 A 
ENDBRANCH  11  12
ENDBRANCH   9  11
ENDBRANCH   6   9
ENDBRANCH   2   3
BRANCH   2  18
ATOM     18  N   UNL     1      47.002   7.257  13.961  0.00  0.00    +0.000 N 
ATOM     19  C   UNL     1      48.241   6.686  14.086  0.00  0.00    +0.000 C 
ATOM     20  O   UNL     1      49.005   6.575  13.132  0.00  0.00    +0.000 OA
ATOM     21  H   UNL     1      46.353   7.230  14.742  0.00  0.00    +0.000 HD
BRANCH  19  22
ATOM     22  C   UNL     1      48.639   6.250  15.434  0.00  0.00    +0.000 A 
ATOM     23  C   UNL     1      49.618   6.963  16.117  0.00  0.00    +0.000 A 
ATOM     24  S   UNL     1      49.966   6.341  17.665  0.00  0.00    +0.000 S 
ATOM     25  C   UNL     1      48.853   5.072  17.465  0.00  0.00    +0.000 A 
ATOM     26  N   UNL     1      48.685   4.132  18.434  0.00  0.00    +0.000 NA
ATOM     27  C   UNL     1      47.840   3.202  18.135  0.00  0.00    +0.000 A 
ATOM     28  N   UNL     1      47.138   3.134  16.959  0.00  0.00    +0.000 N 
ATOM     29  C   UNL     1      47.225   4.096  15.982  0.00  0.00    +0.000 A 
ATOM     30  O   UNL     1      46.502   4.068  14.994  0.00  0.00    +0.000 OA
ATOM     31  C   UNL     1      48.200   5.140  16.245  0.00  0.00    +0.000 A 
ATOM     32  H   UNL     1      46.468   2.397  16.798  0.00  0.00    +0.000 HD
ENDBRANCH  19  22
ENDBRANCH   2  18
TORSDOF 6
ENDMDL
MODEL 2
REMARK VINA RESULT:    -8.291      2.172      2.641
REMARK INTER + INTRA:         -12.215
REMARK INTER:                 -11.047
REMARK INTRA:                  -1.168
REMARK UNBOUND:                -1.016
REMARK  Name = 
REMARK  7 active torsions:
REMARK  status: ('A' for Active; 'I' for Inactive)
REMARK    1  A    between atoms: C_1  and  C_2
REMARK    2  A    between atoms: C_2  and  N_3
REMARK    3  A    between atoms: C_2  and  C_16
REMARK    4  A    between atoms: C_4  and  C_6
REMARK    5  A    between atoms: C_19  and  N_20
REMARK    6  A    between atoms: N_20  and  C_21
REMARK    7  A    between atoms: C_21  and  C_22
REMARK                            x       y       z     vdW  Elec       q    Type
REMARK                         _______ _______ _______ _____ _____    ______ ____
ROOT
ATOM      1  C   UNL     1      47.439   8.592  13.624  0.00  0.00    +0.000 C 
ATOM      2  C   UNL     1      47.864   7.122  13.698  0.00  0.00    +0.000 C 
ENDROOT
BRANCH   2   3
ATOM      3  C   UNL     1      47.011   6.235  12.808  0.00  0.00    +0.000 A 
ATOM      4  C   UNL     1      46.511   5.023  13.299  0.00  0.00    +0.000 A 
ATOM      5  C   UNL     1      45.638   4.241  12.531  0.00  0.00    +0.000 A 
ATOM      6  C   UNL     1      45.218   4.667  11.268  0.00  0.00    +0.000 A 
ATOM      7  C   UNL     1      45.786   5.832  10.744  0.00  0.00    +0.000 A 
ATOM      8  C   UNL     1      46.654   6.619  11.508  0.00  0.00    +0.000 A 
BRANCH   6   9
ATOM      9  N   UNL     1      44.327   3.954  10.457  0.00  0.00    +0.000 N 
ATOM     10  H   UNL     1      43.376   4.053  10.809  0.00  0.00    +0.000 HD
BRANCH   9  11
ATOM     11  C   UNL     1      44.395   4.181   9.016  0.00  0.00    +0.000 C 
BRANCH  11  12
ATOM     12  C   UNL     1      45.332   3.200   8.359  0.00  0.00    +0.000 A 
ATOM     13  C   UNL     1      46.260   3.620   7.401  0.00  0.00    +0.000 A 
ATOM     14  C   UNL     1      47.168   2.710   6.865  0.00  0.00    +0.000 A 
ATOM     15  C   UNL     1      47.128   1.400   7.312  0.00  0.00    +0.000 A 
ATOM     16  N   UNL     1      46.263   0.956   8.247  0.00  0.00    +0.000 NA
ATOM     17  C   UNL     1      45.395   1.865   8.753  0.00  0.00    +0.000 A 
ENDBRANCH  11  12
ENDBRANCH   9  11
ENDBRANCH   6   9
ENDBRANCH   2   3
BRANCH   2  18
ATOM     18  N   UNL     1      47.828   6.632  15.067  0.00  0.00    +0.000 N 
ATOM     19  C   UNL     1      48.964   6.389  15.793  0.00  0.00    +0.000 C 
ATOM     20  O   UNL     1      50.086   6.575  15.328  0.00  0.00    +0.000 OA
ATOM     21  H   UNL     1      46.924   6.361  15.440  0.00  0.00    +0.000 HD
BRANCH  19  22
ATOM     22  C   UNL     1      48.782   5.939  17.182  0.00  0.00    +0.000 A 
ATOM     23  C   UNL     1      49.048   4.614  17.508  0.00  0.00    +0.000 A 
ATOM     24  S   UNL     1      48.796   4.247  19.153  0.00  0.00    +0.000 S 
ATOM     25  C   UNL     1      48.281   5.833  19.484  0.00  0.00    +0.000 A 
ATOM     26  N   UNL     1      47.873   6.188  20.732  0.00  0.00    +0.000 NA
ATOM     27  C   UNL     1      47.468   7.410  20.834  0.00  0.00    +0.000 A 
ATOM     28  N   UNL     1      47.446   8.314  19.802  0.00  0.00    +0.000 N 
ATOM     29  C   UNL     1      47.910   8.019  18.543  0.00  0.00    +0.000 A 
ATOM     30  O   UNL     1      47.983   8.879  17.674  0.00  0.00    +0.000 OA
ATOM     31  C   UNL     1      48.331   6.642  18.360  0.00  0.00    +0.000 A 
ATOM     32  H   UNL     1      47.145   9.265  19.954  0.00  0.00    +0.000 HD
ENDBRANCH  19  22
ENDBRANCH   2  18
TORSDOF 6
ENDMDL
MODEL 3
REMARK VINA RESULT:    -8.276      2.107      2.679
REMARK INTER + INTRA:         -12.194
REMARK INTER:                 -11.116
REMARK INTRA:                  -1.078
REMARK UNBOUND:                -1.016
REMARK  Name = 
REMARK  7 active torsions:
REMARK  status: ('A' for Active; 'I' for Inactive)
REMARK    1  A    between atoms: C_1  and  C_2
REMARK    2  A    between atoms: C_2  and  N_3
REMARK    3  A    between atoms: C_2  and  C_16
REMARK    4  A    between atoms: C_4  and  C_6
REMARK    5  A    between atoms: C_19  and  N_20
REMARK    6  A    between atoms: N_20  and  C_21
REMARK    7  A    between atoms: C_21  and  C_22
REMARK                            x       y       z     vdW  Elec       q    Type
REMARK                         _______ _______ _______ _____ _____    ______ ____
ROOT
ATOM      1  C   UNL     1      48.884   7.831  13.212  0.00  0.00    +0.000 C 
ATOM      2  C   UNL     1      48.451   6.533  13.901  0.00  0.00    +0.000 C 
ENDROOT
BRANCH   2   3
ATOM      3  C   UNL     1      47.272   5.879  13.202  0.00  0.00    +0.000 A 
ATOM      4  C   UNL     1      46.676   6.504  12.100  0.00  0.00    +0.000 A 
ATOM      5  C   UNL     1      45.657   5.870  11.378  0.00  0.00    +0.000 A 
ATOM      6  C   UNL     1      45.231   4.583  11.719  0.00  0.00    +0.000 A 
ATOM      7  C   UNL     1      45.765   3.997  12.870  0.00  0.00    +0.000 A 
ATOM      8  C   UNL     1      46.786   4.623  13.592  0.00  0.00    +0.000 A 
BRANCH   6   9
ATOM      9  N   UNL     1      44.240   3.877  11.027  0.00  0.00    +0.000 N 
ATOM     10  H   UNL     1      43.350   3.949  11.518  0.00  0.00    +0.000 HD
BRANCH   9  11
ATOM     11  C   UNL     1      44.092   4.144   9.599  0.00  0.00    +0.000 C 
BRANCH  11  12
ATOM     12  C   UNL     1      45.047   3.302   8.791  0.00  0.00    +0.000 A 
ATOM     13  C   UNL     1      45.903   3.886   7.851  0.00  0.00    +0.000 A 
ATOM     14  C   UNL     1      46.831   3.099   7.173  0.00  0.00    +0.000 A 
ATOM     15  C   UNL     1      46.883   1.746   7.462  0.00  0.00    +0.000 A 
ATOM     16  N   UNL     1      46.090   1.146   8.374  0.00  0.00    +0.000 NA
ATOM     17  C   UNL     1      45.200   1.936   9.020  0.00  0.00    +0.000 A 
ENDBRANCH  11  12
ENDBRANCH   9  11
ENDBRANCH   6   9
ENDBRANCH   2   3
BRANCH   2  18
ATOM     18  N   UNL     1      48.133   6.761  15.302  0.00  0.00    +0.000 N 
ATOM     19  C   UNL     1      48.981   6.409  16.319  0.00  0.00    +0.000 C 
ATOM     20  O   UNL     1      50.068   5.879  16.104  0.00  0.00    +0.000 OA
ATOM     21  H   UNL     1      47.198   7.093  15.518  0.00  0.00    +0.000 HD
BRANCH  19  22
ATOM     22  C   UNL     1      48.553   6.740  17.687  0.00  0.00    +0.000 A 
ATOM     23  C   UNL     1      48.185   8.046  17.986  0.00  0.00    +0.000 A 
ATOM     24  S   UNL     1      47.708   8.272  19.607  0.00  0.00    +0.000 S 
ATOM     25  C   UNL     1      48.018   6.642  19.981  0.00  0.00    +0.000 A 
ATOM     26  N   UNL     1      47.846   6.172  21.246  0.00  0.00    +0.000 NA
ATOM     27  C   UNL     1      48.157   4.928  21.400  0.00  0.00    +0.000 A 
ATOM     28  N   UNL     1      48.612   4.108  20.399  0.00  0.00    +0.000 N 
ATOM     29  C   UNL     1      48.737   4.521  19.094  0.00  0.00    +0.000 A 
ATOM     30  O   UNL     1      49.037   3.736  18.203  0.00  0.00    +0.000 OA
ATOM     31  C   UNL     1      48.448   5.927  18.875  0.00  0.00    +0.000 A 
ATOM     32  H   UNL     1      48.810   3.134  20.577  0.00  0.00    +0.000 HD
ENDBRANCH  19  22
ENDBRANCH   2  18
TORSDOF 6
ENDMDL
MODEL 4
REMARK VINA RESULT:    -7.549      2.709      3.684
REMARK INTER + INTRA:         -11.212
REMARK INTER:                 -10.038
REMARK INTRA:                  -1.174
REMARK UNBOUND:                -1.016
REMARK  Name = 
REMARK  7 active torsions:
REMARK  status: ('A' for Active; 'I' for Inactive)
REMARK    1  A    between atoms: C_1  and  C_2
REMARK    2  A    between atoms: C_2  and  N_3
REMARK    3  A    between atoms: C_2  and  C_16
REMARK    4  A    between atoms: C_4  and  C_6
REMARK    5  A    between atoms: C_19  and  N_20
REMARK    6  A    between atoms: N_20  and  C_21
REMARK    7  A    between atoms: C_21  and  C_22
REMARK                            x       y       z     vdW  Elec       q    Type
REMARK                         _______ _______ _______ _____ _____    ______ ____
ROOT
ATOM      1  C   UNL     1      49.477   7.764  13.049  0.00  0.00    +0.000 C 
ATOM      2  C   UNL     1      48.696   6.629  13.716  0.00  0.00    +0.000 C 
ENDROOT
BRANCH   2   3
ATOM      3  C   UNL     1      47.493   6.201  12.893  0.00  0.00    +0.000 A 
ATOM      4  C   UNL     1      46.679   5.151  13.334  0.00  0.00    +0.000 A 
ATOM      5  C   UNL     1      45.508   4.810  12.644  0.00  0.00    +0.000 A 
ATOM      6  C   UNL     1      45.105   5.530  11.517  0.00  0.00    +0.000 A 
ATOM      7  C   UNL     1      45.963   6.520  11.028  0.00  0.00    +0.000 A 
ATOM      8  C   UNL     1      47.130   6.868  11.715  0.00  0.00    +0.000 A 
BRANCH   6   9
ATOM      9  N   UNL     1      43.935   5.266  10.795  0.00  0.00    +0.000 N 
ATOM     10  H   UNL     1      43.854   5.910  10.011  0.00  0.00    +0.000 HD
BRANCH   9  11
ATOM     11  C   UNL     1      43.690   3.885  10.387  0.00  0.00    +0.000 C 
BRANCH  11  12
ATOM     12  C   UNL     1      44.701   3.439   9.361  0.00  0.00    +0.000 A 
ATOM     13  C   UNL     1      45.151   2.115   9.321  0.00  0.00    +0.000 A 
ATOM     14  C   UNL     1      46.025   1.707   8.317  0.00  0.00    +0.000 A 
ATOM     15  C   UNL     1      46.418   2.637   7.370  0.00  0.00    +0.000 A 
ATOM     16  N   UNL     1      45.995   3.918   7.359  0.00  0.00    +0.000 NA
ATOM     17  C   UNL     1      45.142   4.285   8.346  0.00  0.00    +0.000 A 
ENDBRANCH  11  12
ENDBRANCH   9  11
ENDBRANCH   6   9
ENDBRANCH   2   3
BRANCH   2  18
ATOM     18  N   UNL     1      48.272   6.998  15.058  0.00  0.00    +0.000 N 
ATOM     19  C   UNL     1      49.028   6.734  16.170  0.00  0.00    +0.000 C 
ATOM     20  O   UNL     1      50.115   6.167  16.097  0.00  0.00    +0.000 OA
ATOM     21  H   UNL     1      47.331   7.364  15.163  0.00  0.00    +0.000 HD
BRANCH  19  22
ATOM     22  C   UNL     1      48.500   7.204  17.460  0.00  0.00    +0.000 A 
ATOM     23  C   UNL     1      48.299   6.289  18.486  0.00  0.00    +0.000 A 
ATOM     24  S   UNL     1      47.690   6.985  19.918  0.00  0.00    +0.000 S 
ATOM     25  C   UNL     1      47.631   8.528  19.207  0.00  0.00    +0.000 A 
ATOM     26  N   UNL     1      47.157   9.598  19.900  0.00  0.00    +0.000 NA
ATOM     27  C   UNL     1      47.128  10.700  19.228  0.00  0.00    +0.000 A 
ATOM     28  N   UNL     1      47.544  10.831  17.927  0.00  0.00    +0.000 N 
ATOM     29  C   UNL     1      48.092   9.795  17.211  0.00  0.00    +0.000 A 
ATOM     30  O   UNL     1      48.558   9.970  16.092  0.00  0.00    +0.000 OA
ATOM     31  C   UNL     1      48.101   8.518  17.904  0.00  0.00    +0.000 A 
ATOM     32  H   UNL     1      47.525  11.729  17.466  0.00  0.00    +0.000 HD
ENDBRANCH  19  22
ENDBRANCH   2  18
TORSDOF 6
ENDMDL
MODEL 5
REMARK VINA RESULT:    -7.548      2.731      4.337
REMARK INTER + INTRA:         -11.211
REMARK INTER:                  -9.971
REMARK INTRA:                  -1.240
REMARK UNBOUND:                -1.016
REMARK  Name = 
REMARK  7 active torsions:
REMARK  status: ('A' for Active; 'I' for Inactive)
REMARK    1  A    between atoms: C_1  and  C_2
REMARK    2  A    between atoms: C_2  and  N_3
REMARK    3  A    between atoms: C_2  and  C_16
REMARK    4  A    between atoms: C_4  and  C_6
REMARK    5  A    between atoms: C_19  and  N_20
REMARK    6  A    between atoms: N_20  and  C_21
REMARK    7  A    between atoms: C_21  and  C_22
REMARK                            x       y       z     vdW  Elec       q    Type
REMARK                         _______ _______ _______ _____ _____    ______ ____
ROOT
ATOM      1  C   UNL     1      47.375   4.540  15.502  0.00  0.00    +0.000 C 
ATOM      2  C   UNL     1      47.168   5.642  14.458  0.00  0.00    +0.000 C 
ENDROOT
BRANCH   2   3
ATOM      3  C   UNL     1      46.463   5.127  13.216  0.00  0.00    +0.000 A 
ATOM      4  C   UNL     1      45.997   3.807  13.170  0.00  0.00    +0.000 A 
ATOM      5  C   UNL     1      45.253   3.345  12.077  0.00  0.00    +0.000 A 
ATOM      6  C   UNL     1      44.929   4.197  11.018  0.00  0.00    +0.000 A 
ATOM      7  C   UNL     1      45.468   5.487  11.024  0.00  0.00    +0.000 A 
ATOM      8  C   UNL     1      46.207   5.956  12.115  0.00  0.00    +0.000 A 
BRANCH   6   9
ATOM      9  N   UNL     1      44.166   3.814   9.908  0.00  0.00    +0.000 N 
ATOM     10  H   UNL     1      43.196   4.096  10.035  0.00  0.00    +0.000 HD
BRANCH   9  11
ATOM     11  C   UNL     1      44.667   4.180   8.586  0.00  0.00    +0.000 C 
BRANCH  11  12
ATOM     12  C   UNL     1      45.586   3.116   8.044  0.00  0.00    +0.000 A 
ATOM     13  C   UNL     1      46.586   3.431   7.118  0.00  0.00    +0.000 A 
ATOM     14  C   UNL     1      47.473   2.447   6.690  0.00  0.00    +0.000 A 
ATOM     15  C   UNL     1      47.342   1.171   7.211  0.00  0.00    +0.000 A 
ATOM     16  N   UNL     1      46.406   0.828   8.120  0.00  0.00    +0.000 NA
ATOM     17  C   UNL     1      45.559   1.806   8.520  0.00  0.00    +0.000 A 
ENDBRANCH  11  12
ENDBRANCH   9  11
ENDBRANCH   6   9
ENDBRANCH   2   3
BRANCH   2  18
ATOM     18  N   UNL     1      48.431   6.263  14.090  0.00  0.00    +0.000 N 
ATOM     19  C   UNL     1      48.996   7.275  14.821  0.00  0.00    +0.000 C 
ATOM     20  O   UNL     1      48.466   7.718  15.836  0.00  0.00    +0.000 OA
ATOM     21  H   UNL     1      48.835   5.999  13.197  0.00  0.00    +0.000 HD
BRANCH  19  22
ATOM     22  C   UNL     1      50.298   7.781  14.360  0.00  0.00    +0.000 A 
ATOM     23  C   UNL     1      51.401   7.681  15.200  0.00  0.00    +0.000 A 
ATOM     24  S   UNL     1      52.837   8.304  14.524  0.00  0.00    +0.000 S 
ATOM     25  C   UNL     1      52.030   8.768  13.101  0.00  0.00    +0.000 A 
ATOM     26  N   UNL     1      52.694   9.407  12.100  0.00  0.00    +0.000 NA
ATOM     27  C   UNL     1      51.952   9.740  11.096  0.00  0.00    +0.000 A 
ATOM     28  N   UNL     1      50.609   9.479  10.997  0.00  0.00    +0.000 N 
ATOM     29  C   UNL     1      49.914   8.778  11.952  0.00  0.00    +0.000 A 
ATOM     30  O   UNL     1      48.742   8.462  11.783  0.00  0.00    +0.000 OA
ATOM     31  C   UNL     1      50.689   8.423  13.128  0.00  0.00    +0.000 A 
ATOM     32  H   UNL     1      50.092   9.739  10.171  0.00  0.00    +0.000 HD
ENDBRANCH  19  22
ENDBRANCH   2  18
TORSDOF 6
ENDMDL
MODEL 6
REMARK VINA RESULT:    -7.533      2.819      4.028
REMARK INTER + INTRA:         -11.190
REMARK INTER:                  -9.905
REMARK INTRA:                  -1.285
REMARK UNBOUND:                -1.016
REMARK  Name = 
REMARK  7 active torsions:
REMARK  status: ('A' for Active; 'I' for Inactive)
REMARK    1  A    between atoms: C_1  and  C_2
REMARK    2  A    between atoms: C_2  and  N_3
REMARK    3  A    between atoms: C_2  and  C_16
REMARK    4  A    between atoms: C_4  and  C_6
REMARK    5  A    between atoms: C_19  and  N_20
REMARK    6  A    between atoms: N_20  and  C_21
REMARK    7  A    between atoms: C_21  and  C_22
REMARK                            x       y       z     vdW  Elec       q    Type
REMARK                         _______ _______ _______ _____ _____    ______ ____
ROOT
ATOM      1  C   UNL     1      47.226   4.832  15.042  0.00  0.00    +0.000 C 
ATOM      2  C   UNL     1      46.856   5.819  13.931  0.00  0.00    +0.000 C 
ENDROOT
BRANCH   2   3
ATOM      3  C   UNL     1      46.229   5.125  12.735  0.00  0.00    +0.000 A 
ATOM      4  C   UNL     1      45.784   3.802  12.846  0.00  0.00    +0.000 A 
ATOM      5  C   UNL     1      45.109   3.179  11.788  0.00  0.00    +0.000 A 
ATOM      6  C   UNL     1      44.835   3.872  10.606  0.00  0.00    +0.000 A 
ATOM      7  C   UNL     1      45.356   5.162  10.464  0.00  0.00    +0.000 A 
ATOM      8  C   UNL     1      46.025   5.791  11.518  0.00  0.00    +0.000 A 
BRANCH   6   9
ATOM      9  N   UNL     1      44.141   3.325   9.519  0.00  0.00    +0.000 N 
ATOM     10  H   UNL     1      44.092   4.001   8.759  0.00  0.00    +0.000 HD
BRANCH   9  11
ATOM     11  C   UNL     1      44.560   2.009   9.046  0.00  0.00    +0.000 C 
BRANCH  11  12
ATOM     12  C   UNL     1      45.656   2.129   8.018  0.00  0.00    +0.000 A 
ATOM     13  C   UNL     1      45.810   3.297   7.263  0.00  0.00    +0.000 A 
ATOM     14  C   UNL     1      46.876   3.415   6.375  0.00  0.00    +0.000 A 
ATOM     15  C   UNL     1      47.769   2.361   6.274  0.00  0.00    +0.000 A 
ATOM     16  N   UNL     1      47.669   1.227   6.997  0.00  0.00    +0.000 NA
ATOM     17  C   UNL     1      46.624   1.141   7.854  0.00  0.00    +0.000 A 
ENDBRANCH  11  12
ENDBRANCH   9  11
ENDBRANCH   6   9
ENDBRANCH   2   3
BRANCH   2  18
ATOM     18  N   UNL     1      48.013   6.592  13.506  0.00  0.00    +0.000 N 
ATOM     19  C   UNL     1      48.026   7.962  13.509  0.00  0.00    +0.000 C 
ATOM     20  O   UNL     1      47.056   8.621  13.875  0.00  0.00    +0.000 OA
ATOM     21  H   UNL     1      48.786   6.081  13.093  0.00  0.00    +0.000 HD
BRANCH  19  22
ATOM     22  C   UNL     1      49.278   8.616  13.098  0.00  0.00    +0.000 A 
ATOM     23  C   UNL     1      49.252   9.544  12.064  0.00  0.00    +0.000 A 
ATOM     24  S   UNL     1      50.777  10.217  11.707  0.00  0.00    +0.000 S 
ATOM     25  C   UNL     1      51.536   9.262  12.892  0.00  0.00    +0.000 A 
ATOM     26  N   UNL     1      52.881   9.327  13.083  0.00  0.00    +0.000 NA
ATOM     27  C   UNL     1      53.332   8.519  13.984  0.00  0.00    +0.000 A 
ATOM     28  N   UNL     1      52.556   7.661  14.721  0.00  0.00    +0.000 N 
ATOM     29  C   UNL     1      51.187   7.611  14.610  0.00  0.00    +0.000 A 
ATOM     30  O   UNL     1      50.512   6.917  15.360  0.00  0.00    +0.000 OA
ATOM     31  C   UNL     1      50.633   8.464  13.574  0.00  0.00    +0.000 A 
ATOM     32  H   UNL     1      52.965   7.076  15.434  0.00  0.00    +0.000 HD
ENDBRANCH  19  22
ENDBRANCH   2  18
TORSDOF 6
ENDMDL
MODEL 7
REMARK VINA RESULT:    -7.226      2.323      3.852
REMARK INTER + INTRA:         -10.776
REMARK INTER:                  -9.647
REMARK INTRA:                  -1.129
REMARK UNBOUND:                -1.016
REMARK  Name = 
REMARK  7 active torsions:
REMARK  status: ('A' for Active; 'I' for Inactive)
REMARK    1  A    between atoms: C_1  and  C_2
REMARK    2  A    between atoms: C_2  and  N_3
REMARK    3  A    between atoms: C_2  and  C_16
REMARK    4  A    between atoms: C_4  and  C_6
REMARK    5  A    between atoms: C_19  and  N_20
REMARK    6  A    between atoms: N_20  and  C_21
REMARK    7  A    between atoms: C_21  and  C_22
REMARK                            x       y       z     vdW  Elec       q    Type
REMARK                         _______ _______ _______ _____ _____    ______ ____
ROOT
ATOM      1  C   UNL     1      47.633   3.402  15.587  0.00  0.00    +0.000 C 
ATOM      2  C   UNL     1      47.124   4.801  15.227  0.00  0.00    +0.000 C 
ENDROOT
BRANCH   2   3
ATOM      3  C   UNL     1      46.651   4.884  13.786  0.00  0.00    +0.000 A 
ATOM      4  C   UNL     1      45.861   3.861  13.247  0.00  0.00    +0.000 A 
ATOM      5  C   UNL     1      45.329   3.968  11.956  0.00  0.00    +0.000 A 
ATOM      6  C   UNL     1      45.544   5.113  11.184  0.00  0.00    +0.000 A 
ATOM      7  C   UNL     1      46.404   6.094  11.689  0.00  0.00    +0.000 A 
ATOM      8  C   UNL     1      46.934   5.995  12.979  0.00  0.00    +0.000 A 
BRANCH   6   9
ATOM      9  N   UNL     1      45.021   5.303   9.899  0.00  0.00    +0.000 N 
ATOM     10  H   UNL     1      45.738   5.676   9.280  0.00  0.00    +0.000 HD
BRANCH   9  11
ATOM     11  C   UNL     1      44.309   4.184   9.289  0.00  0.00    +0.000 C 
BRANCH  11  12
ATOM     12  C   UNL     1      45.258   3.289   8.532  0.00  0.00    +0.000 A 
ATOM     13  C   UNL     1      46.152   3.817   7.595  0.00  0.00    +0.000 A 
ATOM     14  C   UNL     1      47.072   2.983   6.965  0.00  0.00    +0.000 A 
ATOM     15  C   UNL     1      47.079   1.639   7.300  0.00  0.00    +0.000 A 
ATOM     16  N   UNL     1      46.249   1.092   8.211  0.00  0.00    +0.000 NA
ATOM     17  C   UNL     1      45.367   1.928   8.810  0.00  0.00    +0.000 A 
ENDBRANCH  11  12
ENDBRANCH   9  11
ENDBRANCH   6   9
ENDBRANCH   2   3
BRANCH   2  18
ATOM     18  N   UNL     1      48.141   5.812  15.474  0.00  0.00    +0.000 N 
ATOM     19  C   UNL     1      48.485   6.218  16.736  0.00  0.00    +0.000 C 
ATOM     20  O   UNL     1      47.954   5.748  17.738  0.00  0.00    +0.000 OA
ATOM     21  H   UNL     1      48.517   6.299  14.667  0.00  0.00    +0.000 HD
BRANCH  19  22
ATOM     22  C   UNL     1      49.563   7.214  16.843  0.00  0.00    +0.000 A 
ATOM     23  C   UNL     1      50.669   6.936  17.636  0.00  0.00    +0.000 A 
ATOM     24  S   UNL     1      51.832   8.182  17.654  0.00  0.00    +0.000 S 
ATOM     25  C   UNL     1      50.881   9.158  16.637  0.00  0.00    +0.000 A 
ATOM     26  N   UNL     1      51.293  10.406  16.283  0.00  0.00    +0.000 NA
ATOM     27  C   UNL     1      50.456  11.054  15.543  0.00  0.00    +0.000 A 
ATOM     28  N   UNL     1      49.250  10.561  15.113  0.00  0.00    +0.000 N 
ATOM     29  C   UNL     1      48.825   9.284  15.389  0.00  0.00    +0.000 A 
ATOM     30  O   UNL     1      47.797   8.834  14.897  0.00  0.00    +0.000 OA
ATOM     31  C   UNL     1      49.706   8.528  16.262  0.00  0.00    +0.000 A 
ATOM     32  H   UNL     1      48.654  11.107  14.510  0.00  0.00    +0.000 HD
ENDBRANCH  19  22
ENDBRANCH   2  18
TORSDOF 6
ENDMDL
MODEL 8
REMARK VINA RESULT:    -7.183      3.272      4.883
REMARK INTER + INTRA:         -10.717
REMARK INTER:                  -9.619
REMARK INTRA:                  -1.099
REMARK UNBOUND:                -1.016
REMARK  Name = 
REMARK  7 active torsions:
REMARK  status: ('A' for Active; 'I' for Inactive)
REMARK    1  A    between atoms: C_1  and  C_2
REMARK    2  A    between atoms: C_2  and  N_3
REMARK    3  A    between atoms: C_2  and  C_16
REMARK    4  A    between atoms: C_4  and  C_6
REMARK    5  A    between atoms: C_19  and  N_20
REMARK    6  A    between atoms: N_20  and  C_21
REMARK    7  A    between atoms: C_21  and  C_22
REMARK                            x       y       z     vdW  Elec       q    Type
REMARK                         _______ _______ _______ _____ _____    ______ ____
ROOT
ATOM      1  C   UNL     1      47.169   3.390  17.437  0.00  0.00    +0.000 C 
ATOM      2  C   UNL     1      48.057   4.543  16.961  0.00  0.00    +0.000 C 
ENDROOT
BRANCH   2   3
ATOM      3  C   UNL     1      47.726   4.971  15.542  0.00  0.00    +0.000 A 
ATOM      4  C   UNL     1      46.820   4.226  14.778  0.00  0.00    +0.000 A 
ATOM      5  C   UNL     1      46.422   4.661  13.507  0.00  0.00    +0.000 A 
ATOM      6  C   UNL     1      46.895   5.866  12.982  0.00  0.00    +0.000 A 
ATOM      7  C   UNL     1      47.866   6.564  13.707  0.00  0.00    +0.000 A 
ATOM      8  C   UNL     1      48.263   6.138  14.979  0.00  0.00    +0.000 A 
BRANCH   6   9
ATOM      9  N   UNL     1      46.521   6.378  11.733  0.00  0.00    +0.000 N 
ATOM     10  H   UNL     1      47.144   6.027  11.009  0.00  0.00    +0.000 HD
BRANCH   9  11
ATOM     11  C   UNL     1      45.118   6.254  11.346  0.00  0.00    +0.000 C 
BRANCH  11  12
ATOM     12  C   UNL     1      44.920   5.095  10.403  0.00  0.00    +0.000 A 
ATOM     13  C   UNL     1      45.608   5.031   9.186  0.00  0.00    +0.000 A 
ATOM     14  C   UNL     1      45.469   3.914   8.366  0.00  0.00    +0.000 A 
ATOM     15  C   UNL     1      44.649   2.883   8.793  0.00  0.00    +0.000 A 
ATOM     16  N   UNL     1      43.983   2.895   9.966  0.00  0.00    +0.000 NA
ATOM     17  C   UNL     1      44.140   3.993  10.744  0.00  0.00    +0.000 A 
ENDBRANCH  11  12
ENDBRANCH   9  11
ENDBRANCH   6   9
ENDBRANCH   2   3
BRANCH   2  18
ATOM     18  N   UNL     1      49.467   4.198  17.059  0.00  0.00    +0.000 N 
ATOM     19  C   UNL     1      50.201   4.410  18.196  0.00  0.00    +0.000 C 
ATOM     20  O   UNL     1      49.707   4.906  19.205  0.00  0.00    +0.000 OA
ATOM     21  H   UNL     1      49.930   3.893  16.209  0.00  0.00    +0.000 HD
BRANCH  19  22
ATOM     22  C   UNL     1      51.605   3.971  18.173  0.00  0.00    +0.000 A 
ATOM     23  C   UNL     1      52.606   4.880  18.492  0.00  0.00    +0.000 A 
ATOM     24  S   UNL     1      54.178   4.222  18.426  0.00  0.00    +0.000 S 
ATOM     25  C   UNL     1      53.582   2.710  17.926  0.00  0.00    +0.000 A 
ATOM     26  N   UNL     1      54.430   1.683  17.652  0.00  0.00    +0.000 NA
ATOM     27  C   UNL     1      53.848   0.605  17.243  0.00  0.00    +0.000 A 
ATOM     28  N   UNL     1      52.492   0.458  17.095  0.00  0.00    +0.000 N 
ATOM     29  C   UNL     1      51.595   1.445  17.424  0.00  0.00    +0.000 A 
ATOM     30  O   UNL     1      50.387   1.246  17.389  0.00  0.00    +0.000 OA
ATOM     31  C   UNL     1      52.199   2.698  17.843  0.00  0.00    +0.000 A 
ATOM     32  H   UNL     1      52.096  -0.421  16.799  0.00  0.00    +0.000 HD
ENDBRANCH  19  22
ENDBRANCH   2  18
TORSDOF 6
ENDMDL
MODEL 9
REMARK VINA RESULT:    -7.050      4.177      9.879
REMARK INTER + INTRA:         -10.538
REMARK INTER:                  -9.245
REMARK INTRA:                  -1.293
REMARK UNBOUND:                -1.016
REMARK  Name = 
REMARK  7 active torsions:
REMARK  status: ('A' for Active; 'I' for Inactive)
REMARK    1  A    between atoms: C_1  and  C_2
REMARK    2  A    between atoms: C_2  and  N_3
REMARK    3  A    between atoms: C_2  and  C_16
REMARK    4  A    between atoms: C_4  and  C_6
REMARK    5  A    between atoms: C_19  and  N_20
REMARK    6  A    between atoms: N_20  and  C_21
REMARK    7  A    between atoms: C_21  and  C_22
REMARK                            x       y       z     vdW  Elec       q    Type
REMARK                         _______ _______ _______ _____ _____    ______ ____
ROOT
ATOM      1  C   UNL     1      47.883   3.216  16.825  0.00  0.00    +0.000 C 
ATOM      2  C   UNL     1      48.060   4.652  16.323  0.00  0.00    +0.000 C 
ENDROOT
BRANCH   2   3
ATOM      3  C   UNL     1      47.965   5.667  17.449  0.00  0.00    +0.000 A 
ATOM      4  C   UNL     1      47.187   5.390  18.579  0.00  0.00    +0.000 A 
ATOM      5  C   UNL     1      47.169   6.265  19.673  0.00  0.00    +0.000 A 
ATOM      6  C   UNL     1      47.952   7.422  19.677  0.00  0.00    +0.000 A 
ATOM      7  C   UNL     1      48.659   7.742  18.514  0.00  0.00    +0.000 A 
ATOM      8  C   UNL     1      48.685   6.869  17.421  0.00  0.00    +0.000 A 
BRANCH   6   9
ATOM      9  N   UNL     1      48.007   8.328  20.743  0.00  0.00    +0.000 N 
ATOM     10  H   UNL     1      48.600   7.960  21.485  0.00  0.00    +0.000 HD
BRANCH   9  11
ATOM     11  C   UNL     1      48.330   9.718  20.433  0.00  0.00    +0.000 C 
BRANCH  11  12
ATOM     12  C   UNL     1      47.079  10.555  20.346  0.00  0.00    +0.000 A 
ATOM     13  C   UNL     1      45.944  10.234  21.100  0.00  0.00    +0.000 A 
ATOM     14  C   UNL     1      44.827  11.065  21.063  0.00  0.00    +0.000 A 
ATOM     15  C   UNL     1      44.880  12.205  20.278  0.00  0.00    +0.000 A 
ATOM     16  N   UNL     1      45.959  12.561  19.551  0.00  0.00    +0.000 NA
ATOM     17  C   UNL     1      47.032  11.736  19.609  0.00  0.00    +0.000 A 
ENDBRANCH  11  12
ENDBRANCH   9  11
ENDBRANCH   6   9
ENDBRANCH   2   3
BRANCH   2  18
ATOM     18  N   UNL     1      47.093   4.970  15.285  0.00  0.00    +0.000 N 
ATOM     19  C   UNL     1      47.436   5.629  14.133  0.00  0.00    +0.000 C 
ATOM     20  O   UNL     1      48.589   5.988  13.909  0.00  0.00    +0.000 OA
ATOM     21  H   UNL     1      46.115   4.788  15.489  0.00  0.00    +0.000 HD
BRANCH  19  22
ATOM     22  C   UNL     1      46.366   5.845  13.147  0.00  0.00    +0.000 A 
ATOM     23  C   UNL     1      46.049   7.142  12.763  0.00  0.00    +0.000 A 
ATOM     24  S   UNL     1      44.795   7.230  11.611  0.00  0.00    +0.000 S 
ATOM     25  C   UNL     1      44.600   5.541  11.615  0.00  0.00    +0.000 A 
ATOM     26  N   UNL     1      43.641   4.948  10.854  0.00  0.00    +0.000 NA
ATOM     27  C   UNL     1      43.574   3.665  10.983  0.00  0.00    +0.000 A 
ATOM     28  N   UNL     1      44.390   2.920  11.796  0.00  0.00    +0.000 N 
ATOM     29  C   UNL     1      45.415   3.467  12.529  0.00  0.00    +0.000 A 
ATOM     30  O   UNL     1      46.197   2.763  13.156  0.00  0.00    +0.000 OA
ATOM     31  C   UNL     1      45.502   4.915  12.459  0.00  0.00    +0.000 A 
ATOM     32  H   UNL     1      44.308   1.914  11.830  0.00  0.00    +0.000 HD
ENDBRANCH  19  22
ENDBRANCH   2  18
TORSDOF 6
ENDMDL
