MODEL 1
REMARK VINA RESULT:    -8.460      0.000      0.000
REMARK INTER + INTRA:         -11.685
REMARK INTER:                 -10.932
REMARK INTRA:                  -0.752
REMARK UNBOUND:                -0.752
REMARK  Name = 
REMARK  6 active torsions:
REMARK  status: ('A' for Active; 'I' for Inactive)
REMARK    1  A    between atoms: C_1  and  C_2
REMARK    2  A    between atoms: C_6  and  C_7
REMARK    3  A    between atoms: C_7  and  C_8
REMARK    4  A    between atoms: C_11  and  C_12
REMARK    5  A    between atoms: C_12  and  N_13
REMARK    6  A    between atoms: C_14  and  C_16
REMARK                            x       y       z     vdW  Elec       q    Type
REMARK                         _______ _______ _______ _____ _____    ______ ____
ROOT
ATOM      1  C   UNL     1      46.668   7.921  13.218  0.00  0.00    +0.000 C 
ENDROOT
BRANCH   1   5
ATOM      2  C   UNL     1      44.979   4.991  10.511  0.00  0.00    +0.000 A 
ATOM      3  C   UNL     1      44.449   5.160  11.797  0.00  0.00    +0.000 A 
ATOM      4  C   UNL     1      45.009   6.087  12.682  0.00  0.00    +0.000 A 
ATOM      5  C   UNL     1      46.095   6.882  12.290  0.00  0.00    +0.000 A 
ATOM      6  C   UNL     1      46.652   6.681  11.021  0.00  0.00    +0.000 A 
ATOM      7  C   UNL     1      46.099   5.747  10.141  0.00  0.00    +0.000 A 
BRANCH   2   8
ATOM      8  C   UNL     1      44.325   4.039   9.531  0.00  0.00    +0.000 C 
BRANCH   8  14
ATOM      9  C   UNL     1      46.764   0.002   7.762  0.00  0.00    +0.000 C 
ATOM     10  C   UNL     1      46.434   1.460   7.681  0.00  0.00    +0.000 A 
ATOM     11  C   UNL     1      46.967   2.273   6.685  0.00  0.00    +0.000 A 
ATOM     12  C   UNL     1      46.623   3.615   6.671  0.00  0.00    +0.000 A 
ATOM     13  N   UNL     1      45.792   4.193   7.572  0.00  0.00    +0.000 NA
ATOM     14  C   UNL     1      45.278   3.398   8.545  0.00  0.00    +0.000 A 
ATOM     15  C   UNL     1      45.569   2.035   8.619  0.00  0.00    +0.000 A 
ENDBRANCH   8  14
ENDBRANCH   2   8
ENDBRANCH   1   5
BRANCH   1  16
ATOM     16  N   UNL     1      47.223   7.322  14.402  0.00  0.00    +0.000 N 
ATOM     17  C   UNL     1      48.492   6.796  14.405  0.00  0.00    +0.000 C 
ATOM     18  O   UNL     1      49.224   6.849  13.423  0.00  0.00    +0.000 OA
ATOM     19  H   UNL     1      46.571   7.061  15.134  0.00  0.00    +0.000 HD
BRANCH  17  20
ATOM     20  C   UNL     1      48.950   6.224  15.677  0.00  0.00    +0.000 A 
ATOM     21  C   UNL     1      50.033   6.788  16.338  0.00  0.00    +0.000 A 
ATOM     22  S   UNL     1      50.375   6.049  17.837  0.00  0.00    +0.000 S 
ATOM     23  C   UNL     1      49.124   4.916  17.627  0.00  0.00    +0.000 A 
ATOM     24  N   UNL     1      48.879   3.959  18.564  0.00  0.00    +0.000 NA
ATOM     25  C   UNL     1      47.921   3.148  18.260  0.00  0.00    +0.000 A 
ATOM     26  N   UNL     1      47.190   3.203  17.102  0.00  0.00    +0.000 N 
ATOM     27  C   UNL     1      47.387   4.162  16.141  0.00  0.00    +0.000 A 
ATOM     28  O   UNL     1      46.691   4.203  15.131  0.00  0.00    +0.000 OA
ATOM     29  C   UNL     1      48.450   5.101  16.434  0.00  0.00    +0.000 A 
ATOM     30  H   UNL     1      46.452   2.537  16.924  0.00  0.00    +0.000 HD
ENDBRANCH  17  20
ENDBRANCH   1  16
TORSDOF 5
ENDMDL
MODEL 2
REMARK VINA RESULT:    -8.233      1.109      1.634
REMARK INTER + INTRA:         -11.391
REMARK INTER:                 -10.418
REMARK INTRA:                  -0.973
REMARK UNBOUND:                -0.752
REMARK  Name = 
REMARK  6 active torsions:
REMARK  status: ('A' for Active; 'I' for Inactive)
REMARK    1  A    between atoms: C_1  and  C_2
REMARK    2  A    between atoms: C_6  and  C_7
REMARK    3  A    between atoms: C_7  and  C_8
REMARK    4  A    between atoms: C_11  and  C_12
REMARK    5  A    between atoms: C_12  and  N_13
REMARK    6  A    between atoms: C_14  and  C_16
REMARK                            x       y       z     vdW  Elec       q    Type
REMARK                         _______ _______ _______ _____ _____    ______ ____
ROOT
ATOM      1  C   UNL     1      47.326   8.162  13.592  0.00  0.00    +0.000 C 
ENDROOT
BRANCH   1   5
ATOM      2  C   UNL     1      44.571   5.845  11.183  0.00  0.00    +0.000 A 
ATOM      3  C   UNL     1      44.315   7.196  11.454  0.00  0.00    +0.000 A 
ATOM      4  C   UNL     1      45.190   7.940  12.253  0.00  0.00    +0.000 A 
ATOM      5  C   UNL     1      46.351   7.354  12.777  0.00  0.00    +0.000 A 
ATOM      6  C   UNL     1      46.581   5.992  12.543  0.00  0.00    +0.000 A 
ATOM      7  C   UNL     1      45.702   5.247  11.754  0.00  0.00    +0.000 A 
BRANCH   2   8
ATOM      8  C   UNL     1      43.661   5.063  10.258  0.00  0.00    +0.000 C 
BRANCH   8  14
ATOM      9  C   UNL     1      46.785   3.550   6.608  0.00  0.00    +0.000 C 
ATOM     10  C   UNL     1      45.862   3.233   7.743  0.00  0.00    +0.000 A 
ATOM     11  C   UNL     1      45.621   1.921   8.141  0.00  0.00    +0.000 A 
ATOM     12  C   UNL     1      44.752   1.698   9.197  0.00  0.00    +0.000 A 
ATOM     13  N   UNL     1      44.115   2.684   9.874  0.00  0.00    +0.000 NA
ATOM     14  C   UNL     1      44.348   3.962   9.480  0.00  0.00    +0.000 A 
ATOM     15  C   UNL     1      45.218   4.268   8.433  0.00  0.00    +0.000 A 
ENDBRANCH   8  14
ENDBRANCH   2   8
ENDBRANCH   1   5
BRANCH   1  16
ATOM     16  N   UNL     1      47.697   7.477  14.801  0.00  0.00    +0.000 N 
ATOM     17  C   UNL     1      48.929   6.887  14.934  0.00  0.00    +0.000 C 
ATOM     18  O   UNL     1      49.784   6.950  14.057  0.00  0.00    +0.000 OA
ATOM     19  H   UNL     1      46.945   7.215  15.429  0.00  0.00    +0.000 HD
BRANCH  17  20
ATOM     20  C   UNL     1      49.194   6.230  16.221  0.00  0.00    +0.000 A 
ATOM     21  C   UNL     1      50.177   6.732  17.063  0.00  0.00    +0.000 A 
ATOM     22  S   UNL     1      50.292   5.896  18.546  0.00  0.00    +0.000 S 
ATOM     23  C   UNL     1      49.073   4.802  18.089  0.00  0.00    +0.000 A 
ATOM     24  N   UNL     1      48.686   3.794  18.919  0.00  0.00    +0.000 NA
ATOM     25  C   UNL     1      47.774   3.022  18.430  0.00  0.00    +0.000 A 
ATOM     26  N   UNL     1      47.218   3.161  17.185  0.00  0.00    +0.000 N 
ATOM     27  C   UNL     1      47.560   4.173  16.325  0.00  0.00    +0.000 A 
ATOM     28  O   UNL     1      47.017   4.289  15.230  0.00  0.00    +0.000 OA
ATOM     29  C   UNL     1      48.580   5.072  16.825  0.00  0.00    +0.000 A 
ATOM     30  H   UNL     1      46.506   2.522  16.862  0.00  0.00    +0.000 HD
ENDBRANCH  17  20
ENDBRANCH   1  16
TORSDOF 5
ENDMDL
MODEL 3
REMARK VINA RESULT:    -7.999      1.937      3.510
REMARK INTER + INTRA:         -11.089
REMARK INTER:                 -10.189
REMARK INTRA:                  -0.900
REMARK UNBOUND:                -0.752
REMARK  Name = 
REMARK  6 active torsions:
REMARK  status: ('A' for Active; 'I' for Inactive)
REMARK    1  A    between atoms: C_1  and  C_2
REMARK    2  A    between atoms: C_6  and  C_7
REMARK    3  A    between atoms: C_7  and  C_8
REMARK    4  A    between atoms: C_11  and  C_12
REMARK    5  A    between atoms: C_12  and  N_13
REMARK    6  A    between atoms: C_14  and  C_16
REMARK                            x       y       z     vdW  Elec       q    Type
REMARK                         _______ _______ _______ _____ _____    ______ ____
ROOT
ATOM      1  C   UNL     1      46.243   4.663  14.327  0.00  0.00    +0.000 C 
ENDROOT
BRANCH   1   5
ATOM      2  C   UNL     1      44.985   4.369  10.192  0.00  0.00    +0.000 A 
ATOM      3  C   UNL     1      45.545   5.556  10.682  0.00  0.00    +0.000 A 
ATOM      4  C   UNL     1      45.929   5.662  12.023  0.00  0.00    +0.000 A 
ATOM      5  C   UNL     1      45.781   4.575  12.896  0.00  0.00    +0.000 A 
ATOM      6  C   UNL     1      45.179   3.405  12.417  0.00  0.00    +0.000 A 
ATOM      7  C   UNL     1      44.786   3.303  11.080  0.00  0.00    +0.000 A 
BRANCH   2   8
ATOM      8  C   UNL     1      44.638   4.232   8.724  0.00  0.00    +0.000 C 
BRANCH   8  14
ATOM      9  C   UNL     1      46.821  -0.184   7.675  0.00  0.00    +0.000 C 
ATOM     10  C   UNL     1      46.647   1.277   7.402  0.00  0.00    +0.000 A 
ATOM     11  C   UNL     1      47.352   1.917   6.386  0.00  0.00    +0.000 A 
ATOM     12  C   UNL     1      47.146   3.273   6.189  0.00  0.00    +0.000 A 
ATOM     13  N   UNL     1      46.294   4.024   6.929  0.00  0.00    +0.000 NA
ATOM     14  C   UNL     1      45.612   3.398   7.921  0.00  0.00    +0.000 A 
ATOM     15  C   UNL     1      45.757   2.034   8.174  0.00  0.00    +0.000 A 
ENDBRANCH   8  14
ENDBRANCH   2   8
ENDBRANCH   1   5
BRANCH   1  16
ATOM     16  N   UNL     1      47.140   5.771  14.524  0.00  0.00    +0.000 N 
ATOM     17  C   UNL     1      48.133   5.721  15.471  0.00  0.00    +0.000 C 
ATOM     18  O   UNL     1      48.332   4.726  16.159  0.00  0.00    +0.000 OA
ATOM     19  H   UNL     1      46.854   6.667  14.145  0.00  0.00    +0.000 HD
BRANCH  17  20
ATOM     20  C   UNL     1      48.991   6.908  15.569  0.00  0.00    +0.000 A 
ATOM     21  C   UNL     1      49.183   7.523  16.799  0.00  0.00    +0.000 A 
ATOM     22  S   UNL     1      50.272   8.834  16.741  0.00  0.00    +0.000 S 
ATOM     23  C   UNL     1      50.480   8.660  15.062  0.00  0.00    +0.000 A 
ATOM     24  N   UNL     1      51.296   9.498  14.364  0.00  0.00    +0.000 NA
ATOM     25  C   UNL     1      51.334   9.270  13.094  0.00  0.00    +0.000 A 
ATOM     26  N   UNL     1      50.627   8.283  12.456  0.00  0.00    +0.000 N 
ATOM     27  C   UNL     1      49.812   7.402  13.121  0.00  0.00    +0.000 A 
ATOM     28  O   UNL     1      49.220   6.508  12.523  0.00  0.00    +0.000 OA
ATOM     29  C   UNL     1      49.734   7.613  14.552  0.00  0.00    +0.000 A 
ATOM     30  H   UNL     1      50.702   8.156  11.457  0.00  0.00    +0.000 HD
ENDBRANCH  17  20
ENDBRANCH   1  16
TORSDOF 5
ENDMDL
MODEL 4
REMARK VINA RESULT:    -7.885      2.583      4.479
REMARK INTER + INTRA:         -10.942
REMARK INTER:                  -9.866
REMARK INTRA:                  -1.076
REMARK UNBOUND:                -0.752
REMARK  Name = 
REMARK  6 active torsions:
REMARK  status: ('A' for Active; 'I' for Inactive)
REMARK    1  A    between atoms: C_1  and  C_2
REMARK    2  A    between atoms: C_6  and  C_7
REMARK    3  A    between atoms: C_7  and  C_8
REMARK    4  A    between atoms: C_11  and  C_12
REMARK    5  A    between atoms: C_12  and  N_13
REMARK    6  A    between atoms: C_14  and  C_16
REMARK                            x       y       z     vdW  Elec       q    Type
REMARK                         _______ _______ _______ _____ _____    ______ ____
ROOT
ATOM      1  C   UNL     1      46.973   5.582  14.208  0.00  0.00    +0.000 C 
ENDROOT
BRANCH   1   5
ATOM      2  C   UNL     1      45.022   4.401  10.525  0.00  0.00    +0.000 A 
ATOM      3  C   UNL     1      45.573   5.683  10.659  0.00  0.00    +0.000 A 
ATOM      4  C   UNL     1      46.180   6.075  11.856  0.00  0.00    +0.000 A 
ATOM      5  C   UNL     1      46.271   5.186  12.936  0.00  0.00    +0.000 A 
ATOM      6  C   UNL     1      45.680   3.922  12.817  0.00  0.00    +0.000 A 
ATOM      7  C   UNL     1      45.064   3.533  11.625  0.00  0.00    +0.000 A 
BRANCH   2   8
ATOM      8  C   UNL     1      44.430   3.954   9.205  0.00  0.00    +0.000 C 
BRANCH   8  14
ATOM      9  C   UNL     1      46.856  -0.187   7.674  0.00  0.00    +0.000 C 
ATOM     10  C   UNL     1      46.556   1.273   7.529  0.00  0.00    +0.000 A 
ATOM     11  C   UNL     1      47.140   2.039   6.524  0.00  0.00    +0.000 A 
ATOM     12  C   UNL     1      46.821   3.386   6.449  0.00  0.00    +0.000 A 
ATOM     13  N   UNL     1      45.969   4.010   7.298  0.00  0.00    +0.000 NA
ATOM     14  C   UNL     1      45.405   3.261   8.279  0.00  0.00    +0.000 A 
ATOM     15  C   UNL     1      45.668   1.897   8.413  0.00  0.00    +0.000 A 
ENDBRANCH   8  14
ENDBRANCH   2   8
ENDBRANCH   1   5
BRANCH   1  16
ATOM     16  N   UNL     1      47.379   6.962  14.179  0.00  0.00    +0.000 N 
ATOM     17  C   UNL     1      48.636   7.342  14.577  0.00  0.00    +0.000 C 
ATOM     18  O   UNL     1      49.483   6.530  14.933  0.00  0.00    +0.000 OA
ATOM     19  H   UNL     1      46.642   7.656  14.117  0.00  0.00    +0.000 HD
BRANCH  17  20
ATOM     20  C   UNL     1      48.935   8.777  14.489  0.00  0.00    +0.000 A 
ATOM     21  C   UNL     1      49.057   9.529  15.650  0.00  0.00    +0.000 A 
ATOM     22  S   UNL     1      49.486  11.155  15.364  0.00  0.00    +0.000 S 
ATOM     23  C   UNL     1      49.469  10.922  13.679  0.00  0.00    +0.000 A 
ATOM     24  N   UNL     1      49.742  11.947  12.825  0.00  0.00    +0.000 NA
ATOM     25  C   UNL     1      49.662  11.635  11.574  0.00  0.00    +0.000 A 
ATOM     26  N   UNL     1      49.328  10.392  11.100  0.00  0.00    +0.000 N 
ATOM     27  C   UNL     1      49.067   9.326  11.922  0.00  0.00    +0.000 A 
ATOM     28  O   UNL     1      48.805   8.218  11.463  0.00  0.00    +0.000 OA
ATOM     29  C   UNL     1      49.146   9.621  13.338  0.00  0.00    +0.000 A 
ATOM     30  H   UNL     1      49.284  10.213  10.107  0.00  0.00    +0.000 HD
ENDBRANCH  17  20
ENDBRANCH   1  16
TORSDOF 5
ENDMDL
MODEL 5
REMARK VINA RESULT:    -7.608      2.643      3.459
REMARK INTER + INTRA:         -10.583
REMARK INTER:                  -9.567
REMARK INTRA:                  -1.017
REMARK UNBOUND:                -0.752
REMARK  Name = 
REMARK  6 active torsions:
REMARK  status: ('A' for Active; 'I' for Inactive)
REMARK    1  A    between atoms: C_1  and  C_2
REMARK    2  A    between atoms: C_6  and  C_7
REMARK    3  A    between atoms: C_7  and  C_8
REMARK    4  A    between atoms: C_11  and  C_12
REMARK    5  A    between atoms: C_12  and  N_13
REMARK    6  A    between atoms: C_14  and  C_16
REMARK                            x       y       z     vdW  Elec       q    Type
REMARK                         _______ _______ _______ _____ _____    ______ ____
ROOT
ATOM      1  C   UNL     1      48.598   6.895  14.060  0.00  0.00    +0.000 C 
ENDROOT
BRANCH   1   5
ATOM      2  C   UNL     1      45.339   5.547  11.544  0.00  0.00    +0.000 A 
ATOM      3  C   UNL     1      46.080   6.685  11.199  0.00  0.00    +0.000 A 
ATOM      4  C   UNL     1      47.115   7.137  12.023  0.00  0.00    +0.000 A 
ATOM      5  C   UNL     1      47.448   6.446  13.196  0.00  0.00    +0.000 A 
ATOM      6  C   UNL     1      46.678   5.335  13.563  0.00  0.00    +0.000 A 
ATOM      7  C   UNL     1      45.637   4.890  12.745  0.00  0.00    +0.000 A 
BRANCH   2   8
ATOM      8  C   UNL     1      44.267   5.018  10.614  0.00  0.00    +0.000 C 
BRANCH   8  14
ATOM      9  C   UNL     1      46.781   3.590   6.489  0.00  0.00    +0.000 C 
ATOM     10  C   UNL     1      45.957   3.251   7.691  0.00  0.00    +0.000 A 
ATOM     11  C   UNL     1      45.613   1.935   7.991  0.00  0.00    +0.000 A 
ATOM     12  C   UNL     1      44.845   1.691   9.118  0.00  0.00    +0.000 A 
ATOM     13  N   UNL     1      44.402   2.660   9.956  0.00  0.00    +0.000 NA
ATOM     14  C   UNL     1      44.735   3.941   9.658  0.00  0.00    +0.000 A 
ATOM     15  C   UNL     1      45.515   4.266   8.548  0.00  0.00    +0.000 A 
ENDBRANCH   8  14
ENDBRANCH   2   8
ENDBRANCH   1   5
BRANCH   1  16
ATOM     16  N   UNL     1      48.236   6.911  15.452  0.00  0.00    +0.000 N 
ATOM     17  C   UNL     1      49.114   6.491  16.420  0.00  0.00    +0.000 C 
ATOM     18  O   UNL     1      50.255   6.126  16.155  0.00  0.00    +0.000 OA
ATOM     19  H   UNL     1      47.247   6.981  15.669  0.00  0.00    +0.000 HD
BRANCH  17  20
ATOM     20  C   UNL     1      48.633   6.567  17.805  0.00  0.00    +0.000 A 
ATOM     21  C   UNL     1      48.637   5.429  18.601  0.00  0.00    +0.000 A 
ATOM     22  S   UNL     1      48.123   5.717  20.201  0.00  0.00    +0.000 S 
ATOM     23  C   UNL     1      47.825   7.358  19.870  0.00  0.00    +0.000 A 
ATOM     24  N   UNL     1      47.344   8.193  20.832  0.00  0.00    +0.000 NA
ATOM     25  C   UNL     1      47.137   9.404  20.432  0.00  0.00    +0.000 A 
ATOM     26  N   UNL     1      47.360   9.854  19.157  0.00  0.00    +0.000 N 
ATOM     27  C   UNL     1      47.865   9.055  18.162  0.00  0.00    +0.000 A 
ATOM     28  O   UNL     1      48.086   9.499  17.039  0.00  0.00    +0.000 OA
ATOM     29  C   UNL     1      48.119   7.685  18.558  0.00  0.00    +0.000 A 
ATOM     30  H   UNL     1      47.177  10.815  18.908  0.00  0.00    +0.000 HD
ENDBRANCH  17  20
ENDBRANCH   1  16
TORSDOF 5
ENDMDL
MODEL 6
REMARK VINA RESULT:    -7.512      2.579      3.631
REMARK INTER + INTRA:         -10.460
REMARK INTER:                  -9.690
REMARK INTRA:                  -0.771
REMARK UNBOUND:                -0.752
REMARK  Name = 
REMARK  6 active torsions:
REMARK  status: ('A' for Active; 'I' for Inactive)
REMARK    1  A    between atoms: C_1  and  C_2
REMARK    2  A    between atoms: C_6  and  C_7
REMARK    3  A    between atoms: C_7  and  C_8
REMARK    4  A    between atoms: C_11  and  C_12
REMARK    5  A    between atoms: C_12  and  N_13
REMARK    6  A    between atoms: C_14  and  C_16
REMARK                            x       y       z     vdW  Elec       q    Type
REMARK                         _______ _______ _______ _____ _____    ______ ____
ROOT
ATOM      1  C   UNL     1      46.976   5.055  14.488  0.00  0.00    +0.000 C 
ENDROOT
BRANCH   1   5
ATOM      2  C   UNL     1      45.090   4.437  10.638  0.00  0.00    +0.000 A 
ATOM      3  C   UNL     1      45.732   5.648  10.929  0.00  0.00    +0.000 A 
ATOM      4  C   UNL     1      46.319   5.860  12.180  0.00  0.00    +0.000 A 
ATOM      5  C   UNL     1      46.298   4.856  13.158  0.00  0.00    +0.000 A 
ATOM      6  C   UNL     1      45.617   3.663  12.882  0.00  0.00    +0.000 A 
ATOM      7  C   UNL     1      45.021   3.455  11.636  0.00  0.00    +0.000 A 
BRANCH   2   8
ATOM      8  C   UNL     1      44.519   4.183   9.258  0.00  0.00    +0.000 C 
BRANCH   8  14
ATOM      9  C   UNL     1      46.766  -0.032   7.659  0.00  0.00    +0.000 C 
ATOM     10  C   UNL     1      46.518   1.438   7.529  0.00  0.00    +0.000 A 
ATOM     11  C   UNL     1      47.115   2.191   6.521  0.00  0.00    +0.000 A 
ATOM     12  C   UNL     1      46.845   3.549   6.460  0.00  0.00    +0.000 A 
ATOM     13  N   UNL     1      46.030   4.198   7.327  0.00  0.00    +0.000 NA
ATOM     14  C   UNL     1      45.454   3.462   8.311  0.00  0.00    +0.000 A 
ATOM     15  C   UNL     1      45.668   2.088   8.431  0.00  0.00    +0.000 A 
ENDBRANCH   8  14
ENDBRANCH   2   8
ENDBRANCH   1   5
BRANCH   1  16
ATOM     16  N   UNL     1      47.686   6.306  14.535  0.00  0.00    +0.000 N 
ATOM     17  C   UNL     1      48.743   6.491  15.391  0.00  0.00    +0.000 C 
ATOM     18  O   UNL     1      49.160   5.597  16.120  0.00  0.00    +0.000 OA
ATOM     19  H   UNL     1      47.224   7.112  14.127  0.00  0.00    +0.000 HD
BRANCH  17  20
ATOM     20  C   UNL     1      49.394   7.806  15.338  0.00  0.00    +0.000 A 
ATOM     21  C   UNL     1      50.152   8.157  14.229  0.00  0.00    +0.000 A 
ATOM     22  S   UNL     1      50.765   9.747  14.299  0.00  0.00    +0.000 S 
ATOM     23  C   UNL     1      50.085  10.001  15.838  0.00  0.00    +0.000 A 
ATOM     24  N   UNL     1      50.251  11.183  16.493  0.00  0.00    +0.000 NA
ATOM     25  C   UNL     1      49.707  11.225  17.663  0.00  0.00    +0.000 A 
ATOM     26  N   UNL     1      49.018  10.190  18.241  0.00  0.00    +0.000 N 
ATOM     27  C   UNL     1      48.808   8.990  17.610  0.00  0.00    +0.000 A 
ATOM     28  O   UNL     1      48.156   8.097  18.143  0.00  0.00    +0.000 OA
ATOM     29  C   UNL     1      49.395   8.891  16.290  0.00  0.00    +0.000 A 
ATOM     30  H   UNL     1      48.615  10.287  19.163  0.00  0.00    +0.000 HD
ENDBRANCH  17  20
ENDBRANCH   1  16
TORSDOF 5
ENDMDL
MODEL 7
REMARK VINA RESULT:    -7.422      2.807      3.944
REMARK INTER + INTRA:         -10.343
REMARK INTER:                  -9.456
REMARK INTRA:                  -0.887
REMARK UNBOUND:                -0.752
REMARK  Name = 
REMARK  6 active torsions:
REMARK  status: ('A' for Active; 'I' for Inactive)
REMARK    1  A    between atoms: C_1  and  C_2
REMARK    2  A    between atoms: C_6  and  C_7
REMARK    3  A    between atoms: C_7  and  C_8
REMARK    4  A    between atoms: C_11  and  C_12
REMARK    5  A    between atoms: C_12  and  N_13
REMARK    6  A    between atoms: C_14  and  C_16
REMARK                            x       y       z     vdW  Elec       q    Type
REMARK                         _______ _______ _______ _____ _____    ______ ____
ROOT
ATOM      1  C   UNL     1      46.567   5.764  13.786  0.00  0.00    +0.000 C 
ENDROOT
BRANCH   1   5
ATOM      2  C   UNL     1      44.873   4.183  10.126  0.00  0.00    +0.000 A 
ATOM      3  C   UNL     1      45.473   5.449  10.142  0.00  0.00    +0.000 A 
ATOM      4  C   UNL     1      45.998   5.973  11.329  0.00  0.00    +0.000 A 
ATOM      5  C   UNL     1      45.955   5.231  12.517  0.00  0.00    +0.000 A 
ATOM      6  C   UNL     1      45.314   3.985  12.509  0.00  0.00    +0.000 A 
ATOM      7  C   UNL     1      44.781   3.467  11.327  0.00  0.00    +0.000 A 
BRANCH   2   8
ATOM      8  C   UNL     1      44.371   3.589   8.826  0.00  0.00    +0.000 C 
BRANCH   8  14
ATOM      9  C   UNL     1      47.674   2.871   5.092  0.00  0.00    +0.000 C 
ATOM     10  C   UNL     1      46.976   2.381   6.321  0.00  0.00    +0.000 A 
ATOM     11  C   UNL     1      47.241   1.123   6.857  0.00  0.00    +0.000 A 
ATOM     12  C   UNL     1      46.556   0.730   7.995  0.00  0.00    +0.000 A 
ATOM     13  N   UNL     1      45.635   1.498   8.627  0.00  0.00    +0.000 NA
ATOM     14  C   UNL     1      45.376   2.721   8.100  0.00  0.00    +0.000 A 
ATOM     15  C   UNL     1      46.032   3.192   6.963  0.00  0.00    +0.000 A 
ENDBRANCH   8  14
ENDBRANCH   2   8
ENDBRANCH   1   5
BRANCH   1  16
ATOM     16  N   UNL     1      47.838   6.389  13.535  0.00  0.00    +0.000 N 
ATOM     17  C   UNL     1      47.964   7.756  13.503  0.00  0.00    +0.000 C 
ATOM     18  O   UNL     1      47.020   8.506  13.727  0.00  0.00    +0.000 OA
ATOM     19  H   UNL     1      48.562   5.810  13.123  0.00  0.00    +0.000 HD
BRANCH  17  20
ATOM     20  C   UNL     1      49.315   8.274  13.250  0.00  0.00    +0.000 A 
ATOM     21  C   UNL     1      49.539   9.121  12.173  0.00  0.00    +0.000 A 
ATOM     22  S   UNL     1      51.144   9.690  12.078  0.00  0.00    +0.000 S 
ATOM     23  C   UNL     1      51.606   8.781  13.439  0.00  0.00    +0.000 A 
ATOM     24  N   UNL     1      52.888   8.804  13.897  0.00  0.00    +0.000 NA
ATOM     25  C   UNL     1      53.104   8.042  14.918  0.00  0.00    +0.000 A 
ATOM     26  N   UNL     1      52.155   7.255  15.518  0.00  0.00    +0.000 N 
ATOM     27  C   UNL     1      50.848   7.217  15.105  0.00  0.00    +0.000 A 
ATOM     28  O   UNL     1      50.016   6.527  15.687  0.00  0.00    +0.000 OA
ATOM     29  C   UNL     1      50.550   8.057  13.963  0.00  0.00    +0.000 A 
ATOM     30  H   UNL     1      52.389   6.681  16.316  0.00  0.00    +0.000 HD
ENDBRANCH  17  20
ENDBRANCH   1  16
TORSDOF 5
ENDMDL
MODEL 8
REMARK VINA RESULT:    -7.283      3.036      4.567
REMARK INTER + INTRA:         -10.164
REMARK INTER:                  -9.280
REMARK INTRA:                  -0.884
REMARK UNBOUND:                -0.752
REMARK  Name = 
REMARK  6 active torsions:
REMARK  status: ('A' for Active; 'I' for Inactive)
REMARK    1  A    between atoms: C_1  and  C_2
REMARK    2  A    between atoms: C_6  and  C_7
REMARK    3  A    between atoms: C_7  and  C_8
REMARK    4  A    between atoms: C_11  and  C_12
REMARK    5  A    between atoms: C_12  and  N_13
REMARK    6  A    between atoms: C_14  and  C_16
REMARK                            x       y       z     vdW  Elec       q    Type
REMARK                         _______ _______ _______ _____ _____    ______ ____
ROOT
ATOM      1  C   UNL     1      46.490   5.991  13.968  0.00  0.00    +0.000 C 
ENDROOT
BRANCH   1   5
ATOM      2  C   UNL     1      44.939   4.006  10.444  0.00  0.00    +0.000 A 
ATOM      3  C   UNL     1      45.102   3.300  11.643  0.00  0.00    +0.000 A 
ATOM      4  C   UNL     1      45.626   3.933  12.775  0.00  0.00    +0.000 A 
ATOM      5  C   UNL     1      45.976   5.289  12.737  0.00  0.00    +0.000 A 
ATOM      6  C   UNL     1      45.856   5.981  11.526  0.00  0.00    +0.000 A 
ATOM      7  C   UNL     1      45.342   5.347  10.392  0.00  0.00    +0.000 A 
BRANCH   2   8
ATOM      8  C   UNL     1      44.304   3.339   9.241  0.00  0.00    +0.000 C 
BRANCH   8  14
ATOM      9  C   UNL     1      47.267   3.209   5.169  0.00  0.00    +0.000 C 
ATOM     10  C   UNL     1      46.713   2.553   6.395  0.00  0.00    +0.000 A 
ATOM     11  C   UNL     1      47.089   1.264   6.764  0.00  0.00    +0.000 A 
ATOM     12  C   UNL     1      46.535   0.715   7.909  0.00  0.00    +0.000 A 
ATOM     13  N   UNL     1      45.643   1.357   8.702  0.00  0.00    +0.000 NA
ATOM     14  C   UNL     1      45.276   2.612   8.336  0.00  0.00    +0.000 A 
ATOM     15  C   UNL     1      45.797   3.237   7.203  0.00  0.00    +0.000 A 
ENDBRANCH   8  14
ENDBRANCH   2   8
ENDBRANCH   1   5
BRANCH   1  16
ATOM     16  N   UNL     1      47.124   7.239  13.636  0.00  0.00    +0.000 N 
ATOM     17  C   UNL     1      48.444   7.288  13.261  0.00  0.00    +0.000 C 
ATOM     18  O   UNL     1      49.130   6.278  13.149  0.00  0.00    +0.000 OA
ATOM     19  H   UNL     1      46.659   8.087  13.941  0.00  0.00    +0.000 HD
BRANCH  17  20
ATOM     20  C   UNL     1      48.974   8.618  12.935  0.00  0.00    +0.000 A 
ATOM     21  C   UNL     1      49.524   8.854  11.682  0.00  0.00    +0.000 A 
ATOM     22  S   UNL     1      50.013  10.471  11.449  0.00  0.00    +0.000 S 
ATOM     23  C   UNL     1      49.559  10.896  13.031  0.00  0.00    +0.000 A 
ATOM     24  N   UNL     1      49.730  12.165  13.494  0.00  0.00    +0.000 NA
ATOM     25  C   UNL     1      49.370  12.338  14.723  0.00  0.00    +0.000 A 
ATOM     26  N   UNL     1      48.861  11.356  15.532  0.00  0.00    +0.000 N 
ATOM     27  C   UNL     1      48.651  10.070  15.102  0.00  0.00    +0.000 A 
ATOM     28  O   UNL     1      48.160   9.223  15.843  0.00  0.00    +0.000 OA
ATOM     29  C   UNL     1      49.035   9.822  13.728  0.00  0.00    +0.000 A 
ATOM     30  H   UNL     1      48.597  11.557  16.486  0.00  0.00    +0.000 HD
ENDBRANCH  17  20
ENDBRANCH   1  16
TORSDOF 5
ENDMDL
MODEL 9
REMARK VINA RESULT:    -7.003      3.798      8.981
REMARK INTER + INTRA:          -9.802
REMARK INTER:                  -8.812
REMARK INTRA:                  -0.990
REMARK UNBOUND:                -0.752
REMARK  Name = 
REMARK  6 active torsions:
REMARK  status: ('A' for Active; 'I' for Inactive)
REMARK    1  A    between atoms: C_1  and  C_2
REMARK    2  A    between atoms: C_6  and  C_7
REMARK    3  A    between atoms: C_7  and  C_8
REMARK    4  A    between atoms: C_11  and  C_12
REMARK    5  A    between atoms: C_12  and  N_13
REMARK    6  A    between atoms: C_14  and  C_16
REMARK                            x       y       z     vdW  Elec       q    Type
REMARK                         _______ _______ _______ _____ _____    ______ ____
ROOT
ATOM      1  C   UNL     1      47.217   3.377  16.946  0.00  0.00    +0.000 C 
ENDROOT
BRANCH   1   5
ATOM      2  C   UNL     1      51.401   3.708  18.016  0.00  0.00    +0.000 A 
ATOM      3  C   UNL     1      50.915   2.548  17.398  0.00  0.00    +0.000 A 
ATOM      4  C   UNL     1      49.560   2.428  17.076  0.00  0.00    +0.000 A 
ATOM      5  C   UNL     1      48.667   3.476  17.342  0.00  0.00    +0.000 A 
ATOM      6  C   UNL     1      49.145   4.616  18.000  0.00  0.00    +0.000 A 
ATOM      7  C   UNL     1      50.497   4.731  18.332  0.00  0.00    +0.000 A 
BRANCH   2   8
ATOM      8  C   UNL     1      52.881   3.865  18.299  0.00  0.00    +0.000 C 
BRANCH   8  14
ATOM      9  C   UNL     1      54.082   7.419  14.937  0.00  0.00    +0.000 C 
ATOM     10  C   UNL     1      54.006   6.942  16.354  0.00  0.00    +0.000 A 
ATOM     11  C   UNL     1      54.426   7.741  17.414  0.00  0.00    +0.000 A 
ATOM     12  C   UNL     1      54.331   7.237  18.701  0.00  0.00    +0.000 A 
ATOM     13  N   UNL     1      53.851   6.005  18.998  0.00  0.00    +0.000 NA
ATOM     14  C   UNL     1      53.447   5.228  17.962  0.00  0.00    +0.000 A 
ATOM     15  C   UNL     1      53.501   5.668  16.639  0.00  0.00    +0.000 A 
ENDBRANCH   8  14
ENDBRANCH   2   8
ENDBRANCH   1   5
BRANCH   1  16
ATOM     16  N   UNL     1      46.862   4.388  15.986  0.00  0.00    +0.000 N 
ATOM     17  C   UNL     1      46.962   4.153  14.637  0.00  0.00    +0.000 C 
ATOM     18  O   UNL     1      47.312   3.068  14.186  0.00  0.00    +0.000 OA
ATOM     19  H   UNL     1      46.800   5.342  16.326  0.00  0.00    +0.000 HD
BRANCH  17  20
ATOM     20  C   UNL     1      46.559   5.258  13.758  0.00  0.00    +0.000 A 
ATOM     21  C   UNL     1      47.415   6.334  13.564  0.00  0.00    +0.000 A 
ATOM     22  S   UNL     1      46.822   7.483  12.452  0.00  0.00    +0.000 S 
ATOM     23  C   UNL     1      45.378   6.611  12.235  0.00  0.00    +0.000 A 
ATOM     24  N   UNL     1      44.402   7.063  11.401  0.00  0.00    +0.000 NA
ATOM     25  C   UNL     1      43.349   6.317  11.357  0.00  0.00    +0.000 A 
ATOM     26  N   UNL     1      43.180   5.162  12.077  0.00  0.00    +0.000 N 
ATOM     27  C   UNL     1      44.144   4.657  12.912  0.00  0.00    +0.000 A 
ATOM     28  O   UNL     1      43.974   3.602  13.515  0.00  0.00    +0.000 OA
ATOM     29  C   UNL     1      45.350   5.455  12.996  0.00  0.00    +0.000 A 
ATOM     30  H   UNL     1      42.330   4.622  11.997  0.00  0.00    +0.000 HD
ENDBRANCH  17  20
ENDBRANCH   1  16
TORSDOF 5
ENDMDL
