MODEL 1
REMARK VINA RESULT:    -7.000      0.000      0.000
REMARK INTER + INTRA:          -8.882
REMARK INTER:                  -8.227
REMARK INTRA:                  -0.655
REMARK UNBOUND:                -0.655
REMARK  Name = 
REMARK  3 active torsions:
REMARK  status: ('A' for Active; 'I' for Inactive)
REMARK    1  A    between atoms: N_5  and  C_6
REMARK    2  A    between atoms: C_6  and  C_7
REMARK    3  A    between atoms: C_11  and  N_12
REMARK                            x       y       z     vdW  Elec       q    Type
REMARK                         _______ _______ _______ _____ _____    ______ ____
ROOT
ATOM      1  C   UNL     1      45.083   4.764  12.241  0.00  0.00    +0.000 A 
ATOM      2  C   UNL     1      45.594   3.650  12.922  0.00  0.00    +0.000 A 
ATOM      3  C   UNL     1      46.763   3.743  13.673  0.00  0.00    +0.000 A 
ATOM      4  C   UNL     1      47.450   4.955  13.741  0.00  0.00    +0.000 A 
ATOM      5  C   UNL     1      46.965   6.106  13.108  0.00  0.00    +0.000 A 
ATOM      6  C   UNL     1      45.754   5.993  12.409  0.00  0.00    +0.000 A 
ENDROOT
BRANCH   5   7
ATOM      7  N   UNL     1      47.672   7.289  13.116  0.00  0.00    +0.000 N 
ATOM      8  C   UNL     1      47.010   8.586  13.286  0.00  0.00    +0.000 C 
ATOM      9  C   UNL     1      47.343   9.517  12.102  0.00  0.00    +0.000 C 
ATOM     10  N   UNL     1      48.797   9.668  11.870  0.00  0.00    +0.000 NA
ATOM     11  C   UNL     1      49.387   8.323  11.677  0.00  0.00    +0.000 C 
ATOM     12  C   UNL     1      49.111   7.336  12.840  0.00  0.00    +0.000 C 
ATOM     13  H   UNL     1      49.206  10.068  12.715  0.00  0.00    +0.000 HD
ENDBRANCH   5   7
BRANCH   1  14
ATOM     14  C   UNL     1      43.914   4.615  11.270  0.00  0.00    +0.000 C 
ATOM     15  C   UNL     1      42.515   4.966  11.773  0.00  0.00    +0.000 C 
ATOM     16  C   UNL     1      43.226   5.905  10.860  0.00  0.00    +0.000 C 
BRANCH  14  21
ATOM     17  C   UNL     1      46.642   2.769   7.343  0.00  0.00    +0.000 A 
ATOM     18  C   UNL     1      46.094   1.768   8.103  0.00  0.00    +0.000 A 
ATOM     19  N   UNL     1      45.239   1.993   9.120  0.00  0.00    +0.000 NA
ATOM     20  C   UNL     1      44.929   3.270   9.399  0.00  0.00    +0.000 A 
ATOM     21  N   UNL     1      43.981   3.433  10.407  0.00  0.00    +0.000 N 
ATOM     22  N   UNL     1      45.433   4.317   8.722  0.00  0.00    +0.000 NA
ATOM     23  C   UNL     1      46.272   4.040   7.702  0.00  0.00    +0.000 A 
ATOM     24  H   UNL     1      43.893   2.523  10.850  0.00  0.00    +0.000 HD
ENDBRANCH  14  21
ENDBRANCH   1  14
TORSDOF 3
ENDMDL
MODEL 2
REMARK VINA RESULT:    -6.779      1.927      3.267
REMARK INTER + INTRA:          -8.623
REMARK INTER:                  -8.104
REMARK INTRA:                  -0.519
REMARK UNBOUND:                -0.655
REMARK  Name = 
REMARK  3 active torsions:
REMARK  status: ('A' for Active; 'I' for Inactive)
REMARK    1  A    between atoms: N_5  and  C_6
REMARK    2  A    between atoms: C_6  and  C_7
REMARK    3  A    between atoms: C_11  and  N_12
REMARK                            x       y       z     vdW  Elec       q    Type
REMARK                         _______ _______ _______ _____ _____    ______ ____
ROOT
ATOM      1  C   UNL     1      45.352   5.331  12.110  0.00  0.00    +0.000 A 
ATOM      2  C   UNL     1      45.866   6.464  11.463  0.00  0.00    +0.000 A 
ATOM      3  C   UNL     1      47.007   7.104  11.939  0.00  0.00    +0.000 A 
ATOM      4  C   UNL     1      47.646   6.627  13.084  0.00  0.00    +0.000 A 
ATOM      5  C   UNL     1      47.193   5.481  13.748  0.00  0.00    +0.000 A 
ATOM      6  C   UNL     1      46.077   4.824  13.209  0.00  0.00    +0.000 A 
ENDROOT
BRANCH   5   7
ATOM      7  N   UNL     1      47.779   5.043  14.916  0.00  0.00    +0.000 N 
ATOM      8  C   UNL     1      47.443   3.746  15.512  0.00  0.00    +0.000 C 
ATOM      9  C   UNL     1      46.954   3.933  16.963  0.00  0.00    +0.000 C 
ATOM     10  N   UNL     1      47.903   4.696  17.805  0.00  0.00    +0.000 NA
ATOM     11  C   UNL     1      48.167   6.002  17.155  0.00  0.00    +0.000 C 
ATOM     12  C   UNL     1      48.683   5.892  15.698  0.00  0.00    +0.000 C 
ATOM     13  H   UNL     1      48.782   4.179  17.829  0.00  0.00    +0.000 HD
ENDBRANCH   5   7
BRANCH   1  14
ATOM     14  C   UNL     1      44.001   4.746  11.702  0.00  0.00    +0.000 C 
ATOM     15  C   UNL     1      42.839   4.872  12.686  0.00  0.00    +0.000 C 
ATOM     16  C   UNL     1      42.885   5.752  11.483  0.00  0.00    +0.000 C 
BRANCH  14  21
ATOM     17  C   UNL     1      46.080   2.702   7.486  0.00  0.00    +0.000 A 
ATOM     18  C   UNL     1      45.886   1.766   8.468  0.00  0.00    +0.000 A 
ATOM     19  N   UNL     1      45.248   2.028   9.626  0.00  0.00    +0.000 NA
ATOM     20  C   UNL     1      44.796   3.279   9.816  0.00  0.00    +0.000 A 
ATOM     21  N   UNL     1      44.076   3.466  10.995  0.00  0.00    +0.000 N 
ATOM     22  N   UNL     1      44.958   4.267   8.919  0.00  0.00    +0.000 NA
ATOM     23  C   UNL     1      45.589   3.952   7.769  0.00  0.00    +0.000 A 
ATOM     24  H   UNL     1      44.241   2.631  11.551  0.00  0.00    +0.000 HD
ENDBRANCH  14  21
ENDBRANCH   1  14
TORSDOF 3
ENDMDL
MODEL 3
REMARK VINA RESULT:    -6.263      1.935      6.601
REMARK INTER + INTRA:          -8.016
REMARK INTER:                  -8.228
REMARK INTRA:                   0.212
REMARK UNBOUND:                -0.655
REMARK  Name = 
REMARK  3 active torsions:
REMARK  status: ('A' for Active; 'I' for Inactive)
REMARK    1  A    between atoms: N_5  and  C_6
REMARK    2  A    between atoms: C_6  and  C_7
REMARK    3  A    between atoms: C_11  and  N_12
REMARK                            x       y       z     vdW  Elec       q    Type
REMARK                         _______ _______ _______ _____ _____    ______ ____
ROOT
ATOM      1  C   UNL     1      45.159   5.855  12.184  0.00  0.00    +0.000 A 
ATOM      2  C   UNL     1      44.049   5.484  12.956  0.00  0.00    +0.000 A 
ATOM      3  C   UNL     1      43.191   4.471  12.536  0.00  0.00    +0.000 A 
ATOM      4  C   UNL     1      43.422   3.822  11.323  0.00  0.00    +0.000 A 
ATOM      5  C   UNL     1      44.534   4.132  10.530  0.00  0.00    +0.000 A 
ATOM      6  C   UNL     1      45.412   5.114  11.010  0.00  0.00    +0.000 A 
ENDROOT
BRANCH   5   7
ATOM      7  N   UNL     1      44.732   3.541   9.301  0.00  0.00    +0.000 N 
ATOM      8  C   UNL     1      44.629   2.091   9.113  0.00  0.00    +0.000 C 
ATOM      9  C   UNL     1      45.936   1.534   8.511  0.00  0.00    +0.000 C 
ATOM     10  N   UNL     1      46.345   2.223   7.266  0.00  0.00    +0.000 NA
ATOM     11  C   UNL     1      46.457   3.674   7.544  0.00  0.00    +0.000 C 
ATOM     12  C   UNL     1      45.172   4.309   8.132  0.00  0.00    +0.000 C 
ATOM     13  H   UNL     1      45.599   2.095   6.582  0.00  0.00    +0.000 HD
ENDBRANCH   5   7
BRANCH   1  14
ATOM     14  C   UNL     1      45.986   7.086  12.549  0.00  0.00    +0.000 C 
ATOM     15  C   UNL     1      47.204   6.890  13.450  0.00  0.00    +0.000 C 
ATOM     16  C   UNL     1      47.398   7.124  11.991  0.00  0.00    +0.000 C 
BRANCH  14  21
ATOM     17  C   UNL     1      45.781  12.031  11.213  0.00  0.00    +0.000 A 
ATOM     18  C   UNL     1      44.555  11.552  11.597  0.00  0.00    +0.000 A 
ATOM     19  N   UNL     1      44.368  10.317  12.105  0.00  0.00    +0.000 NA
ATOM     20  C   UNL     1      45.446   9.524  12.220  0.00  0.00    +0.000 A 
ATOM     21  N   UNL     1      45.202   8.292  12.825  0.00  0.00    +0.000 N 
ATOM     22  N   UNL     1      46.683   9.900  11.851  0.00  0.00    +0.000 NA
ATOM     23  C   UNL     1      46.823  11.150  11.364  0.00  0.00    +0.000 A 
ATOM     24  H   UNL     1      44.190   8.197  12.853  0.00  0.00    +0.000 HD
ENDBRANCH  14  21
ENDBRANCH   1  14
TORSDOF 3
ENDMDL
MODEL 4
REMARK VINA RESULT:    -6.192      2.136      6.990
REMARK INTER + INTRA:          -7.933
REMARK INTER:                  -7.302
REMARK INTRA:                  -0.631
REMARK UNBOUND:                -0.655
REMARK  Name = 
REMARK  3 active torsions:
REMARK  status: ('A' for Active; 'I' for Inactive)
REMARK    1  A    between atoms: N_5  and  C_6
REMARK    2  A    between atoms: C_6  and  C_7
REMARK    3  A    between atoms: C_11  and  N_12
REMARK                            x       y       z     vdW  Elec       q    Type
REMARK                         _______ _______ _______ _____ _____    ______ ____
ROOT
ATOM      1  C   UNL     1      47.151   7.661  12.197  0.00  0.00    +0.000 A 
ATOM      2  C   UNL     1      46.460   8.879  12.273  0.00  0.00    +0.000 A 
ATOM      3  C   UNL     1      45.121   8.967  11.903  0.00  0.00    +0.000 A 
ATOM      4  C   UNL     1      44.454   7.835  11.433  0.00  0.00    +0.000 A 
ATOM      5  C   UNL     1      45.088   6.588  11.369  0.00  0.00    +0.000 A 
ATOM      6  C   UNL     1      46.419   6.521  11.806  0.00  0.00    +0.000 A 
ENDROOT
BRANCH   5   7
ATOM      7  N   UNL     1      44.456   5.482  10.844  0.00  0.00    +0.000 N 
ATOM      8  C   UNL     1      43.151   5.030  11.337  0.00  0.00    +0.000 C 
ATOM      9  C   UNL     1      43.232   3.563  11.804  0.00  0.00    +0.000 C 
ATOM     10  N   UNL     1      43.777   2.651  10.773  0.00  0.00    +0.000 NA
ATOM     11  C   UNL     1      45.105   3.155  10.351  0.00  0.00    +0.000 C 
ATOM     12  C   UNL     1      45.097   4.620   9.846  0.00  0.00    +0.000 C 
ATOM     13  H   UNL     1      43.158   2.693   9.963  0.00  0.00    +0.000 HD
ENDBRANCH   5   7
BRANCH   1  14
ATOM     14  C   UNL     1      48.661   7.607  12.421  0.00  0.00    +0.000 C 
ATOM     15  C   UNL     1      49.571   7.681  11.196  0.00  0.00    +0.000 C 
ATOM     16  C   UNL     1      49.426   8.873  12.079  0.00  0.00    +0.000 C 
BRANCH  14  21
ATOM     17  C   UNL     1      48.663   7.101  17.522  0.00  0.00    +0.000 A 
ATOM     18  C   UNL     1      48.671   5.887  16.886  0.00  0.00    +0.000 A 
ATOM     19  N   UNL     1      48.791   5.751  15.550  0.00  0.00    +0.000 NA
ATOM     20  C   UNL     1      48.892   6.873  14.819  0.00  0.00    +0.000 A 
ATOM     21  N   UNL     1      49.094   6.665  13.455  0.00  0.00    +0.000 N 
ATOM     22  N   UNL     1      48.873   8.107  15.353  0.00  0.00    +0.000 NA
ATOM     23  C   UNL     1      48.768   8.191  16.695  0.00  0.00    +0.000 A 
ATOM     24  H   UNL     1      48.906   5.678  13.299  0.00  0.00    +0.000 HD
ENDBRANCH  14  21
ENDBRANCH   1  14
TORSDOF 3
ENDMDL
MODEL 5
REMARK VINA RESULT:    -5.384      3.043      7.127
REMARK INTER + INTRA:          -6.983
REMARK INTER:                  -6.510
REMARK INTRA:                  -0.473
REMARK UNBOUND:                -0.655
REMARK  Name = 
REMARK  3 active torsions:
REMARK  status: ('A' for Active; 'I' for Inactive)
REMARK    1  A    between atoms: N_5  and  C_6
REMARK    2  A    between atoms: C_6  and  C_7
REMARK    3  A    between atoms: C_11  and  N_12
REMARK                            x       y       z     vdW  Elec       q    Type
REMARK                         _______ _______ _______ _____ _____    ______ ____
ROOT
ATOM      1  C   UNL     1      49.004   7.560  14.655  0.00  0.00    +0.000 A 
ATOM      2  C   UNL     1      49.979   7.794  13.674  0.00  0.00    +0.000 A 
ATOM      3  C   UNL     1      49.717   7.544  12.330  0.00  0.00    +0.000 A 
ATOM      4  C   UNL     1      48.475   7.037  11.946  0.00  0.00    +0.000 A 
ATOM      5  C   UNL     1      47.456   6.816  12.881  0.00  0.00    +0.000 A 
ATOM      6  C   UNL     1      47.731   7.135  14.218  0.00  0.00    +0.000 A 
ENDROOT
BRANCH   5   7
ATOM      7  N   UNL     1      46.251   6.254  12.518  0.00  0.00    +0.000 N 
ATOM      8  C   UNL     1      45.615   5.203  13.319  0.00  0.00    +0.000 C 
ATOM      9  C   UNL     1      45.358   3.952  12.455  0.00  0.00    +0.000 C 
ATOM     10  N   UNL     1      44.594   4.242  11.220  0.00  0.00    +0.000 NA
ATOM     11  C   UNL     1      45.313   5.286  10.453  0.00  0.00    +0.000 C 
ATOM     12  C   UNL     1      45.589   6.585  11.253  0.00  0.00    +0.000 C 
ATOM     13  H   UNL     1      43.691   4.629  11.498  0.00  0.00    +0.000 HD
ENDBRANCH   5   7
BRANCH   1  14
ATOM     14  C   UNL     1      49.354   7.654  16.139  0.00  0.00    +0.000 C 
ATOM     15  C   UNL     1      49.960   8.959  16.650  0.00  0.00    +0.000 C 
ATOM     16  C   UNL     1      48.535   8.643  16.949  0.00  0.00    +0.000 C 
BRANCH  14  21
ATOM     17  C   UNL     1      47.945   2.962  17.644  0.00  0.00    +0.000 A 
ATOM     18  C   UNL     1      49.258   3.002  17.254  0.00  0.00    +0.000 A 
ATOM     19  N   UNL     1      49.899   4.142  16.928  0.00  0.00    +0.000 NA
ATOM     20  C   UNL     1      49.196   5.286  16.980  0.00  0.00    +0.000 A 
ATOM     21  N   UNL     1      49.934   6.437  16.710  0.00  0.00    +0.000 N 
ATOM     22  N   UNL     1      47.899   5.340  17.332  0.00  0.00    +0.000 NA
ATOM     23  C   UNL     1      47.306   4.176  17.665  0.00  0.00    +0.000 A 
ATOM     24  H   UNL     1      50.816   6.112  16.323  0.00  0.00    +0.000 HD
ENDBRANCH  14  21
ENDBRANCH   1  14
TORSDOF 3
ENDMDL
MODEL 6
REMARK VINA RESULT:    -5.362      2.702      4.393
REMARK INTER + INTRA:          -6.957
REMARK INTER:                  -6.363
REMARK INTRA:                  -0.594
REMARK UNBOUND:                -0.655
REMARK  Name = 
REMARK  3 active torsions:
REMARK  status: ('A' for Active; 'I' for Inactive)
REMARK    1  A    between atoms: N_5  and  C_6
REMARK    2  A    between atoms: C_6  and  C_7
REMARK    3  A    between atoms: C_11  and  N_12
REMARK                            x       y       z     vdW  Elec       q    Type
REMARK                         _______ _______ _______ _____ _____    ______ ____
ROOT
ATOM      1  C   UNL     1      46.830   7.501  12.684  0.00  0.00    +0.000 A 
ATOM      2  C   UNL     1      47.771   7.465  11.645  0.00  0.00    +0.000 A 
ATOM      3  C   UNL     1      49.133   7.367  11.916  0.00  0.00    +0.000 A 
ATOM      4  C   UNL     1      49.578   7.319  13.237  0.00  0.00    +0.000 A 
ATOM      5  C   UNL     1      48.679   7.319  14.310  0.00  0.00    +0.000 A 
ATOM      6  C   UNL     1      47.311   7.357  14.003  0.00  0.00    +0.000 A 
ENDROOT
BRANCH   5   7
ATOM      7  N   UNL     1      49.113   7.338  15.618  0.00  0.00    +0.000 N 
ATOM      8  C   UNL     1      49.340   6.104  16.376  0.00  0.00    +0.000 C 
ATOM      9  C   UNL     1      48.501   6.108  17.670  0.00  0.00    +0.000 C 
ATOM     10  N   UNL     1      48.716   7.313  18.502  0.00  0.00    +0.000 NA
ATOM     11  C   UNL     1      48.437   8.512  17.678  0.00  0.00    +0.000 C 
ATOM     12  C   UNL     1      49.262   8.588  16.369  0.00  0.00    +0.000 C 
ATOM     13  H   UNL     1      49.702   7.338  18.763  0.00  0.00    +0.000 HD
ENDBRANCH   5   7
BRANCH   1  14
ATOM     14  C   UNL     1      45.360   7.798  12.394  0.00  0.00    +0.000 C 
ATOM     15  C   UNL     1      44.875   9.238  12.554  0.00  0.00    +0.000 C 
ATOM     16  C   UNL     1      45.089   8.681  11.189  0.00  0.00    +0.000 C 
BRANCH  14  21
ATOM     17  C   UNL     1      43.667   3.135  11.107  0.00  0.00    +0.000 A 
ATOM     18  C   UNL     1      43.574   3.360  12.456  0.00  0.00    +0.000 A 
ATOM     19  N   UNL     1      43.845   4.549  13.029  0.00  0.00    +0.000 NA
ATOM     20  C   UNL     1      44.237   5.551  12.224  0.00  0.00    +0.000 A 
ATOM     21  N   UNL     1      44.424   6.775  12.864  0.00  0.00    +0.000 N 
ATOM     22  N   UNL     1      44.375   5.418  10.893  0.00  0.00    +0.000 NA
ATOM     23  C   UNL     1      44.077   4.213  10.364  0.00  0.00    +0.000 A 
ATOM     24  H   UNL     1      44.416   6.567  13.859  0.00  0.00    +0.000 HD
ENDBRANCH  14  21
ENDBRANCH   1  14
TORSDOF 3
ENDMDL
MODEL 7
REMARK VINA RESULT:    -5.344      2.317      6.612
REMARK INTER + INTRA:          -6.936
REMARK INTER:                  -6.506
REMARK INTRA:                  -0.430
REMARK UNBOUND:                -0.655
REMARK  Name = 
REMARK  3 active torsions:
REMARK  status: ('A' for Active; 'I' for Inactive)
REMARK    1  A    between atoms: N_5  and  C_6
REMARK    2  A    between atoms: C_6  and  C_7
REMARK    3  A    between atoms: C_11  and  N_12
REMARK                            x       y       z     vdW  Elec       q    Type
REMARK                         _______ _______ _______ _____ _____    ______ ____
ROOT
ATOM      1  C   UNL     1      47.960   7.323  12.911  0.00  0.00    +0.000 A 
ATOM      2  C   UNL     1      48.297   6.822  14.176  0.00  0.00    +0.000 A 
ATOM      3  C   UNL     1      47.720   5.651  14.660  0.00  0.00    +0.000 A 
ATOM      4  C   UNL     1      46.780   4.969  13.888  0.00  0.00    +0.000 A 
ATOM      5  C   UNL     1      46.432   5.408  12.605  0.00  0.00    +0.000 A 
ATOM      6  C   UNL     1      47.075   6.557  12.123  0.00  0.00    +0.000 A 
ENDROOT
BRANCH   5   7
ATOM      7  N   UNL     1      45.456   4.777  11.864  0.00  0.00    +0.000 N 
ATOM      8  C   UNL     1      44.578   5.515  10.952  0.00  0.00    +0.000 C 
ATOM      9  C   UNL     1      43.099   5.271  11.316  0.00  0.00    +0.000 C 
ATOM     10  N   UNL     1      42.743   3.836  11.382  0.00  0.00    +0.000 NA
ATOM     11  C   UNL     1      43.650   3.167  12.343  0.00  0.00    +0.000 C 
ATOM     12  C   UNL     1      45.156   3.351  12.028  0.00  0.00    +0.000 C 
ATOM     13  H   UNL     1      42.915   3.432  10.461  0.00  0.00    +0.000 HD
ENDBRANCH   5   7
BRANCH   1  14
ATOM     14  C   UNL     1      48.447   8.699  12.463  0.00  0.00    +0.000 C 
ATOM     15  C   UNL     1      47.412   9.814  12.321  0.00  0.00    +0.000 C 
ATOM     16  C   UNL     1      48.332   9.809  13.493  0.00  0.00    +0.000 C 
BRANCH  14  21
ATOM     17  C   UNL     1      53.512   8.092  11.961  0.00  0.00    +0.000 A 
ATOM     18  C   UNL     1      52.835   7.717  10.829  0.00  0.00    +0.000 A 
ATOM     19  N   UNL     1      51.508   7.890  10.667  0.00  0.00    +0.000 NA
ATOM     20  C   UNL     1      50.827   8.450  11.681  0.00  0.00    +0.000 A 
ATOM     21  N   UNL     1      49.477   8.676  11.421  0.00  0.00    +0.000 N 
ATOM     22  N   UNL     1      51.402   8.831  12.835  0.00  0.00    +0.000 NA
ATOM     23  C   UNL     1      52.735   8.651  12.944  0.00  0.00    +0.000 A 
ATOM     24  H   UNL     1      49.271   8.160  10.570  0.00  0.00    +0.000 HD
ENDBRANCH  14  21
ENDBRANCH   1  14
TORSDOF 3
ENDMDL
MODEL 8
REMARK VINA RESULT:    -5.322      4.160      7.485
REMARK INTER + INTRA:          -6.910
REMARK INTER:                  -6.637
REMARK INTRA:                  -0.273
REMARK UNBOUND:                -0.655
REMARK  Name = 
REMARK  3 active torsions:
REMARK  status: ('A' for Active; 'I' for Inactive)
REMARK    1  A    between atoms: N_5  and  C_6
REMARK    2  A    between atoms: C_6  and  C_7
REMARK    3  A    between atoms: C_11  and  N_12
REMARK                            x       y       z     vdW  Elec       q    Type
REMARK                         _______ _______ _______ _____ _____    ______ ____
ROOT
ATOM      1  C   UNL     1      48.267   5.535  15.992  0.00  0.00    +0.000 A 
ATOM      2  C   UNL     1      49.235   6.511  15.713  0.00  0.00    +0.000 A 
ATOM      3  C   UNL     1      49.310   7.107  14.457  0.00  0.00    +0.000 A 
ATOM      4  C   UNL     1      48.423   6.723  13.452  0.00  0.00    +0.000 A 
ATOM      5  C   UNL     1      47.417   5.779  13.687  0.00  0.00    +0.000 A 
ATOM      6  C   UNL     1      47.330   5.241  14.979  0.00  0.00    +0.000 A 
ENDROOT
BRANCH   5   7
ATOM      7  N   UNL     1      46.581   5.347  12.680  0.00  0.00    +0.000 N 
ATOM      8  C   UNL     1      46.324   6.158  11.486  0.00  0.00    +0.000 C 
ATOM      9  C   UNL     1      44.811   6.404  11.320  0.00  0.00    +0.000 C 
ATOM     10  N   UNL     1      44.013   5.157  11.320  0.00  0.00    +0.000 NA
ATOM     11  C   UNL     1      44.302   4.412  12.568  0.00  0.00    +0.000 C 
ATOM     12  C   UNL     1      45.805   4.108  12.792  0.00  0.00    +0.000 C 
ATOM     13  H   UNL     1      44.331   4.586  10.537  0.00  0.00    +0.000 HD
ENDBRANCH   5   7
BRANCH   1  14
ATOM     14  C   UNL     1      48.307   4.750  17.301  0.00  0.00    +0.000 C 
ATOM     15  C   UNL     1      47.123   4.890  18.257  0.00  0.00    +0.000 C 
ATOM     16  C   UNL     1      47.270   3.650  17.444  0.00  0.00    +0.000 C 
BRANCH  14  21
ATOM     17  C   UNL     1      52.442   1.734  17.576  0.00  0.00    +0.000 A 
ATOM     18  C   UNL     1      52.750   3.050  17.805  0.00  0.00    +0.000 A 
ATOM     19  N   UNL     1      51.822   4.022  17.904  0.00  0.00    +0.000 NA
ATOM     20  C   UNL     1      50.535   3.668  17.755  0.00  0.00    +0.000 A 
ATOM     21  N   UNL     1      49.620   4.702  17.948  0.00  0.00    +0.000 N 
ATOM     22  N   UNL     1      50.140   2.407  17.508  0.00  0.00    +0.000 NA
ATOM     23  C   UNL     1      51.104   1.467  17.434  0.00  0.00    +0.000 A 
ATOM     24  H   UNL     1      50.170   5.557  17.956  0.00  0.00    +0.000 HD
ENDBRANCH  14  21
ENDBRANCH   1  14
TORSDOF 3
ENDMDL
MODEL 9
REMARK VINA RESULT:    -5.287      3.108      5.464
REMARK INTER + INTRA:          -6.870
REMARK INTER:                  -7.232
REMARK INTRA:                   0.363
REMARK UNBOUND:                -0.655
REMARK  Name = 
REMARK  3 active torsions:
REMARK  status: ('A' for Active; 'I' for Inactive)
REMARK    1  A    between atoms: N_5  and  C_6
REMARK    2  A    between atoms: C_6  and  C_7
REMARK    3  A    between atoms: C_11  and  N_12
REMARK                            x       y       z     vdW  Elec       q    Type
REMARK                         _______ _______ _______ _____ _____    ______ ____
ROOT
ATOM      1  C   UNL     1      48.018   6.969  13.746  0.00  0.00    +0.000 A 
ATOM      2  C   UNL     1      49.229   7.656  13.919  0.00  0.00    +0.000 A 
ATOM      3  C   UNL     1      50.032   7.421  15.032  0.00  0.00    +0.000 A 
ATOM      4  C   UNL     1      49.626   6.504  16.001  0.00  0.00    +0.000 A 
ATOM      5  C   UNL     1      48.443   5.768  15.860  0.00  0.00    +0.000 A 
ATOM      6  C   UNL     1      47.687   5.983  14.699  0.00  0.00    +0.000 A 
ENDROOT
BRANCH   5   7
ATOM      7  N   UNL     1      48.004   4.909  16.845  0.00  0.00    +0.000 N 
ATOM      8  C   UNL     1      47.646   5.386  18.184  0.00  0.00    +0.000 C 
ATOM      9  C   UNL     1      48.473   4.645  19.255  0.00  0.00    +0.000 C 
ATOM     10  N   UNL     1      48.377   3.172  19.151  0.00  0.00    +0.000 NA
ATOM     11  C   UNL     1      48.783   2.767  17.785  0.00  0.00    +0.000 C 
ATOM     12  C   UNL     1      47.979   3.456  16.654  0.00  0.00    +0.000 C 
ATOM     13  H   UNL     1      47.397   2.916  19.272  0.00  0.00    +0.000 HD
ENDBRANCH   5   7
BRANCH   1  14
ATOM     14  C   UNL     1      47.053   7.362  12.629  0.00  0.00    +0.000 C 
ATOM     15  C   UNL     1      45.998   8.424  12.935  0.00  0.00    +0.000 C 
ATOM     16  C   UNL     1      47.186   8.782  12.110  0.00  0.00    +0.000 C 
BRANCH  14  21
ATOM     17  C   UNL     1      42.803   4.633  11.753  0.00  0.00    +0.000 A 
ATOM     18  C   UNL     1      43.634   4.654  10.663  0.00  0.00    +0.000 A 
ATOM     19  N   UNL     1      44.864   5.204  10.679  0.00  0.00    +0.000 NA
ATOM     20  C   UNL     1      45.277   5.768  11.826  0.00  0.00    +0.000 A 
ATOM     21  N   UNL     1      46.585   6.247  11.803  0.00  0.00    +0.000 N 
ATOM     22  N   UNL     1      44.524   5.813  12.939  0.00  0.00    +0.000 NA
ATOM     23  C   UNL     1      43.306   5.235  12.879  0.00  0.00    +0.000 A 
ATOM     24  H   UNL     1      46.862   6.240  10.825  0.00  0.00    +0.000 HD
ENDBRANCH  14  21
ENDBRANCH   1  14
TORSDOF 3
ENDMDL
