MODEL 1
REMARK VINA RESULT:    -8.425      0.000      0.000
REMARK INTER + INTRA:         -12.293
REMARK INTER:                 -11.380
REMARK INTRA:                  -0.913
REMARK UNBOUND:                -0.913
REMARK  Name = 
REMARK  6 active torsions:
REMARK  status: ('A' for Active; 'I' for Inactive)
REMARK    1  A    between atoms: C_2  and  C_4
REMARK    2  A    between atoms: C_7  and  O_8
REMARK    3  A    between atoms: O_8  and  C_9
REMARK    4  A    between atoms: C_9  and  C_10
REMARK    5  A    between atoms: C_11  and  C_12
REMARK    6  A    between atoms: C_16  and  C_17
REMARK                            x       y       z     vdW  Elec       q    Type
REMARK                         _______ _______ _______ _____ _____    ______ ____
ROOT
ATOM      1  C   UNL     1      44.732   5.008  12.056  0.00  0.00    +0.000 C 
ATOM      2  C   UNL     1      45.811   4.461  12.636  0.00  0.00    +0.000 C 
ENDROOT
BRANCH   2   3
ATOM      3  C   UNL     1      46.792   5.211  13.422  0.00  0.00    +0.000 A 
ATOM      4  C   UNL     1      47.430   6.356  12.937  0.00  0.00    +0.000 A 
ATOM      5  C   UNL     1      48.362   7.022  13.725  0.00  0.00    +0.000 A 
ATOM      6  C   UNL     1      48.680   6.536  14.996  0.00  0.00    +0.000 A 
ATOM      7  C   UNL     1      48.050   5.397  15.535  0.00  0.00    +0.000 A 
ATOM      8  C   UNL     1      47.104   4.753  14.715  0.00  0.00    +0.000 A 
BRANCH   7   9
ATOM      9  C   UNL     1      48.290   4.974  16.945  0.00  0.00    +0.000 A 
ATOM     10  C   UNL     1      48.276   5.968  17.953  0.00  0.00    +0.000 A 
ATOM     11  C   UNL     1      48.411   5.662  19.310  0.00  0.00    +0.000 A 
ATOM     12  C   UNL     1      48.538   4.341  19.711  0.00  0.00    +0.000 A 
ATOM     13  C   UNL     1      48.574   3.336  18.751  0.00  0.00    +0.000 A 
ATOM     14  C   UNL     1      48.480   3.644  17.382  0.00  0.00    +0.000 A 
ATOM     15 CL   UNL     1      48.673   2.297  16.306  0.00  0.00    +0.000 Cl
ENDBRANCH   7   9
ENDBRANCH   2   3
BRANCH   1  16
ATOM     16  C   UNL     1      43.679   4.217  11.353  0.00  0.00    +0.000 C 
BRANCH  16  17
ATOM     17  O   UNL     1      43.656   4.615   9.983  0.00  0.00    +0.000 OA
BRANCH  17  21
ATOM     18  C   UNL     1      46.373   2.460   7.769  0.00  0.00    +0.000 A 
ATOM     19  C   UNL     1      45.550   1.799   8.687  0.00  0.00    +0.000 A 
ATOM     20  C   UNL     1      44.633   2.541   9.433  0.00  0.00    +0.000 A 
ATOM     21  C   UNL     1      44.573   3.910   9.230  0.00  0.00    +0.000 A 
ATOM     22  N   UNL     1      45.364   4.574   8.359  0.00  0.00    +0.000 NA
ATOM     23  C   UNL     1      46.251   3.836   7.657  0.00  0.00    +0.000 A 
BRANCH  18  25
ATOM     24  N   UNL     1      48.415   2.518   6.459  0.00  0.00    +0.000 N 
ATOM     25  C   UNL     1      47.372   1.772   6.926  0.00  0.00    +0.000 C 
ATOM     26  O   UNL     1      47.291   0.574   6.693  0.00  0.00    +0.000 OA
ATOM     27  H   UNL     1      49.151   2.005   5.990  0.00  0.00    +0.000 HD
ATOM     28  H   UNL     1      48.651   3.422   6.843  0.00  0.00    +0.000 HD
ENDBRANCH  18  25
ENDBRANCH  17  21
ENDBRANCH  16  17
ENDBRANCH   1  16
TORSDOF 6
ENDMDL
MODEL 2
REMARK VINA RESULT:    -8.316      2.688      4.786
REMARK INTER + INTRA:         -12.146
REMARK INTER:                 -11.144
REMARK INTRA:                  -1.002
REMARK UNBOUND:                -0.913
REMARK  Name = 
REMARK  6 active torsions:
REMARK  status: ('A' for Active; 'I' for Inactive)
REMARK    1  A    between atoms: C_2  and  C_4
REMARK    2  A    between atoms: C_7  and  O_8
REMARK    3  A    between atoms: O_8  and  C_9
REMARK    4  A    between atoms: C_9  and  C_10
REMARK    5  A    between atoms: C_11  and  C_12
REMARK    6  A    between atoms: C_16  and  C_17
REMARK                            x       y       z     vdW  Elec       q    Type
REMARK                         _______ _______ _______ _____ _____    ______ ____
ROOT
ATOM      1  C   UNL     1      44.817   3.466  12.272  0.00  0.00    +0.000 C 
ATOM      2  C   UNL     1      44.793   4.764  12.608  0.00  0.00    +0.000 C 
ENDROOT
BRANCH   2   3
ATOM      3  C   UNL     1      45.954   5.508  13.102  0.00  0.00    +0.000 A 
ATOM      4  C   UNL     1      46.756   5.044  14.148  0.00  0.00    +0.000 A 
ATOM      5  C   UNL     1      47.840   5.799  14.582  0.00  0.00    +0.000 A 
ATOM      6  C   UNL     1      48.116   7.034  13.990  0.00  0.00    +0.000 A 
ATOM      7  C   UNL     1      47.347   7.534  12.920  0.00  0.00    +0.000 A 
ATOM      8  C   UNL     1      46.264   6.739  12.499  0.00  0.00    +0.000 A 
BRANCH   7   9
ATOM      9  C   UNL     1      47.740   8.780  12.201  0.00  0.00    +0.000 A 
ATOM     10  C   UNL     1      46.811   9.847  12.157  0.00  0.00    +0.000 A 
ATOM     11  C   UNL     1      47.115  11.083  11.578  0.00  0.00    +0.000 A 
ATOM     12  C   UNL     1      48.375  11.304  11.043  0.00  0.00    +0.000 A 
ATOM     13  C   UNL     1      49.310  10.274  11.049  0.00  0.00    +0.000 A 
ATOM     14  C   UNL     1      48.994   9.017  11.594  0.00  0.00    +0.000 A 
ATOM     15 CL   UNL     1      50.217   7.801  11.409  0.00  0.00    +0.000 Cl
ENDBRANCH   7   9
ENDBRANCH   2   3
BRANCH   1  16
ATOM     16  C   UNL     1      43.658   2.747  11.664  0.00  0.00    +0.000 C 
BRANCH  16  17
ATOM     17  O   UNL     1      43.370   3.344  10.401  0.00  0.00    +0.000 OA
BRANCH  17  21
ATOM     18  C   UNL     1      46.330   2.652   7.628  0.00  0.00    +0.000 A 
ATOM     19  C   UNL     1      45.836   3.948   7.803  0.00  0.00    +0.000 A 
ATOM     20  C   UNL     1      44.831   4.171   8.746  0.00  0.00    +0.000 A 
ATOM     21  C   UNL     1      44.364   3.091   9.476  0.00  0.00    +0.000 A 
ATOM     22  N   UNL     1      44.815   1.828   9.320  0.00  0.00    +0.000 NA
ATOM     23  C   UNL     1      45.779   1.636   8.393  0.00  0.00    +0.000 A 
BRANCH  18  25
ATOM     24  N   UNL     1      47.470   3.053   5.524  0.00  0.00    +0.000 N 
ATOM     25  C   UNL     1      47.394   2.307   6.664  0.00  0.00    +0.000 C 
ATOM     26  O   UNL     1      48.202   1.419   6.899  0.00  0.00    +0.000 OA
ATOM     27  H   UNL     1      48.278   2.883   4.937  0.00  0.00    +0.000 HD
ATOM     28  H   UNL     1      47.001   3.942   5.424  0.00  0.00    +0.000 HD
ENDBRANCH  18  25
ENDBRANCH  17  21
ENDBRANCH  16  17
ENDBRANCH   1  16
TORSDOF 6
ENDMDL
MODEL 3
REMARK VINA RESULT:    -8.243      2.325      4.319
REMARK INTER + INTRA:         -12.047
REMARK INTER:                 -10.875
REMARK INTRA:                  -1.172
REMARK UNBOUND:                -0.913
REMARK  Name = 
REMARK  6 active torsions:
REMARK  status: ('A' for Active; 'I' for Inactive)
REMARK    1  A    between atoms: C_2  and  C_4
REMARK    2  A    between atoms: C_7  and  O_8
REMARK    3  A    between atoms: O_8  and  C_9
REMARK    4  A    between atoms: C_9  and  C_10
REMARK    5  A    between atoms: C_11  and  C_12
REMARK    6  A    between atoms: C_16  and  C_17
REMARK                            x       y       z     vdW  Elec       q    Type
REMARK                         _______ _______ _______ _____ _____    ______ ____
ROOT
ATOM      1  C   UNL     1      44.661   4.074  12.285  0.00  0.00    +0.000 C 
ATOM      2  C   UNL     1      45.814   3.698  12.857  0.00  0.00    +0.000 C 
ENDROOT
BRANCH   2   3
ATOM      3  C   UNL     1      46.697   4.600  13.599  0.00  0.00    +0.000 A 
ATOM      4  C   UNL     1      47.089   4.355  14.917  0.00  0.00    +0.000 A 
ATOM      5  C   UNL     1      47.921   5.254  15.576  0.00  0.00    +0.000 A 
ATOM      6  C   UNL     1      48.350   6.416  14.928  0.00  0.00    +0.000 A 
ATOM      7  C   UNL     1      47.996   6.696  13.594  0.00  0.00    +0.000 A 
ATOM      8  C   UNL     1      47.162   5.760  12.954  0.00  0.00    +0.000 A 
BRANCH   7   9
ATOM      9  C   UNL     1      48.578   7.862  12.868  0.00  0.00    +0.000 A 
ATOM     10  C   UNL     1      49.969   7.863  12.608  0.00  0.00    +0.000 A 
ATOM     11  C   UNL     1      50.594   8.870  11.866  0.00  0.00    +0.000 A 
ATOM     12  C   UNL     1      49.839   9.903  11.332  0.00  0.00    +0.000 A 
ATOM     13  C   UNL     1      48.471   9.949  11.580  0.00  0.00    +0.000 A 
ATOM     14  C   UNL     1      47.847   8.960  12.360  0.00  0.00    +0.000 A 
ATOM     15 CL   UNL     1      46.165   9.228  12.687  0.00  0.00    +0.000 Cl
ENDBRANCH   7   9
ENDBRANCH   2   3
BRANCH   1  16
ATOM     16  C   UNL     1      43.714   3.125  11.628  0.00  0.00    +0.000 C 
BRANCH  16  17
ATOM     17  O   UNL     1      43.416   3.617  10.322  0.00  0.00    +0.000 OA
BRANCH  17  21
ATOM     18  C   UNL     1      46.357   2.584   7.637  0.00  0.00    +0.000 A 
ATOM     19  C   UNL     1      45.766   1.595   8.430  0.00  0.00    +0.000 A 
ATOM     20  C   UNL     1      44.770   1.957   9.338  0.00  0.00    +0.000 A 
ATOM     21  C   UNL     1      44.403   3.291   9.414  0.00  0.00    +0.000 A 
ATOM     22  N   UNL     1      44.965   4.267   8.670  0.00  0.00    +0.000 NA
ATOM     23  C   UNL     1      45.934   3.893   7.807  0.00  0.00    +0.000 A 
BRANCH  18  25
ATOM     24  N   UNL     1      47.354   2.993   5.463  0.00  0.00    +0.000 N 
ATOM     25  C   UNL     1      47.413   2.310   6.643  0.00  0.00    +0.000 C 
ATOM     26  O   UNL     1      48.329   1.535   6.883  0.00  0.00    +0.000 OA
ATOM     27  H   UNL     1      48.150   2.885   4.848  0.00  0.00    +0.000 HD
ATOM     28  H   UNL     1      46.779   3.815   5.340  0.00  0.00    +0.000 HD
ENDBRANCH  18  25
ENDBRANCH  17  21
ENDBRANCH  16  17
ENDBRANCH   1  16
TORSDOF 6
ENDMDL
MODEL 4
REMARK VINA RESULT:    -8.143      1.235      1.584
REMARK INTER + INTRA:         -11.912
REMARK INTER:                 -11.446
REMARK INTRA:                  -0.467
REMARK UNBOUND:                -0.913
REMARK  Name = 
REMARK  6 active torsions:
REMARK  status: ('A' for Active; 'I' for Inactive)
REMARK    1  A    between atoms: C_2  and  C_4
REMARK    2  A    between atoms: C_7  and  O_8
REMARK    3  A    between atoms: O_8  and  C_9
REMARK    4  A    between atoms: C_9  and  C_10
REMARK    5  A    between atoms: C_11  and  C_12
REMARK    6  A    between atoms: C_16  and  C_17
REMARK                            x       y       z     vdW  Elec       q    Type
REMARK                         _______ _______ _______ _____ _____    ______ ____
ROOT
ATOM      1  C   UNL     1      44.645   4.253  12.121  0.00  0.00    +0.000 C 
ATOM      2  C   UNL     1      45.325   5.388  11.903  0.00  0.00    +0.000 C 
ENDROOT
BRANCH   2   3
ATOM      3  C   UNL     1      46.420   5.867  12.750  0.00  0.00    +0.000 A 
ATOM      4  C   UNL     1      47.212   6.966  12.408  0.00  0.00    +0.000 A 
ATOM      5  C   UNL     1      48.245   7.369  13.247  0.00  0.00    +0.000 A 
ATOM      6  C   UNL     1      48.509   6.662  14.423  0.00  0.00    +0.000 A 
ATOM      7  C   UNL     1      47.725   5.560  14.818  0.00  0.00    +0.000 A 
ATOM      8  C   UNL     1      46.681   5.186  13.951  0.00  0.00    +0.000 A 
BRANCH   7   9
ATOM      9  C   UNL     1      47.923   4.906  16.144  0.00  0.00    +0.000 A 
ATOM     10  C   UNL     1      47.674   3.517  16.249  0.00  0.00    +0.000 A 
ATOM     11  C   UNL     1      47.908   2.799  17.427  0.00  0.00    +0.000 A 
ATOM     12  C   UNL     1      48.426   3.446  18.538  0.00  0.00    +0.000 A 
ATOM     13  C   UNL     1      48.667   4.815  18.482  0.00  0.00    +0.000 A 
ATOM     14  C   UNL     1      48.395   5.547  17.313  0.00  0.00    +0.000 A 
ATOM     15 CL   UNL     1      48.624   7.261  17.443  0.00  0.00    +0.000 Cl
ENDBRANCH   7   9
ENDBRANCH   2   3
BRANCH   1  16
ATOM     16  C   UNL     1      43.608   3.718  11.190  0.00  0.00    +0.000 C 
BRANCH  16  17
ATOM     17  O   UNL     1      43.724   4.403   9.944  0.00  0.00    +0.000 OA
BRANCH  17  21
ATOM     18  C   UNL     1      46.554   2.627   7.542  0.00  0.00    +0.000 A 
ATOM     19  C   UNL     1      45.775   1.837   8.393  0.00  0.00    +0.000 A 
ATOM     20  C   UNL     1      44.818   2.451   9.203  0.00  0.00    +0.000 A 
ATOM     21  C   UNL     1      44.678   3.827   9.129  0.00  0.00    +0.000 A 
ATOM     22  N   UNL     1      45.424   4.614   8.326  0.00  0.00    +0.000 NA
ATOM     23  C   UNL     1      46.350   3.999   7.559  0.00  0.00    +0.000 A 
BRANCH  18  25
ATOM     24  N   UNL     1      47.987   2.868   5.599  0.00  0.00    +0.000 N 
ATOM     25  C   UNL     1      47.587   2.082   6.640  0.00  0.00    +0.000 C 
ATOM     26  O   UNL     1      48.097   0.988   6.844  0.00  0.00    +0.000 OA
ATOM     27  H   UNL     1      48.780   2.530   5.068  0.00  0.00    +0.000 HD
ATOM     28  H   UNL     1      47.786   3.857   5.558  0.00  0.00    +0.000 HD
ENDBRANCH  18  25
ENDBRANCH  17  21
ENDBRANCH  16  17
ENDBRANCH   1  16
TORSDOF 6
ENDMDL
MODEL 5
REMARK VINA RESULT:    -7.772      3.756      4.512
REMARK INTER + INTRA:         -11.411
REMARK INTER:                 -10.339
REMARK INTRA:                  -1.072
REMARK UNBOUND:                -0.913
REMARK  Name = 
REMARK  6 active torsions:
REMARK  status: ('A' for Active; 'I' for Inactive)
REMARK    1  A    between atoms: C_2  and  C_4
REMARK    2  A    between atoms: C_7  and  O_8
REMARK    3  A    between atoms: O_8  and  C_9
REMARK    4  A    between atoms: C_9  and  C_10
REMARK    5  A    between atoms: C_11  and  C_12
REMARK    6  A    between atoms: C_16  and  C_17
REMARK                            x       y       z     vdW  Elec       q    Type
REMARK                         _______ _______ _______ _____ _____    ______ ____
ROOT
ATOM      1  C   UNL     1      45.018   5.539  11.836  0.00  0.00    +0.000 C 
ATOM      2  C   UNL     1      44.559   6.784  11.639  0.00  0.00    +0.000 C 
ENDROOT
BRANCH   2   3
ATOM      3  C   UNL     1      45.371   7.993  11.793  0.00  0.00    +0.000 A 
ATOM      4  C   UNL     1      44.834   9.279  11.691  0.00  0.00    +0.000 A 
ATOM      5  C   UNL     1      45.656  10.391  11.836  0.00  0.00    +0.000 A 
ATOM      6  C   UNL     1      47.025  10.226  12.061  0.00  0.00    +0.000 A 
ATOM      7  C   UNL     1      47.608   8.950  12.190  0.00  0.00    +0.000 A 
ATOM      8  C   UNL     1      46.746   7.847  12.049  0.00  0.00    +0.000 A 
BRANCH   7   9
ATOM      9  C   UNL     1      49.040   8.790  12.575  0.00  0.00    +0.000 A 
ATOM     10  C   UNL     1      49.972   8.459  11.562  0.00  0.00    +0.000 A 
ATOM     11  C   UNL     1      51.345   8.366  11.808  0.00  0.00    +0.000 A 
ATOM     12  C   UNL     1      51.840   8.628  13.077  0.00  0.00    +0.000 A 
ATOM     13  C   UNL     1      50.955   8.937  14.104  0.00  0.00    +0.000 A 
ATOM     14  C   UNL     1      49.570   8.992  13.870  0.00  0.00    +0.000 A 
ATOM     15 CL   UNL     1      48.591   9.260  15.277  0.00  0.00    +0.000 Cl
ENDBRANCH   7   9
ENDBRANCH   2   3
BRANCH   1  16
ATOM     16  C   UNL     1      44.215   4.309  11.567  0.00  0.00    +0.000 C 
BRANCH  16  17
ATOM     17  O   UNL     1      43.787   4.338  10.207  0.00  0.00    +0.000 OA
BRANCH  17  21
ATOM     18  C   UNL     1      46.479   2.504   7.694  0.00  0.00    +0.000 A 
ATOM     19  C   UNL     1      46.305   3.889   7.627  0.00  0.00    +0.000 A 
ATOM     20  C   UNL     1      45.388   4.501   8.484  0.00  0.00    +0.000 A 
ATOM     21  C   UNL     1      44.686   3.704   9.373  0.00  0.00    +0.000 A 
ATOM     22  N   UNL     1      44.826   2.363   9.451  0.00  0.00    +0.000 NA
ATOM     23  C   UNL     1      45.711   1.793   8.604  0.00  0.00    +0.000 A 
BRANCH  18  25
ATOM     24  N   UNL     1      48.543   2.418   6.421  0.00  0.00    +0.000 N 
ATOM     25  C   UNL     1      47.425   1.758   6.840  0.00  0.00    +0.000 C 
ATOM     26  O   UNL     1      47.236   0.583   6.556  0.00  0.00    +0.000 OA
ATOM     27  H   UNL     1      49.236   1.856   5.943  0.00  0.00    +0.000 HD
ATOM     28  H   UNL     1      48.856   3.280   6.846  0.00  0.00    +0.000 HD
ENDBRANCH  18  25
ENDBRANCH  17  21
ENDBRANCH  16  17
ENDBRANCH   1  16
TORSDOF 6
ENDMDL
MODEL 6
REMARK VINA RESULT:    -7.515      4.866      8.723
REMARK INTER + INTRA:         -11.063
REMARK INTER:                 -10.185
REMARK INTRA:                  -0.878
REMARK UNBOUND:                -0.913
REMARK  Name = 
REMARK  6 active torsions:
REMARK  status: ('A' for Active; 'I' for Inactive)
REMARK    1  A    between atoms: C_2  and  C_4
REMARK    2  A    between atoms: C_7  and  O_8
REMARK    3  A    between atoms: O_8  and  C_9
REMARK    4  A    between atoms: C_9  and  C_10
REMARK    5  A    between atoms: C_11  and  C_12
REMARK    6  A    between atoms: C_16  and  C_17
REMARK                            x       y       z     vdW  Elec       q    Type
REMARK                         _______ _______ _______ _____ _____    ______ ____
ROOT
ATOM      1  C   UNL     1      48.335   6.546  15.031  0.00  0.00    +0.000 C 
ATOM      2  C   UNL     1      48.290   7.033  13.782  0.00  0.00    +0.000 C 
ENDROOT
BRANCH   2   3
ATOM      3  C   UNL     1      47.070   7.126  12.978  0.00  0.00    +0.000 A 
ATOM      4  C   UNL     1      46.270   8.271  12.953  0.00  0.00    +0.000 A 
ATOM      5  C   UNL     1      45.115   8.299  12.178  0.00  0.00    +0.000 A 
ATOM      6  C   UNL     1      44.740   7.173  11.440  0.00  0.00    +0.000 A 
ATOM      7  C   UNL     1      45.525   6.003  11.419  0.00  0.00    +0.000 A 
ATOM      8  C   UNL     1      46.692   6.014  12.206  0.00  0.00    +0.000 A 
BRANCH   7   9
ATOM      9  C   UNL     1      45.192   4.865  10.515  0.00  0.00    +0.000 A 
ATOM     10  C   UNL     1      45.605   4.941   9.163  0.00  0.00    +0.000 A 
ATOM     11  C   UNL     1      45.411   3.893   8.258  0.00  0.00    +0.000 A 
ATOM     12  C   UNL     1      44.818   2.714   8.684  0.00  0.00    +0.000 A 
ATOM     13  C   UNL     1      44.381   2.606  10.000  0.00  0.00    +0.000 A 
ATOM     14  C   UNL     1      44.538   3.673  10.902  0.00  0.00    +0.000 A 
ATOM     15 CL   UNL     1      43.825   3.433  12.464  0.00  0.00    +0.000 Cl
ENDBRANCH   7   9
ENDBRANCH   2   3
BRANCH   1  16
ATOM     16  C   UNL     1      49.562   6.559  15.881  0.00  0.00    +0.000 C 
BRANCH  16  17
ATOM     17  O   UNL     1      49.267   5.892  17.107  0.00  0.00    +0.000 OA
BRANCH  17  21
ATOM     18  C   UNL     1      51.546   2.496  17.561  0.00  0.00    +0.000 A 
ATOM     19  C   UNL     1      52.119   3.749  17.795  0.00  0.00    +0.000 A 
ATOM     20  C   UNL     1      51.336   4.895  17.637  0.00  0.00    +0.000 A 
ATOM     21  C   UNL     1      50.014   4.740  17.255  0.00  0.00    +0.000 A 
ATOM     22  N   UNL     1      49.439   3.543  17.012  0.00  0.00    +0.000 NA
ATOM     23  C   UNL     1      50.219   2.451  17.160  0.00  0.00    +0.000 A 
BRANCH  18  25
ATOM     24  N   UNL     1      51.582   0.148  18.173  0.00  0.00    +0.000 N 
ATOM     25  C   UNL     1      52.280   1.223  17.705  0.00  0.00    +0.000 C 
ATOM     26  O   UNL     1      53.454   1.125  17.375  0.00  0.00    +0.000 OA
ATOM     27  H   UNL     1      52.067  -0.740  18.147  0.00  0.00    +0.000 HD
ATOM     28  H   UNL     1      50.572   0.126  18.200  0.00  0.00    +0.000 HD
ENDBRANCH  18  25
ENDBRANCH  17  21
ENDBRANCH  16  17
ENDBRANCH   1  16
TORSDOF 6
ENDMDL
MODEL 7
REMARK VINA RESULT:    -7.378      2.362      2.777
REMARK INTER + INTRA:         -10.879
REMARK INTER:                  -9.920
REMARK INTRA:                  -0.958
REMARK UNBOUND:                -0.913
REMARK  Name = 
REMARK  6 active torsions:
REMARK  status: ('A' for Active; 'I' for Inactive)
REMARK    1  A    between atoms: C_2  and  C_4
REMARK    2  A    between atoms: C_7  and  O_8
REMARK    3  A    between atoms: O_8  and  C_9
REMARK    4  A    between atoms: C_9  and  C_10
REMARK    5  A    between atoms: C_11  and  C_12
REMARK    6  A    between atoms: C_16  and  C_17
REMARK                            x       y       z     vdW  Elec       q    Type
REMARK                         _______ _______ _______ _____ _____    ______ ____
ROOT
ATOM      1  C   UNL     1      45.416   5.768  11.669  0.00  0.00    +0.000 C 
ATOM      2  C   UNL     1      46.513   5.595  12.423  0.00  0.00    +0.000 C 
ENDROOT
BRANCH   2   3
ATOM      3  C   UNL     1      47.497   6.645  12.696  0.00  0.00    +0.000 A 
ATOM      4  C   UNL     1      48.150   7.348  11.681  0.00  0.00    +0.000 A 
ATOM      5  C   UNL     1      49.083   8.328  12.000  0.00  0.00    +0.000 A 
ATOM      6  C   UNL     1      49.388   8.596  13.337  0.00  0.00    +0.000 A 
ATOM      7  C   UNL     1      48.742   7.926  14.395  0.00  0.00    +0.000 A 
ATOM      8  C   UNL     1      47.795   6.948  14.036  0.00  0.00    +0.000 A 
BRANCH   7   9
ATOM      9  C   UNL     1      48.968   8.323  15.815  0.00  0.00    +0.000 A 
ATOM     10  C   UNL     1      48.096   9.278  16.390  0.00  0.00    +0.000 A 
ATOM     11  C   UNL     1      48.177   9.655  17.734  0.00  0.00    +0.000 A 
ATOM     12  C   UNL     1      49.121   9.065  18.561  0.00  0.00    +0.000 A 
ATOM     13  C   UNL     1      50.009   8.136  18.031  0.00  0.00    +0.000 A 
ATOM     14  C   UNL     1      49.957   7.785  16.670  0.00  0.00    +0.000 A 
ATOM     15 CL   UNL     1      51.212   6.715  16.133  0.00  0.00    +0.000 Cl
ENDBRANCH   7   9
ENDBRANCH   2   3
BRANCH   1  16
ATOM     16  C   UNL     1      44.363   4.725  11.490  0.00  0.00    +0.000 C 
BRANCH  16  17
ATOM     17  O   UNL     1      43.958   4.725  10.122  0.00  0.00    +0.000 OA
BRANCH  17  21
ATOM     18  C   UNL     1      46.431   2.426   7.771  0.00  0.00    +0.000 A 
ATOM     19  C   UNL     1      46.405   3.813   7.597  0.00  0.00    +0.000 A 
ATOM     20  C   UNL     1      45.562   4.583   8.400  0.00  0.00    +0.000 A 
ATOM     21  C   UNL     1      44.782   3.936   9.344  0.00  0.00    +0.000 A 
ATOM     22  N   UNL     1      44.779   2.598   9.525  0.00  0.00    +0.000 NA
ATOM     23  C   UNL     1      45.595   1.874   8.729  0.00  0.00    +0.000 A 
BRANCH  18  25
ATOM     24  N   UNL     1      48.413   2.055   6.420  0.00  0.00    +0.000 N 
ATOM     25  C   UNL     1      47.289   1.521   6.981  0.00  0.00    +0.000 C 
ATOM     26  O   UNL     1      47.028   0.330   6.872  0.00  0.00    +0.000 OA
ATOM     27  H   UNL     1      49.049   1.396   5.990  0.00  0.00    +0.000 HD
ATOM     28  H   UNL     1      48.790   2.947   6.705  0.00  0.00    +0.000 HD
ENDBRANCH  18  25
ENDBRANCH  17  21
ENDBRANCH  16  17
ENDBRANCH   1  16
TORSDOF 6
ENDMDL
MODEL 8
REMARK VINA RESULT:    -6.928      4.406      8.646
REMARK INTER + INTRA:         -10.271
REMARK INTER:                  -9.252
REMARK INTRA:                  -1.019
REMARK UNBOUND:                -0.913
REMARK  Name = 
REMARK  6 active torsions:
REMARK  status: ('A' for Active; 'I' for Inactive)
REMARK    1  A    between atoms: C_2  and  C_4
REMARK    2  A    between atoms: C_7  and  O_8
REMARK    3  A    between atoms: O_8  and  C_9
REMARK    4  A    between atoms: C_9  and  C_10
REMARK    5  A    between atoms: C_11  and  C_12
REMARK    6  A    between atoms: C_16  and  C_17
REMARK                            x       y       z     vdW  Elec       q    Type
REMARK                         _______ _______ _______ _____ _____    ______ ____
ROOT
ATOM      1  C   UNL     1      49.155   8.132  14.211  0.00  0.00    +0.000 C 
ATOM      2  C   UNL     1      48.480   7.096  13.690  0.00  0.00    +0.000 C 
ENDROOT
BRANCH   2   3
ATOM      3  C   UNL     1      47.231   7.223  12.937  0.00  0.00    +0.000 A 
ATOM      4  C   UNL     1      46.465   8.392  12.938  0.00  0.00    +0.000 A 
ATOM      5  C   UNL     1      45.281   8.451  12.211  0.00  0.00    +0.000 A 
ATOM      6  C   UNL     1      44.842   7.334  11.496  0.00  0.00    +0.000 A 
ATOM      7  C   UNL     1      45.589   6.140  11.449  0.00  0.00    +0.000 A 
ATOM      8  C   UNL     1      46.787   6.119  12.188  0.00  0.00    +0.000 A 
BRANCH   7   9
ATOM      9  C   UNL     1      45.185   5.008  10.566  0.00  0.00    +0.000 A 
ATOM     10  C   UNL     1      45.564   5.054   9.204  0.00  0.00    +0.000 A 
ATOM     11  C   UNL     1      45.302   4.006   8.316  0.00  0.00    +0.000 A 
ATOM     12  C   UNL     1      44.672   2.858   8.770  0.00  0.00    +0.000 A 
ATOM     13  C   UNL     1      44.266   2.780  10.098  0.00  0.00    +0.000 A 
ATOM     14  C   UNL     1      44.491   3.849  10.983  0.00  0.00    +0.000 A 
ATOM     15 CL   UNL     1      43.811   3.654  12.567  0.00  0.00    +0.000 Cl
ENDBRANCH   7   9
ENDBRANCH   2   3
BRANCH   1  16
ATOM     16  C   UNL     1      50.484   8.002  14.879  0.00  0.00    +0.000 C 
BRANCH  16  17
ATOM     17  O   UNL     1      50.289   8.089  16.290  0.00  0.00    +0.000 OA
BRANCH  17  21
ATOM     18  C   UNL     1      48.627   4.665  17.853  0.00  0.00    +0.000 A 
ATOM     19  C   UNL     1      48.033   5.903  18.115  0.00  0.00    +0.000 A 
ATOM     20  C   UNL     1      48.606   7.058  17.579  0.00  0.00    +0.000 A 
ATOM     21  C   UNL     1      49.746   6.928  16.804  0.00  0.00    +0.000 A 
ATOM     22  N   UNL     1      50.347   5.747  16.545  0.00  0.00    +0.000 NA
ATOM     23  C   UNL     1      49.780   4.645  17.083  0.00  0.00    +0.000 A 
BRANCH  18  25
ATOM     24  N   UNL     1      48.419   3.043  19.646  0.00  0.00    +0.000 N 
ATOM     25  C   UNL     1      48.101   3.383  18.363  0.00  0.00    +0.000 C 
ATOM     26  O   UNL     1      47.373   2.676  17.679  0.00  0.00    +0.000 OA
ATOM     27  H   UNL     1      47.950   2.226  20.017  0.00  0.00    +0.000 HD
ATOM     28  H   UNL     1      48.785   3.711  20.310  0.00  0.00    +0.000 HD
ENDBRANCH  18  25
ENDBRANCH  17  21
ENDBRANCH  16  17
ENDBRANCH   1  16
TORSDOF 6
ENDMDL
MODEL 9
REMARK VINA RESULT:    -6.356      3.891      6.428
REMARK INTER + INTRA:          -9.499
REMARK INTER:                  -8.707
REMARK INTRA:                  -0.792
REMARK UNBOUND:                -0.913
REMARK  Name = 
REMARK  6 active torsions:
REMARK  status: ('A' for Active; 'I' for Inactive)
REMARK    1  A    between atoms: C_2  and  C_4
REMARK    2  A    between atoms: C_7  and  O_8
REMARK    3  A    between atoms: O_8  and  C_9
REMARK    4  A    between atoms: C_9  and  C_10
REMARK    5  A    between atoms: C_11  and  C_12
REMARK    6  A    between atoms: C_16  and  C_17
REMARK                            x       y       z     vdW  Elec       q    Type
REMARK                         _______ _______ _______ _____ _____    ______ ____
ROOT
ATOM      1  C   UNL     1      47.684   4.954  16.952  0.00  0.00    +0.000 C 
ATOM      2  C   UNL     1      47.197   4.949  18.202  0.00  0.00    +0.000 C 
ENDROOT
BRANCH   2   3
ATOM      3  C   UNL     1      47.538   5.943  19.221  0.00  0.00    +0.000 A 
ATOM      4  C   UNL     1      48.092   5.597  20.456  0.00  0.00    +0.000 A 
ATOM      5  C   UNL     1      48.386   6.584  21.390  0.00  0.00    +0.000 A 
ATOM      6  C   UNL     1      48.107   7.924  21.106  0.00  0.00    +0.000 A 
ATOM      7  C   UNL     1      47.567   8.323  19.867  0.00  0.00    +0.000 A 
ATOM      8  C   UNL     1      47.292   7.299  18.941  0.00  0.00    +0.000 A 
BRANCH   7   9
ATOM      9  C   UNL     1      47.411   9.765  19.520  0.00  0.00    +0.000 A 
ATOM     10  C   UNL     1      48.074  10.251  18.367  0.00  0.00    +0.000 A 
ATOM     11  C   UNL     1      47.926  11.565  17.915  0.00  0.00    +0.000 A 
ATOM     12  C   UNL     1      47.084  12.437  18.588  0.00  0.00    +0.000 A 
ATOM     13  C   UNL     1      46.428  12.004  19.736  0.00  0.00    +0.000 A 
ATOM     14  C   UNL     1      46.607  10.695  20.217  0.00  0.00    +0.000 A 
ATOM     15 CL   UNL     1      45.828  10.349  21.727  0.00  0.00    +0.000 Cl
ENDBRANCH   7   9
ENDBRANCH   2   3
BRANCH   1  16
ATOM     16  C   UNL     1      47.244   4.003  15.889  0.00  0.00    +0.000 C 
BRANCH  16  17
ATOM     17  O   UNL     1      47.754   4.459  14.637  0.00  0.00    +0.000 OA
BRANCH  17  21
ATOM     18  C   UNL     1      44.783   4.900  11.824  0.00  0.00    +0.000 A 
ATOM     19  C   UNL     1      45.477   6.026  12.279  0.00  0.00    +0.000 A 
ATOM     20  C   UNL     1      46.482   5.864  13.234  0.00  0.00    +0.000 A 
ATOM     21  C   UNL     1      46.755   4.586  13.692  0.00  0.00    +0.000 A 
ATOM     22  N   UNL     1      46.093   3.484  13.279  0.00  0.00    +0.000 NA
ATOM     23  C   UNL     1      45.117   3.667  12.363  0.00  0.00    +0.000 A 
BRANCH  18  25
ATOM     24  N   UNL     1      44.030   4.598   9.537  0.00  0.00    +0.000 N 
ATOM     25  C   UNL     1      43.709   4.958  10.814  0.00  0.00    +0.000 C 
ATOM     26  O   UNL     1      42.565   5.272  11.117  0.00  0.00    +0.000 OA
ATOM     27  H   UNL     1      43.256   4.525   8.889  0.00  0.00    +0.000 HD
ATOM     28  H   UNL     1      44.875   4.091   9.313  0.00  0.00    +0.000 HD
ENDBRANCH  18  25
ENDBRANCH  17  21
ENDBRANCH  16  17
ENDBRANCH   1  16
TORSDOF 6
ENDMDL
