MODEL 1
REMARK VINA RESULT:    -8.079      0.000      0.000
REMARK INTER + INTRA:         -10.149
REMARK INTER:                  -9.496
REMARK INTRA:                  -0.654
REMARK UNBOUND:                -0.654
REMARK  Name = 
REMARK  3 active torsions:
REMARK  status: ('A' for Active; 'I' for Inactive)
REMARK    1  A    between atoms: C_5  and  O_6
REMARK    2  A    between atoms: O_6  and  C_7
REMARK    3  A    between atoms: C_7  and  C_8
REMARK                            x       y       z     vdW  Elec       q    Type
REMARK                         _______ _______ _______ _____ _____    ______ ____
ROOT
ATOM      1  C   UNL     1      45.023   4.765  12.246  0.00  0.00    +0.000 A 
ATOM      2  C   UNL     1      45.553   3.627  12.849  0.00  0.00    +0.000 A 
ATOM      3  C   UNL     1      46.760   3.717  13.518  0.00  0.00    +0.000 A 
ATOM      4  N   UNL     1      47.483   4.851  13.615  0.00  0.00    +0.000 NA
ATOM      5  C   UNL     1      46.977   5.978  13.079  0.00  0.00    +0.000 A 
ATOM      6  N   UNL     1      47.723   7.127  13.132  0.00  0.00    +0.000 N 
ATOM      7  C   UNL     1      47.154   8.467  13.223  0.00  0.00    +0.000 C 
ATOM      8  C   UNL     1      47.793   9.368  12.146  0.00  0.00    +0.000 C 
ATOM      9  N   UNL     1      49.273   9.404  12.224  0.00  0.00    +0.000 NA
ATOM     10  C   UNL     1      49.788   8.016  12.145  0.00  0.00    +0.000 C 
ATOM     11  C   UNL     1      49.183   7.046  13.195  0.00  0.00    +0.000 C 
ATOM     12  C   UNL     1      45.750   5.953  12.419  0.00  0.00    +0.000 A 
ATOM     13  H   UNL     1      49.525   9.775  13.138  0.00  0.00    +0.000 HD
ENDROOT
BRANCH   1  14
ATOM     14  C   UNL     1      43.755   4.746  11.406  0.00  0.00    +0.000 C 
ATOM     15  C   UNL     1      42.453   5.187  12.081  0.00  0.00    +0.000 C 
ATOM     16  C   UNL     1      43.075   6.062  11.049  0.00  0.00    +0.000 C 
BRANCH  14  17
ATOM     17  O   UNL     1      43.575   3.581  10.545  0.00  0.00    +0.000 OA
BRANCH  17  22
ATOM     18 CL   UNL     1      47.331   2.354   6.218  0.00  0.00    +0.000 Cl
ATOM     19  C   UNL     1      46.322   2.741   7.555  0.00  0.00    +0.000 A 
ATOM     20  C   UNL     1      45.958   4.066   7.776  0.00  0.00    +0.000 A 
ATOM     21  C   UNL     1      45.087   4.375   8.817  0.00  0.00    +0.000 A 
ATOM     22  C   UNL     1      44.548   3.356   9.607  0.00  0.00    +0.000 A 
ATOM     23  C   UNL     1      44.970   2.040   9.429  0.00  0.00    +0.000 A 
ATOM     24  C   UNL     1      45.853   1.730   8.394  0.00  0.00    +0.000 A 
ENDBRANCH  17  22
ENDBRANCH  14  17
ENDBRANCH   1  14
TORSDOF 3
ENDMDL
MODEL 2
REMARK VINA RESULT:    -7.461      2.158      3.657
REMARK INTER + INTRA:          -9.423
REMARK INTER:                  -9.564
REMARK INTRA:                   0.141
REMARK UNBOUND:                -0.654
REMARK  Name = 
REMARK  3 active torsions:
REMARK  status: ('A' for Active; 'I' for Inactive)
REMARK    1  A    between atoms: C_5  and  O_6
REMARK    2  A    between atoms: O_6  and  C_7
REMARK    3  A    between atoms: C_7  and  C_8
REMARK                            x       y       z     vdW  Elec       q    Type
REMARK                         _______ _______ _______ _____ _____    ______ ____
ROOT
ATOM      1  C   UNL     1      45.675   5.296  12.724  0.00  0.00    +0.000 A 
ATOM      2  C   UNL     1      46.386   6.371  12.198  0.00  0.00    +0.000 A 
ATOM      3  C   UNL     1      47.520   6.816  12.852  0.00  0.00    +0.000 A 
ATOM      4  N   UNL     1      47.986   6.279  13.998  0.00  0.00    +0.000 NA
ATOM      5  C   UNL     1      47.344   5.211  14.510  0.00  0.00    +0.000 A 
ATOM      6  N   UNL     1      47.781   4.685  15.698  0.00  0.00    +0.000 N 
ATOM      7  C   UNL     1      47.685   3.272  16.050  0.00  0.00    +0.000 C 
ATOM      8  C   UNL     1      47.047   3.137  17.448  0.00  0.00    +0.000 C 
ATOM      9  N   UNL     1      47.769   3.905  18.491  0.00  0.00    +0.000 NA
ATOM     10  C   UNL     1      47.849   5.323  18.067  0.00  0.00    +0.000 C 
ATOM     11  C   UNL     1      48.472   5.540  16.663  0.00  0.00    +0.000 C 
ATOM     12  C   UNL     1      46.212   4.702  13.876  0.00  0.00    +0.000 A 
ATOM     13  H   UNL     1      48.719   3.544  18.539  0.00  0.00    +0.000 HD
ENDROOT
BRANCH   1  14
ATOM     14  C   UNL     1      44.363   4.799  12.133  0.00  0.00    +0.000 C 
ATOM     15  C   UNL     1      43.083   5.068  12.928  0.00  0.00    +0.000 C 
ATOM     16  C   UNL     1      43.326   5.809  11.659  0.00  0.00    +0.000 C 
BRANCH  14  17
ATOM     17  O   UNL     1      44.391   3.461  11.549  0.00  0.00    +0.000 OA
BRANCH  17  22
ATOM     18 CL   UNL     1      46.716   3.224   6.176  0.00  0.00    +0.000 Cl
ATOM     19  C   UNL     1      45.927   3.289   7.701  0.00  0.00    +0.000 A 
ATOM     20  C   UNL     1      45.531   2.104   8.317  0.00  0.00    +0.000 A 
ATOM     21  C   UNL     1      44.953   2.149   9.583  0.00  0.00    +0.000 A 
ATOM     22  C   UNL     1      44.812   3.369  10.248  0.00  0.00    +0.000 A 
ATOM     23  C   UNL     1      45.143   4.558   9.600  0.00  0.00    +0.000 A 
ATOM     24  C   UNL     1      45.710   4.517   8.326  0.00  0.00    +0.000 A 
ENDBRANCH  17  22
ENDBRANCH  14  17
ENDBRANCH   1  14
TORSDOF 3
ENDMDL
MODEL 3
REMARK VINA RESULT:    -6.809      1.344      2.463
REMARK INTER + INTRA:          -8.657
REMARK INTER:                  -9.011
REMARK INTRA:                   0.354
REMARK UNBOUND:                -0.654
REMARK  Name = 
REMARK  3 active torsions:
REMARK  status: ('A' for Active; 'I' for Inactive)
REMARK    1  A    between atoms: C_5  and  O_6
REMARK    2  A    between atoms: O_6  and  C_7
REMARK    3  A    between atoms: C_7  and  C_8
REMARK                            x       y       z     vdW  Elec       q    Type
REMARK                         _______ _______ _______ _____ _____    ______ ____
ROOT
ATOM      1  C   UNL     1      44.278   5.441  11.301  0.00  0.00    +0.000 A 
ATOM      2  C   UNL     1      43.253   6.356  11.076  0.00  0.00    +0.000 A 
ATOM      3  C   UNL     1      43.512   7.707  11.210  0.00  0.00    +0.000 A 
ATOM      4  N   UNL     1      44.711   8.211  11.566  0.00  0.00    +0.000 NA
ATOM      5  C   UNL     1      45.733   7.355  11.750  0.00  0.00    +0.000 A 
ATOM      6  N   UNL     1      46.945   7.851  12.156  0.00  0.00    +0.000 N 
ATOM      7  C   UNL     1      48.231   7.266  11.792  0.00  0.00    +0.000 C 
ATOM      8  C   UNL     1      49.083   7.074  13.064  0.00  0.00    +0.000 C 
ATOM      9  N   UNL     1      49.260   8.326  13.838  0.00  0.00    +0.000 NA
ATOM     10  C   UNL     1      47.923   8.880  14.160  0.00  0.00    +0.000 C 
ATOM     11  C   UNL     1      47.002   9.093  12.929  0.00  0.00    +0.000 C 
ATOM     12  C   UNL     1      45.537   5.983  11.599  0.00  0.00    +0.000 A 
ATOM     13  H   UNL     1      49.734   8.997  13.236  0.00  0.00    +0.000 HD
ENDROOT
BRANCH   1  14
ATOM     14  C   UNL     1      44.068   3.934  11.276  0.00  0.00    +0.000 C 
ATOM     15  C   UNL     1      45.030   3.072  12.098  0.00  0.00    +0.000 C 
ATOM     16  C   UNL     1      43.617   3.221  12.544  0.00  0.00    +0.000 C 
BRANCH  14  17
ATOM     17  O   UNL     1      43.767   3.352   9.971  0.00  0.00    +0.000 OA
BRANCH  17  22
ATOM     18 CL   UNL     1      47.939   2.278   5.999  0.00  0.00    +0.000 Cl
ATOM     19  C   UNL     1      46.801   2.621   7.240  0.00  0.00    +0.000 A 
ATOM     20  C   UNL     1      46.385   3.934   7.444  0.00  0.00    +0.000 A 
ATOM     21  C   UNL     1      45.414   4.206   8.403  0.00  0.00    +0.000 A 
ATOM     22  C   UNL     1      44.828   3.164   9.125  0.00  0.00    +0.000 A 
ATOM     23  C   UNL     1      45.297   1.860   8.970  0.00  0.00    +0.000 A 
ATOM     24  C   UNL     1      46.280   1.586   8.019  0.00  0.00    +0.000 A 
ENDBRANCH  17  22
ENDBRANCH  14  17
ENDBRANCH   1  14
TORSDOF 3
ENDMDL
MODEL 4
REMARK VINA RESULT:    -5.885      4.314      7.705
REMARK INTER + INTRA:          -7.571
REMARK INTER:                  -6.963
REMARK INTRA:                  -0.608
REMARK UNBOUND:                -0.654
REMARK  Name = 
REMARK  3 active torsions:
REMARK  status: ('A' for Active; 'I' for Inactive)
REMARK    1  A    between atoms: C_5  and  O_6
REMARK    2  A    between atoms: O_6  and  C_7
REMARK    3  A    between atoms: C_7  and  C_8
REMARK                            x       y       z     vdW  Elec       q    Type
REMARK                         _______ _______ _______ _____ _____    ______ ____
ROOT
ATOM      1  C   UNL     1      47.469   7.712  13.096  0.00  0.00    +0.000 A 
ATOM      2  C   UNL     1      46.883   8.967  12.955  0.00  0.00    +0.000 A 
ATOM      3  C   UNL     1      45.545   9.053  12.617  0.00  0.00    +0.000 A 
ATOM      4  N   UNL     1      44.756   7.983  12.393  0.00  0.00    +0.000 NA
ATOM      5  C   UNL     1      45.283   6.755  12.561  0.00  0.00    +0.000 A 
ATOM      6  N   UNL     1      44.503   5.660  12.293  0.00  0.00    +0.000 N 
ATOM      7  C   UNL     1      44.624   4.382  12.986  0.00  0.00    +0.000 C 
ATOM      8  C   UNL     1      44.715   3.244  11.948  0.00  0.00    +0.000 C 
ATOM      9  N   UNL     1      43.579   3.236  10.996  0.00  0.00    +0.000 NA
ATOM     10  C   UNL     1      43.498   4.563  10.340  0.00  0.00    +0.000 C 
ATOM     11  C   UNL     1      43.413   5.761  11.322  0.00  0.00    +0.000 C 
ATOM     12  C   UNL     1      46.618   6.608  12.931  0.00  0.00    +0.000 A 
ATOM     13  H   UNL     1      42.725   3.106  11.535  0.00  0.00    +0.000 HD
ENDROOT
BRANCH   1  14
ATOM     14  C   UNL     1      48.954   7.514  13.368  0.00  0.00    +0.000 C 
ATOM     15  C   UNL     1      49.899   7.514  12.163  0.00  0.00    +0.000 C 
ATOM     16  C   UNL     1      49.920   8.663  13.110  0.00  0.00    +0.000 C 
BRANCH  14  17
ATOM     17  O   UNL     1      49.294   6.488  14.349  0.00  0.00    +0.000 OA
BRANCH  17  22
ATOM     18 CL   UNL     1      48.025   7.167  20.029  0.00  0.00    +0.000 Cl
ATOM     19  C   UNL     1      48.287   7.002  18.339  0.00  0.00    +0.000 A 
ATOM     20  C   UNL     1      48.649   8.119  17.590  0.00  0.00    +0.000 A 
ATOM     21  C   UNL     1      48.927   7.976  16.234  0.00  0.00    +0.000 A 
ATOM     22  C   UNL     1      48.887   6.714  15.637  0.00  0.00    +0.000 A 
ATOM     23  C   UNL     1      48.454   5.611  16.372  0.00  0.00    +0.000 A 
ATOM     24  C   UNL     1      48.162   5.753  17.728  0.00  0.00    +0.000 A 
ENDBRANCH  17  22
ENDBRANCH  14  17
ENDBRANCH   1  14
TORSDOF 3
ENDMDL
MODEL 5
REMARK VINA RESULT:    -5.727      4.238      6.483
REMARK INTER + INTRA:          -7.385
REMARK INTER:                  -6.793
REMARK INTRA:                  -0.592
REMARK UNBOUND:                -0.654
REMARK  Name = 
REMARK  3 active torsions:
REMARK  status: ('A' for Active; 'I' for Inactive)
REMARK    1  A    between atoms: C_5  and  O_6
REMARK    2  A    between atoms: O_6  and  C_7
REMARK    3  A    between atoms: C_7  and  C_8
REMARK                            x       y       z     vdW  Elec       q    Type
REMARK                         _______ _______ _______ _____ _____    ______ ____
ROOT
ATOM      1  C   UNL     1      47.436   6.361  13.398  0.00  0.00    +0.000 A 
ATOM      2  C   UNL     1      46.609   5.498  12.683  0.00  0.00    +0.000 A 
ATOM      3  C   UNL     1      46.218   4.305  13.261  0.00  0.00    +0.000 A 
ATOM      4  N   UNL     1      46.603   3.902  14.489  0.00  0.00    +0.000 NA
ATOM      5  C   UNL     1      47.369   4.733  15.222  0.00  0.00    +0.000 A 
ATOM      6  N   UNL     1      47.803   4.316  16.453  0.00  0.00    +0.000 N 
ATOM      7  C   UNL     1      48.038   5.209  17.582  0.00  0.00    +0.000 C 
ATOM      8  C   UNL     1      49.434   4.928  18.175  0.00  0.00    +0.000 C 
ATOM      9  N   UNL     1      49.624   3.509  18.561  0.00  0.00    +0.000 NA
ATOM     10  C   UNL     1      49.354   2.654  17.380  0.00  0.00    +0.000 C 
ATOM     11  C   UNL     1      47.968   2.887  16.722  0.00  0.00    +0.000 C 
ATOM     12  C   UNL     1      47.768   5.962  14.702  0.00  0.00    +0.000 A 
ATOM     13  H   UNL     1      48.928   3.285  19.269  0.00  0.00    +0.000 HD
ENDROOT
BRANCH   1  14
ATOM     14  C   UNL     1      48.000   7.647  12.812  0.00  0.00    +0.000 C 
ATOM     15  C   UNL     1      49.517   7.732  12.620  0.00  0.00    +0.000 C 
ATOM     16  C   UNL     1      48.634   7.623  11.427  0.00  0.00    +0.000 C 
BRANCH  14  17
ATOM     17  O   UNL     1      47.429   8.889  13.326  0.00  0.00    +0.000 OA
BRANCH  17  22
ATOM     18 CL   UNL     1      43.753  11.392   9.509  0.00  0.00    +0.000 Cl
ATOM     19  C   UNL     1      44.770  10.710  10.715  0.00  0.00    +0.000 A 
ATOM     20  C   UNL     1      44.384   9.534  11.352  0.00  0.00    +0.000 A 
ATOM     21  C   UNL     1      45.236   8.943  12.280  0.00  0.00    +0.000 A 
ATOM     22  C   UNL     1      46.490   9.502  12.539  0.00  0.00    +0.000 A 
ATOM     23  C   UNL     1      46.843  10.718  11.954  0.00  0.00    +0.000 A 
ATOM     24  C   UNL     1      45.985  11.319  11.033  0.00  0.00    +0.000 A 
ENDBRANCH  17  22
ENDBRANCH  14  17
ENDBRANCH   1  14
TORSDOF 3
ENDMDL
MODEL 6
REMARK VINA RESULT:    -5.669      3.730      5.921
REMARK INTER + INTRA:          -7.317
REMARK INTER:                  -6.675
REMARK INTRA:                  -0.642
REMARK UNBOUND:                -0.654
REMARK  Name = 
REMARK  3 active torsions:
REMARK  status: ('A' for Active; 'I' for Inactive)
REMARK    1  A    between atoms: C_5  and  O_6
REMARK    2  A    between atoms: O_6  and  C_7
REMARK    3  A    between atoms: C_7  and  C_8
REMARK                            x       y       z     vdW  Elec       q    Type
REMARK                         _______ _______ _______ _____ _____    ______ ____
ROOT
ATOM      1  C   UNL     1      48.378   7.936  14.644  0.00  0.00    +0.000 A 
ATOM      2  C   UNL     1      48.081   9.153  15.253  0.00  0.00    +0.000 A 
ATOM      3  C   UNL     1      48.258   9.286  16.618  0.00  0.00    +0.000 A 
ATOM      4  N   UNL     1      48.690   8.293  17.421  0.00  0.00    +0.000 NA
ATOM      5  C   UNL     1      49.025   7.117  16.856  0.00  0.00    +0.000 A 
ATOM      6  N   UNL     1      49.424   6.085  17.667  0.00  0.00    +0.000 N 
ATOM      7  C   UNL     1      50.384   5.060  17.272  0.00  0.00    +0.000 C 
ATOM      8  C   UNL     1      49.799   3.667  17.580  0.00  0.00    +0.000 C 
ATOM      9  N   UNL     1      49.394   3.509  18.997  0.00  0.00    +0.000 NA
ATOM     10  C   UNL     1      48.435   4.587  19.342  0.00  0.00    +0.000 C 
ATOM     11  C   UNL     1      48.951   6.021  19.050  0.00  0.00    +0.000 C 
ATOM     12  C   UNL     1      48.896   6.935  15.481  0.00  0.00    +0.000 A 
ATOM     13  H   UNL     1      50.223   3.639  19.573  0.00  0.00    +0.000 HD
ENDROOT
BRANCH   1  14
ATOM     14  C   UNL     1      48.123   7.661  13.170  0.00  0.00    +0.000 C 
ATOM     15  C   UNL     1      49.087   8.287  12.158  0.00  0.00    +0.000 C 
ATOM     16  C   UNL     1      49.118   6.816  12.384  0.00  0.00    +0.000 C 
BRANCH  14  17
ATOM     17  O   UNL     1      46.731   7.730  12.736  0.00  0.00    +0.000 OA
BRANCH  17  22
ATOM     18 CL   UNL     1      43.755   2.878  11.342  0.00  0.00    +0.000 Cl
ATOM     19  C   UNL     1      44.727   4.243  11.726  0.00  0.00    +0.000 A 
ATOM     20  C   UNL     1      45.142   5.095  10.706  0.00  0.00    +0.000 A 
ATOM     21  C   UNL     1      45.872   6.238  11.021  0.00  0.00    +0.000 A 
ATOM     22  C   UNL     1      46.149   6.549  12.355  0.00  0.00    +0.000 A 
ATOM     23  C   UNL     1      45.795   5.657  13.366  0.00  0.00    +0.000 A 
ATOM     24  C   UNL     1      45.075   4.505  13.052  0.00  0.00    +0.000 A 
ENDBRANCH  17  22
ENDBRANCH  14  17
ENDBRANCH   1  14
TORSDOF 3
ENDMDL
MODEL 7
REMARK VINA RESULT:    -5.584      4.194      7.781
REMARK INTER + INTRA:          -7.217
REMARK INTER:                  -6.788
REMARK INTRA:                  -0.429
REMARK UNBOUND:                -0.654
REMARK  Name = 
REMARK  3 active torsions:
REMARK  status: ('A' for Active; 'I' for Inactive)
REMARK    1  A    between atoms: C_5  and  O_6
REMARK    2  A    between atoms: O_6  and  C_7
REMARK    3  A    between atoms: C_7  and  C_8
REMARK                            x       y       z     vdW  Elec       q    Type
REMARK                         _______ _______ _______ _____ _____    ______ ____
ROOT
ATOM      1  C   UNL     1      47.561   7.860  12.740  0.00  0.00    +0.000 A 
ATOM      2  C   UNL     1      46.948   9.099  12.574  0.00  0.00    +0.000 A 
ATOM      3  C   UNL     1      45.590   9.152  12.319  0.00  0.00    +0.000 A 
ATOM      4  N   UNL     1      44.804   8.063  12.202  0.00  0.00    +0.000 NA
ATOM      5  C   UNL     1      45.359   6.852  12.400  0.00  0.00    +0.000 A 
ATOM      6  N   UNL     1      44.579   5.735  12.239  0.00  0.00    +0.000 N 
ATOM      7  C   UNL     1      44.763   4.497  12.989  0.00  0.00    +0.000 C 
ATOM      8  C   UNL     1      44.803   3.308  12.007  0.00  0.00    +0.000 C 
ATOM      9  N   UNL     1      43.608   3.237  11.133  0.00  0.00    +0.000 NA
ATOM     10  C   UNL     1      43.466   4.527  10.415  0.00  0.00    +0.000 C 
ATOM     11  C   UNL     1      43.427   5.774  11.338  0.00  0.00    +0.000 C 
ATOM     12  C   UNL     1      46.717   6.740  12.689  0.00  0.00    +0.000 A 
ATOM     13  H   UNL     1      42.793   3.126  11.732  0.00  0.00    +0.000 HD
ENDROOT
BRANCH   1  14
ATOM     14  C   UNL     1      49.062   7.693  12.925  0.00  0.00    +0.000 C 
ATOM     15  C   UNL     1      49.918   7.552  11.663  0.00  0.00    +0.000 C 
ATOM     16  C   UNL     1      49.999   8.803  12.466  0.00  0.00    +0.000 C 
BRANCH  14  17
ATOM     17  O   UNL     1      49.479   6.788  13.991  0.00  0.00    +0.000 OA
BRANCH  17  22
ATOM     18 CL   UNL     1      47.763   8.670  19.268  0.00  0.00    +0.000 Cl
ATOM     19  C   UNL     1      48.374   8.103  17.765  0.00  0.00    +0.000 A 
ATOM     20  C   UNL     1      48.448   6.733  17.529  0.00  0.00    +0.000 A 
ATOM     21  C   UNL     1      48.879   6.272  16.288  0.00  0.00    +0.000 A 
ATOM     22  C   UNL     1      49.194   7.179  15.273  0.00  0.00    +0.000 A 
ATOM     23  C   UNL     1      49.189   8.548  15.536  0.00  0.00    +0.000 A 
ATOM     24  C   UNL     1      48.770   9.012  16.782  0.00  0.00    +0.000 A 
ENDBRANCH  17  22
ENDBRANCH  14  17
ENDBRANCH   1  14
TORSDOF 3
ENDMDL
MODEL 8
REMARK VINA RESULT:    -5.540      5.493      8.522
REMARK INTER + INTRA:          -7.166
REMARK INTER:                  -6.661
REMARK INTRA:                  -0.505
REMARK UNBOUND:                -0.654
REMARK  Name = 
REMARK  3 active torsions:
REMARK  status: ('A' for Active; 'I' for Inactive)
REMARK    1  A    between atoms: C_5  and  O_6
REMARK    2  A    between atoms: O_6  and  C_7
REMARK    3  A    between atoms: C_7  and  C_8
REMARK                            x       y       z     vdW  Elec       q    Type
REMARK                         _______ _______ _______ _____ _____    ______ ____
ROOT
ATOM      1  C   UNL     1      47.488   5.027  15.393  0.00  0.00    +0.000 A 
ATOM      2  C   UNL     1      48.292   6.058  14.915  0.00  0.00    +0.000 A 
ATOM      3  C   UNL     1      48.000   6.631  13.691  0.00  0.00    +0.000 A 
ATOM      4  N   UNL     1      46.979   6.240  12.902  0.00  0.00    +0.000 NA
ATOM      5  C   UNL     1      46.158   5.273  13.355  0.00  0.00    +0.000 A 
ATOM      6  N   UNL     1      45.142   4.836  12.544  0.00  0.00    +0.000 N 
ATOM      7  C   UNL     1      43.858   4.347  13.034  0.00  0.00    +0.000 C 
ATOM      8  C   UNL     1      43.541   2.991  12.369  0.00  0.00    +0.000 C 
ATOM      9  N   UNL     1      43.565   3.053  10.888  0.00  0.00    +0.000 NA
ATOM     10  C   UNL     1      44.884   3.574  10.454  0.00  0.00    +0.000 C 
ATOM     11  C   UNL     1      45.278   4.934  11.090  0.00  0.00    +0.000 C 
ATOM     12  C   UNL     1      46.386   4.681  14.596  0.00  0.00    +0.000 A 
ATOM     13  H   UNL     1      42.858   3.724  10.595  0.00  0.00    +0.000 HD
ENDROOT
BRANCH   1  14
ATOM     14  C   UNL     1      47.785   4.269  16.678  0.00  0.00    +0.000 C 
ATOM     15  C   UNL     1      48.031   2.762  16.569  0.00  0.00    +0.000 C 
ATOM     16  C   UNL     1      49.169   3.668  16.889  0.00  0.00    +0.000 C 
BRANCH  14  17
ATOM     17  O   UNL     1      46.965   4.621  17.833  0.00  0.00    +0.000 OA
BRANCH  17  22
ATOM     18 CL   UNL     1      49.821   8.209  21.483  0.00  0.00    +0.000 Cl
ATOM     19  C   UNL     1      48.884   7.183  20.471  0.00  0.00    +0.000 A 
ATOM     20  C   UNL     1      48.217   7.726  19.375  0.00  0.00    +0.000 A 
ATOM     21  C   UNL     1      47.514   6.889  18.515  0.00  0.00    +0.000 A 
ATOM     22  C   UNL     1      47.512   5.507  18.725  0.00  0.00    +0.000 A 
ATOM     23  C   UNL     1      48.119   4.975  19.861  0.00  0.00    +0.000 A 
ATOM     24  C   UNL     1      48.814   5.814  20.732  0.00  0.00    +0.000 A 
ENDBRANCH  17  22
ENDBRANCH  14  17
ENDBRANCH   1  14
TORSDOF 3
ENDMDL
MODEL 9
REMARK VINA RESULT:    -5.417      5.037      8.015
REMARK INTER + INTRA:          -7.021
REMARK INTER:                  -6.220
REMARK INTRA:                  -0.801
REMARK UNBOUND:                -0.654
REMARK  Name = 
REMARK  3 active torsions:
REMARK  status: ('A' for Active; 'I' for Inactive)
REMARK    1  A    between atoms: C_5  and  O_6
REMARK    2  A    between atoms: O_6  and  C_7
REMARK    3  A    between atoms: C_7  and  C_8
REMARK                            x       y       z     vdW  Elec       q    Type
REMARK                         _______ _______ _______ _____ _____    ______ ____
ROOT
ATOM      1  C   UNL     1      48.238   4.812  17.029  0.00  0.00    +0.000 A 
ATOM      2  C   UNL     1      48.505   3.448  17.119  0.00  0.00    +0.000 A 
ATOM      3  C   UNL     1      48.163   2.623  16.063  0.00  0.00    +0.000 A 
ATOM      4  N   UNL     1      47.562   3.053  14.936  0.00  0.00    +0.000 NA
ATOM      5  C   UNL     1      47.329   4.373  14.802  0.00  0.00    +0.000 A 
ATOM      6  N   UNL     1      46.678   4.818  13.680  0.00  0.00    +0.000 N 
ATOM      7  C   UNL     1      46.905   6.121  13.066  0.00  0.00    +0.000 C 
ATOM      8  C   UNL     1      45.550   6.820  12.834  0.00  0.00    +0.000 C 
ATOM      9  N   UNL     1      44.607   6.004  12.032  0.00  0.00    +0.000 NA
ATOM     10  C   UNL     1      44.432   4.689  12.696  0.00  0.00    +0.000 C 
ATOM     11  C   UNL     1      45.756   3.928  12.972  0.00  0.00    +0.000 C 
ATOM     12  C   UNL     1      47.680   5.256  15.821  0.00  0.00    +0.000 A 
ATOM     13  H   UNL     1      45.037   5.836  11.125  0.00  0.00    +0.000 HD
ENDROOT
BRANCH   1  14
ATOM     14  C   UNL     1      48.486   5.783  18.174  0.00  0.00    +0.000 C 
ATOM     15  C   UNL     1      47.277   6.211  19.012  0.00  0.00    +0.000 C 
ATOM     16  C   UNL     1      48.300   5.309  19.610  0.00  0.00    +0.000 C 
BRANCH  14  17
ATOM     17  O   UNL     1      49.391   6.892  17.889  0.00  0.00    +0.000 OA
BRANCH  17  22
ATOM     18 CL   UNL     1      54.862   6.012  15.981  0.00  0.00    +0.000 Cl
ATOM     19  C   UNL     1      53.226   6.171  16.484  0.00  0.00    +0.000 A 
ATOM     20  C   UNL     1      52.787   5.484  17.613  0.00  0.00    +0.000 A 
ATOM     21  C   UNL     1      51.482   5.664  18.061  0.00  0.00    +0.000 A 
ATOM     22  C   UNL     1      50.632   6.561  17.409  0.00  0.00    +0.000 A 
ATOM     23  C   UNL     1      51.051   7.191  16.238  0.00  0.00    +0.000 A 
ATOM     24  C   UNL     1      52.354   7.003  15.779  0.00  0.00    +0.000 A 
ENDBRANCH  17  22
ENDBRANCH  14  17
ENDBRANCH   1  14
TORSDOF 3
ENDMDL
