MODEL 1
REMARK VINA RESULT:    -8.949      0.000      0.000
REMARK INTER + INTRA:         -13.609
REMARK INTER:                 -12.611
REMARK INTRA:                  -0.998
REMARK UNBOUND:                -0.998
REMARK  Name = 
REMARK  8 active torsions:
REMARK  status: ('A' for Active; 'I' for Inactive)
REMARK    1  A    between atoms: C_1  and  C_2
REMARK    2  A    between atoms: C_2  and  C_3
REMARK    3  A    between atoms: C_6  and  C_7
REMARK    4  A    between atoms: C_11  and  C_12
REMARK    5  A    between atoms: C_12  and  C_13
REMARK    6  A    between atoms: C_13  and  O_14
REMARK    7  A    between atoms: O_14  and  C_15
REMARK    8  A    between atoms: C_18  and  C_19
REMARK                            x       y       z     vdW  Elec       q    Type
REMARK                         _______ _______ _______ _____ _____    ______ ____
ROOT
ATOM      1  C   UNL     1      43.473   5.088  12.072  0.00  0.00    +0.000 C 
ENDROOT
BRANCH   1   6
ATOM      2  C   UNL     1      46.897   5.406  13.812  0.00  0.00    +0.000 A 
ATOM      3  C   UNL     1      47.575   6.202  12.882  0.00  0.00    +0.000 A 
ATOM      4  C   UNL     1      46.941   6.659  11.733  0.00  0.00    +0.000 A 
ATOM      5  C   UNL     1      45.618   6.317  11.474  0.00  0.00    +0.000 A 
ATOM      6  C   UNL     1      44.897   5.514  12.372  0.00  0.00    +0.000 A 
ATOM      7  C   UNL     1      45.553   5.099  13.545  0.00  0.00    +0.000 A 
BRANCH   2  11
ATOM      8  C   UNL     1      48.660   4.015  17.320  0.00  0.00    +0.000 A 
ATOM      9  C   UNL     1      47.968   3.169  16.460  0.00  0.00    +0.000 A 
ATOM     10  N   UNL     1      47.404   3.589  15.306  0.00  0.00    +0.000 NA
ATOM     11  C   UNL     1      47.555   4.909  15.018  0.00  0.00    +0.000 A 
ATOM     12  C   UNL     1      48.279   5.739  15.873  0.00  0.00    +0.000 A 
ATOM     13  N   UNL     1      48.843   5.321  17.027  0.00  0.00    +0.000 NA
BRANCH   8  15
ATOM     14  C   UNL     1      48.990   4.559  19.741  0.00  0.00    +0.000 C 
ATOM     15  C   UNL     1      49.181   3.526  18.639  0.00  0.00    +0.000 C 
ENDBRANCH   8  15
ENDBRANCH   2  11
ENDBRANCH   1   6
BRANCH   1  16
ATOM     16  C   UNL     1      43.253   4.675  10.613  0.00  0.00    +0.000 C 
BRANCH  16  17
ATOM     17  O   UNL     1      43.608   3.313  10.375  0.00  0.00    +0.000 OA
BRANCH  17  18
ATOM     18  C   UNL     1      44.558   3.151   9.398  0.00  0.00    +0.000 A 
ATOM     19  C   UNL     1      45.131   4.186   8.649  0.00  0.00    +0.000 A 
ATOM     20  C   UNL     1      46.100   3.913   7.678  0.00  0.00    +0.000 A 
ATOM     21  C   UNL     1      46.513   2.603   7.448  0.00  0.00    +0.000 A 
ATOM     22  C   UNL     1      45.944   1.574   8.203  0.00  0.00    +0.000 A 
ATOM     23  F   UNL     1      46.323   0.297   8.030  0.00  0.00    +0.000 F 
ATOM     24  C   UNL     1      44.970   1.839   9.167  0.00  0.00    +0.000 A 
BRANCH  21  25
ATOM     25  C   UNL     1      47.549   2.374   6.406  0.00  0.00    +0.000 C 
ATOM     26  N   UNL     1      47.451   3.060   5.235  0.00  0.00    +0.000 N 
ATOM     27  O   UNL     1      48.476   1.586   6.591  0.00  0.00    +0.000 OA
ATOM     28  H   UNL     1      46.702   3.715   5.039  0.00  0.00    +0.000 HD
ATOM     29  H   UNL     1      48.160   2.904   4.531  0.00  0.00    +0.000 HD
ENDBRANCH  21  25
ENDBRANCH  17  18
ENDBRANCH  16  17
ENDBRANCH   1  16
TORSDOF 7
ENDMDL
MODEL 2
REMARK VINA RESULT:    -8.050      1.538      1.758
REMARK INTER + INTRA:         -12.342
REMARK INTER:                 -11.427
REMARK INTRA:                  -0.915
REMARK UNBOUND:                -0.998
REMARK  Name = 
REMARK  8 active torsions:
REMARK  status: ('A' for Active; 'I' for Inactive)
REMARK    1  A    between atoms: C_1  and  C_2
REMARK    2  A    between atoms: C_2  and  C_3
REMARK    3  A    between atoms: C_6  and  C_7
REMARK    4  A    between atoms: C_11  and  C_12
REMARK    5  A    between atoms: C_12  and  C_13
REMARK    6  A    between atoms: C_13  and  O_14
REMARK    7  A    between atoms: O_14  and  C_15
REMARK    8  A    between atoms: C_18  and  C_19
REMARK                            x       y       z     vdW  Elec       q    Type
REMARK                         _______ _______ _______ _____ _____    ______ ____
ROOT
ATOM      1  C   UNL     1      44.386   4.422  12.448  0.00  0.00    +0.000 C 
ENDROOT
BRANCH   1   6
ATOM      2  C   UNL     1      47.384   6.550  13.602  0.00  0.00    +0.000 A 
ATOM      3  C   UNL     1      47.295   7.616  12.700  0.00  0.00    +0.000 A 
ATOM      4  C   UNL     1      46.274   7.674  11.759  0.00  0.00    +0.000 A 
ATOM      5  C   UNL     1      45.326   6.658  11.682  0.00  0.00    +0.000 A 
ATOM      6  C   UNL     1      45.379   5.563  12.560  0.00  0.00    +0.000 A 
ATOM      7  C   UNL     1      46.401   5.551  13.526  0.00  0.00    +0.000 A 
BRANCH   2  11
ATOM      8  C   UNL     1      50.386   6.420  16.487  0.00  0.00    +0.000 A 
ATOM      9  C   UNL     1      49.267   5.599  16.554  0.00  0.00    +0.000 A 
ATOM     10  N   UNL     1      48.288   5.604  15.622  0.00  0.00    +0.000 NA
ATOM     11  C   UNL     1      48.459   6.471  14.588  0.00  0.00    +0.000 A 
ATOM     12  C   UNL     1      49.603   7.266  14.516  0.00  0.00    +0.000 A 
ATOM     13  N   UNL     1      50.581   7.261  15.447  0.00  0.00    +0.000 NA
BRANCH   8  15
ATOM     14  C   UNL     1      52.567   5.519  17.322  0.00  0.00    +0.000 C 
ATOM     15  C   UNL     1      51.396   6.452  17.596  0.00  0.00    +0.000 C 
ENDBRANCH   8  15
ENDBRANCH   2  11
ENDBRANCH   1   6
BRANCH   1  16
ATOM     16  C   UNL     1      43.567   4.449  11.154  0.00  0.00    +0.000 C 
BRANCH  16  17
ATOM     17  O   UNL     1      43.555   3.186  10.491  0.00  0.00    +0.000 OA
BRANCH  17  18
ATOM     18  C   UNL     1      44.503   3.068   9.505  0.00  0.00    +0.000 A 
ATOM     19  C   UNL     1      45.064   4.134   8.794  0.00  0.00    +0.000 A 
ATOM     20  C   UNL     1      46.031   3.907   7.810  0.00  0.00    +0.000 A 
ATOM     21  C   UNL     1      46.456   2.609   7.531  0.00  0.00    +0.000 A 
ATOM     22  C   UNL     1      45.899   1.549   8.250  0.00  0.00    +0.000 A 
ATOM     23  F   UNL     1      46.289   0.282   8.029  0.00  0.00    +0.000 F 
ATOM     24  C   UNL     1      44.925   1.769   9.225  0.00  0.00    +0.000 A 
BRANCH  21  25
ATOM     25  C   UNL     1      47.490   2.428   6.478  0.00  0.00    +0.000 C 
ATOM     26  N   UNL     1      47.366   3.135   5.321  0.00  0.00    +0.000 N 
ATOM     27  O   UNL     1      48.439   1.661   6.642  0.00  0.00    +0.000 OA
ATOM     28  H   UNL     1      46.599   3.775   5.143  0.00  0.00    +0.000 HD
ATOM     29  H   UNL     1      48.074   3.012   4.610  0.00  0.00    +0.000 HD
ENDBRANCH  21  25
ENDBRANCH  17  18
ENDBRANCH  16  17
ENDBRANCH   1  16
TORSDOF 7
ENDMDL
MODEL 3
REMARK VINA RESULT:    -7.420      3.370      8.155
REMARK INTER + INTRA:         -11.454
REMARK INTER:                 -10.178
REMARK INTRA:                  -1.275
REMARK UNBOUND:                -0.998
REMARK  Name = 
REMARK  8 active torsions:
REMARK  status: ('A' for Active; 'I' for Inactive)
REMARK    1  A    between atoms: C_1  and  C_2
REMARK    2  A    between atoms: C_2  and  C_3
REMARK    3  A    between atoms: C_6  and  C_7
REMARK    4  A    between atoms: C_11  and  C_12
REMARK    5  A    between atoms: C_12  and  C_13
REMARK    6  A    between atoms: C_13  and  O_14
REMARK    7  A    between atoms: O_14  and  C_15
REMARK    8  A    between atoms: C_18  and  C_19
REMARK                            x       y       z     vdW  Elec       q    Type
REMARK                         _______ _______ _______ _____ _____    ______ ____
ROOT
ATOM      1  C   UNL     1      45.433   8.310  11.908  0.00  0.00    +0.000 C 
ENDROOT
BRANCH   1   6
ATOM      2  C   UNL     1      44.803   4.889  10.248  0.00  0.00    +0.000 A 
ATOM      3  C   UNL     1      43.636   4.500  10.916  0.00  0.00    +0.000 A 
ATOM      4  C   UNL     1      43.039   5.329  11.858  0.00  0.00    +0.000 A 
ATOM      5  C   UNL     1      43.603   6.562  12.170  0.00  0.00    +0.000 A 
ATOM      6  C   UNL     1      44.778   6.994  11.533  0.00  0.00    +0.000 A 
ATOM      7  C   UNL     1      45.338   6.149  10.558  0.00  0.00    +0.000 A 
BRANCH   2  11
ATOM      8  C   UNL     1      46.527   2.417   7.373  0.00  0.00    +0.000 A 
ATOM      9  C   UNL     1      46.625   3.802   7.305  0.00  0.00    +0.000 A 
ATOM     10  N   UNL     1      46.094   4.628   8.235  0.00  0.00    +0.000 NA
ATOM     11  C   UNL     1      45.448   4.021   9.266  0.00  0.00    +0.000 A 
ATOM     12  C   UNL     1      45.385   2.630   9.339  0.00  0.00    +0.000 A 
ATOM     13  N   UNL     1      45.915   1.805   8.411  0.00  0.00    +0.000 NA
BRANCH   8  15
ATOM     14  C   UNL     1      47.658   2.365   5.141  0.00  0.00    +0.000 C 
ATOM     15  C   UNL     1      47.043   1.546   6.267  0.00  0.00    +0.000 C 
ENDBRANCH   8  15
ENDBRANCH   2  11
ENDBRANCH   1   6
BRANCH   1  16
ATOM     16  C   UNL     1      46.155   8.271  13.258  0.00  0.00    +0.000 C 
BRANCH  16  17
ATOM     17  O   UNL     1      47.409   7.594  13.184  0.00  0.00    +0.000 OA
BRANCH  17  18
ATOM     18  C   UNL     1      47.485   6.479  13.980  0.00  0.00    +0.000 A 
ATOM     19  C   UNL     1      46.807   5.276  13.750  0.00  0.00    +0.000 A 
ATOM     20  C   UNL     1      46.959   4.193  14.621  0.00  0.00    +0.000 A 
ATOM     21  C   UNL     1      47.797   4.296  15.730  0.00  0.00    +0.000 A 
ATOM     22  C   UNL     1      48.477   5.497  15.951  0.00  0.00    +0.000 A 
ATOM     23  F   UNL     1      49.309   5.638  16.996  0.00  0.00    +0.000 F 
ATOM     24  C   UNL     1      48.321   6.584  15.090  0.00  0.00    +0.000 A 
BRANCH  21  25
ATOM     25  C   UNL     1      47.922   3.112  16.619  0.00  0.00    +0.000 C 
ATOM     26  N   UNL     1      46.976   2.919  17.579  0.00  0.00    +0.000 N 
ATOM     27  O   UNL     1      48.855   2.318  16.496  0.00  0.00    +0.000 OA
ATOM     28  H   UNL     1      46.193   3.549  17.718  0.00  0.00    +0.000 HD
ATOM     29  H   UNL     1      47.063   2.110  18.178  0.00  0.00    +0.000 HD
ENDBRANCH  21  25
ENDBRANCH  17  18
ENDBRANCH  16  17
ENDBRANCH   1  16
TORSDOF 7
ENDMDL
MODEL 4
REMARK VINA RESULT:    -7.055      2.190      2.752
REMARK INTER + INTRA:         -10.940
REMARK INTER:                 -10.174
REMARK INTRA:                  -0.766
REMARK UNBOUND:                -0.998
REMARK  Name = 
REMARK  8 active torsions:
REMARK  status: ('A' for Active; 'I' for Inactive)
REMARK    1  A    between atoms: C_1  and  C_2
REMARK    2  A    between atoms: C_2  and  C_3
REMARK    3  A    between atoms: C_6  and  C_7
REMARK    4  A    between atoms: C_11  and  C_12
REMARK    5  A    between atoms: C_12  and  C_13
REMARK    6  A    between atoms: C_13  and  O_14
REMARK    7  A    between atoms: O_14  and  C_15
REMARK    8  A    between atoms: C_18  and  C_19
REMARK                            x       y       z     vdW  Elec       q    Type
REMARK                         _______ _______ _______ _____ _____    ______ ____
ROOT
ATOM      1  C   UNL     1      43.302   5.222  12.007  0.00  0.00    +0.000 C 
ENDROOT
BRANCH   1   6
ATOM      2  C   UNL     1      46.135   7.724  12.762  0.00  0.00    +0.000 A 
ATOM      3  C   UNL     1      45.704   8.822  12.008  0.00  0.00    +0.000 A 
ATOM      4  C   UNL     1      44.512   8.778  11.297  0.00  0.00    +0.000 A 
ATOM      5  C   UNL     1      43.727   7.630  11.304  0.00  0.00    +0.000 A 
ATOM      6  C   UNL     1      44.121   6.500  12.038  0.00  0.00    +0.000 A 
ATOM      7  C   UNL     1      45.313   6.587  12.779  0.00  0.00    +0.000 A 
BRANCH   2  11
ATOM      8  C   UNL     1      49.651   7.832  14.992  0.00  0.00    +0.000 A 
ATOM      9  C   UNL     1      48.936   6.655  14.805  0.00  0.00    +0.000 A 
ATOM     10  N   UNL     1      47.804   6.586  14.069  0.00  0.00    +0.000 NA
ATOM     11  C   UNL     1      47.393   7.753  13.505  0.00  0.00    +0.000 A 
ATOM     12  C   UNL     1      48.138   8.919  13.674  0.00  0.00    +0.000 A 
ATOM     13  N   UNL     1      49.268   8.989  14.409  0.00  0.00    +0.000 NA
BRANCH   8  15
ATOM     14  C   UNL     1      52.149   7.922  15.117  0.00  0.00    +0.000 C 
ATOM     15  C   UNL     1      50.845   7.881  15.900  0.00  0.00    +0.000 C 
ENDBRANCH   8  15
ENDBRANCH   2  11
ENDBRANCH   1   6
BRANCH   1  16
ATOM     16  C   UNL     1      43.274   4.549  10.632  0.00  0.00    +0.000 C 
BRANCH  16  17
ATOM     17  O   UNL     1      43.963   3.299  10.624  0.00  0.00    +0.000 OA
BRANCH  17  18
ATOM     18  C   UNL     1      44.812   3.142   9.558  0.00  0.00    +0.000 A 
ATOM     19  C   UNL     1      45.368   4.184   8.807  0.00  0.00    +0.000 A 
ATOM     20  C   UNL     1      46.230   3.915   7.740  0.00  0.00    +0.000 A 
ATOM     21  C   UNL     1      46.555   2.599   7.415  0.00  0.00    +0.000 A 
ATOM     22  C   UNL     1      46.004   1.563   8.172  0.00  0.00    +0.000 A 
ATOM     23  F   UNL     1      46.301   0.279   7.908  0.00  0.00    +0.000 F 
ATOM     24  C   UNL     1      45.134   1.824   9.231  0.00  0.00    +0.000 A 
BRANCH  21  25
ATOM     25  C   UNL     1      47.480   2.374   6.273  0.00  0.00    +0.000 C 
ATOM     26  N   UNL     1      47.272   3.072   5.123  0.00  0.00    +0.000 N 
ATOM     27  O   UNL     1      48.416   1.579   6.358  0.00  0.00    +0.000 OA
ATOM     28  H   UNL     1      46.512   3.735   5.009  0.00  0.00    +0.000 HD
ATOM     29  H   UNL     1      47.906   2.919   4.351  0.00  0.00    +0.000 HD
ENDBRANCH  21  25
ENDBRANCH  17  18
ENDBRANCH  16  17
ENDBRANCH   1  16
TORSDOF 7
ENDMDL
MODEL 5
REMARK VINA RESULT:    -7.025      3.004      4.948
REMARK INTER + INTRA:         -10.898
REMARK INTER:                  -9.954
REMARK INTRA:                  -0.944
REMARK UNBOUND:                -0.998
REMARK  Name = 
REMARK  8 active torsions:
REMARK  status: ('A' for Active; 'I' for Inactive)
REMARK    1  A    between atoms: C_1  and  C_2
REMARK    2  A    between atoms: C_2  and  C_3
REMARK    3  A    between atoms: C_6  and  C_7
REMARK    4  A    between atoms: C_11  and  C_12
REMARK    5  A    between atoms: C_12  and  C_13
REMARK    6  A    between atoms: C_13  and  O_14
REMARK    7  A    between atoms: O_14  and  C_15
REMARK    8  A    between atoms: C_18  and  C_19
REMARK                            x       y       z     vdW  Elec       q    Type
REMARK                         _______ _______ _______ _____ _____    ______ ____
ROOT
ATOM      1  C   UNL     1      45.144   3.345  12.445  0.00  0.00    +0.000 C 
ENDROOT
BRANCH   1   6
ATOM      2  C   UNL     1      46.850   6.739  13.102  0.00  0.00    +0.000 A 
ATOM      3  C   UNL     1      47.640   6.410  14.209  0.00  0.00    +0.000 A 
ATOM      4  C   UNL     1      47.656   5.117  14.719  0.00  0.00    +0.000 A 
ATOM      5  C   UNL     1      46.868   4.123  14.147  0.00  0.00    +0.000 A 
ATOM      6  C   UNL     1      46.051   4.406  13.040  0.00  0.00    +0.000 A 
ATOM      7  C   UNL     1      46.085   5.714  12.523  0.00  0.00    +0.000 A 
BRANCH   2  11
ATOM      8  C   UNL     1      46.770  10.657  11.692  0.00  0.00    +0.000 A 
ATOM      9  C   UNL     1      47.951   9.927  11.765  0.00  0.00    +0.000 A 
ATOM     10  N   UNL     1      48.003   8.648  12.199  0.00  0.00    +0.000 NA
ATOM     11  C   UNL     1      46.815   8.096  12.564  0.00  0.00    +0.000 A 
ATOM     12  C   UNL     1      45.634   8.829  12.454  0.00  0.00    +0.000 A 
ATOM     13  N   UNL     1      45.580  10.107  12.022  0.00  0.00    +0.000 NA
BRANCH   8  15
ATOM     14  C   UNL     1      48.172  12.591  10.945  0.00  0.00    +0.000 C 
ATOM     15  C   UNL     1      46.774  12.106  11.302  0.00  0.00    +0.000 C 
ENDBRANCH   8  15
ENDBRANCH   2  11
ENDBRANCH   1   6
BRANCH   1  16
ATOM     16  C   UNL     1      43.955   3.923  11.672  0.00  0.00    +0.000 C 
BRANCH  16  17
ATOM     17  O   UNL     1      43.508   3.052  10.634  0.00  0.00    +0.000 OA
BRANCH  17  18
ATOM     18  C   UNL     1      44.428   2.865   9.633  0.00  0.00    +0.000 A 
ATOM     19  C   UNL     1      44.793   1.627   9.092  0.00  0.00    +0.000 A 
ATOM     20  C   UNL     1      45.739   1.546   8.066  0.00  0.00    +0.000 A 
ATOM     21  C   UNL     1      46.327   2.704   7.561  0.00  0.00    +0.000 A 
ATOM     22  C   UNL     1      45.953   3.939   8.098  0.00  0.00    +0.000 A 
ATOM     23  F   UNL     1      46.479   5.084   7.632  0.00  0.00    +0.000 F 
ATOM     24  C   UNL     1      45.017   4.025   9.130  0.00  0.00    +0.000 A 
BRANCH  21  25
ATOM     25  C   UNL     1      47.323   2.557   6.468  0.00  0.00    +0.000 C 
ATOM     26  N   UNL     1      48.523   1.984   6.758  0.00  0.00    +0.000 N 
ATOM     27  O   UNL     1      47.077   2.941   5.324  0.00  0.00    +0.000 OA
ATOM     28  H   UNL     1      48.770   1.656   7.686  0.00  0.00    +0.000 HD
ATOM     29  H   UNL     1      49.196   1.882   6.010  0.00  0.00    +0.000 HD
ENDBRANCH  21  25
ENDBRANCH  17  18
ENDBRANCH  16  17
ENDBRANCH   1  16
TORSDOF 7
ENDMDL
MODEL 6
REMARK VINA RESULT:    -7.020      3.114      8.291
REMARK INTER + INTRA:         -10.891
REMARK INTER:                 -10.083
REMARK INTRA:                  -0.808
REMARK UNBOUND:                -0.998
REMARK  Name = 
REMARK  8 active torsions:
REMARK  status: ('A' for Active; 'I' for Inactive)
REMARK    1  A    between atoms: C_1  and  C_2
REMARK    2  A    between atoms: C_2  and  C_3
REMARK    3  A    between atoms: C_6  and  C_7
REMARK    4  A    between atoms: C_11  and  C_12
REMARK    5  A    between atoms: C_12  and  C_13
REMARK    6  A    between atoms: C_13  and  O_14
REMARK    7  A    between atoms: O_14  and  C_15
REMARK    8  A    between atoms: C_18  and  C_19
REMARK                            x       y       z     vdW  Elec       q    Type
REMARK                         _______ _______ _______ _____ _____    ______ ____
ROOT
ATOM      1  C   UNL     1      44.908   7.736  12.463  0.00  0.00    +0.000 C 
ENDROOT
BRANCH   1   6
ATOM      2  C   UNL     1      44.642   4.351  10.639  0.00  0.00    +0.000 A 
ATOM      3  C   UNL     1      43.740   3.687  11.478  0.00  0.00    +0.000 A 
ATOM      4  C   UNL     1      43.198   4.319  12.590  0.00  0.00    +0.000 A 
ATOM      5  C   UNL     1      43.557   5.626  12.904  0.00  0.00    +0.000 A 
ATOM      6  C   UNL     1      44.465   6.332  12.098  0.00  0.00    +0.000 A 
ATOM      7  C   UNL     1      44.967   5.679  10.958  0.00  0.00    +0.000 A 
BRANCH   2  11
ATOM      8  C   UNL     1      46.433   2.475   7.380  0.00  0.00    +0.000 A 
ATOM      9  C   UNL     1      45.838   1.752   8.408  0.00  0.00    +0.000 A 
ATOM     10  N   UNL     1      45.232   2.335   9.467  0.00  0.00    +0.000 NA
ATOM     11  C   UNL     1      45.228   3.694   9.473  0.00  0.00    +0.000 A 
ATOM     12  C   UNL     1      45.799   4.406   8.419  0.00  0.00    +0.000 A 
ATOM     13  N   UNL     1      46.406   3.826   7.362  0.00  0.00    +0.000 NA
BRANCH   8  15
ATOM     14  C   UNL     1      47.457   2.722   5.110  0.00  0.00    +0.000 C 
ATOM     15  C   UNL     1      47.182   1.786   6.278  0.00  0.00    +0.000 C 
ENDBRANCH   8  15
ENDBRANCH   2  11
ENDBRANCH   1   6
BRANCH   1  16
ATOM     16  C   UNL     1      46.408   7.848  12.750  0.00  0.00    +0.000 C 
BRANCH  16  17
ATOM     17  O   UNL     1      47.061   6.579  12.732  0.00  0.00    +0.000 OA
BRANCH  17  18
ATOM     18  C   UNL     1      47.569   6.200  13.949  0.00  0.00    +0.000 A 
ATOM     19  C   UNL     1      48.505   6.926  14.694  0.00  0.00    +0.000 A 
ATOM     20  C   UNL     1      48.955   6.454  15.931  0.00  0.00    +0.000 A 
ATOM     21  C   UNL     1      48.468   5.252  16.443  0.00  0.00    +0.000 A 
ATOM     22  C   UNL     1      47.528   4.535  15.698  0.00  0.00    +0.000 A 
ATOM     23  F   UNL     1      47.017   3.381  16.158  0.00  0.00    +0.000 F 
ATOM     24  C   UNL     1      47.083   4.996  14.459  0.00  0.00    +0.000 A 
BRANCH  21  25
ATOM     25  C   UNL     1      48.979   4.802  17.764  0.00  0.00    +0.000 C 
ATOM     26  N   UNL     1      50.007   3.911  17.791  0.00  0.00    +0.000 N 
ATOM     27  O   UNL     1      48.491   5.222  18.813  0.00  0.00    +0.000 OA
ATOM     28  H   UNL     1      50.437   3.537  16.951  0.00  0.00    +0.000 HD
ATOM     29  H   UNL     1      50.355   3.611  18.691  0.00  0.00    +0.000 HD
ENDBRANCH  21  25
ENDBRANCH  17  18
ENDBRANCH  16  17
ENDBRANCH   1  16
TORSDOF 7
ENDMDL
MODEL 7
REMARK VINA RESULT:    -6.930      2.176      2.857
REMARK INTER + INTRA:         -10.763
REMARK INTER:                 -10.137
REMARK INTRA:                  -0.626
REMARK UNBOUND:                -0.998
REMARK  Name = 
REMARK  8 active torsions:
REMARK  status: ('A' for Active; 'I' for Inactive)
REMARK    1  A    between atoms: C_1  and  C_2
REMARK    2  A    between atoms: C_2  and  C_3
REMARK    3  A    between atoms: C_6  and  C_7
REMARK    4  A    between atoms: C_11  and  C_12
REMARK    5  A    between atoms: C_12  and  C_13
REMARK    6  A    between atoms: C_13  and  O_14
REMARK    7  A    between atoms: O_14  and  C_15
REMARK    8  A    between atoms: C_18  and  C_19
REMARK                            x       y       z     vdW  Elec       q    Type
REMARK                         _______ _______ _______ _____ _____    ______ ____
ROOT
ATOM      1  C   UNL     1      45.068   3.675  11.986  0.00  0.00    +0.000 C 
ENDROOT
BRANCH   1   6
ATOM      2  C   UNL     1      47.182   6.601  13.337  0.00  0.00    +0.000 A 
ATOM      3  C   UNL     1      46.511   7.682  12.754  0.00  0.00    +0.000 A 
ATOM      4  C   UNL     1      45.382   7.485  11.969  0.00  0.00    +0.000 A 
ATOM      5  C   UNL     1      44.903   6.201  11.730  0.00  0.00    +0.000 A 
ATOM      6  C   UNL     1      45.546   5.083  12.287  0.00  0.00    +0.000 A 
ATOM      7  C   UNL     1      46.664   5.317  13.108  0.00  0.00    +0.000 A 
BRANCH   2  11
ATOM      8  C   UNL     1      50.647   7.046  15.604  0.00  0.00    +0.000 A 
ATOM      9  C   UNL     1      50.466   7.718  14.401  0.00  0.00    +0.000 A 
ATOM     10  N   UNL     1      49.343   7.609  13.655  0.00  0.00    +0.000 NA
ATOM     11  C   UNL     1      48.377   6.793  14.155  0.00  0.00    +0.000 A 
ATOM     12  C   UNL     1      48.559   6.152  15.379  0.00  0.00    +0.000 A 
ATOM     13  N   UNL     1      49.680   6.259  16.124  0.00  0.00    +0.000 NA
BRANCH   8  15
ATOM     14  C   UNL     1      53.134   7.249  15.398  0.00  0.00    +0.000 C 
ATOM     15  C   UNL     1      51.949   7.118  16.346  0.00  0.00    +0.000 C 
ENDBRANCH   8  15
ENDBRANCH   2  11
ENDBRANCH   1   6
BRANCH   1  16
ATOM     16  C   UNL     1      43.746   3.631  11.213  0.00  0.00    +0.000 C 
BRANCH  16  17
ATOM     17  O   UNL     1      43.650   2.485  10.368  0.00  0.00    +0.000 OA
BRANCH  17  18
ATOM     18  C   UNL     1      44.600   2.444   9.379  0.00  0.00    +0.000 A 
ATOM     19  C   UNL     1      45.186   1.280   8.869  0.00  0.00    +0.000 A 
ATOM     20  C   UNL     1      46.143   1.347   7.853  0.00  0.00    +0.000 A 
ATOM     21  C   UNL     1      46.523   2.581   7.327  0.00  0.00    +0.000 A 
ATOM     22  C   UNL     1      45.930   3.740   7.834  0.00  0.00    +0.000 A 
ATOM     23  F   UNL     1      46.251   4.951   7.347  0.00  0.00    +0.000 F 
ATOM     24  C   UNL     1      44.981   3.679   8.856  0.00  0.00    +0.000 A 
BRANCH  21  25
ATOM     25  C   UNL     1      47.543   2.591   6.246  0.00  0.00    +0.000 C 
ATOM     26  N   UNL     1      48.841   2.355   6.578  0.00  0.00    +0.000 N 
ATOM     27  O   UNL     1      47.228   2.804   5.075  0.00  0.00    +0.000 OA
ATOM     28  H   UNL     1      49.145   2.178   7.530  0.00  0.00    +0.000 HD
ATOM     29  H   UNL     1      49.531   2.359   5.839  0.00  0.00    +0.000 HD
ENDBRANCH  21  25
ENDBRANCH  17  18
ENDBRANCH  16  17
ENDBRANCH   1  16
TORSDOF 7
ENDMDL
MODEL 8
REMARK VINA RESULT:    -6.768      4.094      8.146
REMARK INTER + INTRA:         -10.536
REMARK INTER:                  -9.086
REMARK INTRA:                  -1.450
REMARK UNBOUND:                -0.998
REMARK  Name = 
REMARK  8 active torsions:
REMARK  status: ('A' for Active; 'I' for Inactive)
REMARK    1  A    between atoms: C_1  and  C_2
REMARK    2  A    between atoms: C_2  and  C_3
REMARK    3  A    between atoms: C_6  and  C_7
REMARK    4  A    between atoms: C_11  and  C_12
REMARK    5  A    between atoms: C_12  and  C_13
REMARK    6  A    between atoms: C_13  and  O_14
REMARK    7  A    between atoms: O_14  and  C_15
REMARK    8  A    between atoms: C_18  and  C_19
REMARK                            x       y       z     vdW  Elec       q    Type
REMARK                         _______ _______ _______ _____ _____    ______ ____
ROOT
ATOM      1  C   UNL     1      49.362   8.767  16.714  0.00  0.00    +0.000 C 
ENDROOT
BRANCH   1   6
ATOM      2  C   UNL     1      48.295   6.756  13.604  0.00  0.00    +0.000 A 
ATOM      3  C   UNL     1      49.241   7.211  12.677  0.00  0.00    +0.000 A 
ATOM      4  C   UNL     1      50.225   8.120  13.046  0.00  0.00    +0.000 A 
ATOM      5  C   UNL     1      50.280   8.613  14.346  0.00  0.00    +0.000 A 
ATOM      6  C   UNL     1      49.348   8.193  15.309  0.00  0.00    +0.000 A 
ATOM      7  C   UNL     1      48.387   7.244  14.917  0.00  0.00    +0.000 A 
BRANCH   2  11
ATOM      8  C   UNL     1      45.220   4.134  12.596  0.00  0.00    +0.000 A 
ATOM      9  C   UNL     1      45.546   5.225  11.798  0.00  0.00    +0.000 A 
ATOM     10  N   UNL     1      46.553   6.080  12.089  0.00  0.00    +0.000 NA
ATOM     11  C   UNL     1      47.248   5.811  13.226  0.00  0.00    +0.000 A 
ATOM     12  C   UNL     1      46.931   4.695  13.999  0.00  0.00    +0.000 A 
ATOM     13  N   UNL     1      45.926   3.841  13.710  0.00  0.00    +0.000 NA
BRANCH   8  15
ATOM     14  C   UNL     1      43.920   2.976  10.798  0.00  0.00    +0.000 C 
ATOM     15  C   UNL     1      44.032   3.272  12.286  0.00  0.00    +0.000 C 
ENDBRANCH   8  15
ENDBRANCH   2  11
ENDBRANCH   1   6
BRANCH   1  16
ATOM     16  C   UNL     1      48.353   8.104  17.655  0.00  0.00    +0.000 C 
BRANCH  16  17
ATOM     17  O   UNL     1      48.985   7.305  18.654  0.00  0.00    +0.000 OA
BRANCH  17  18
ATOM     18  C   UNL     1      49.302   6.038  18.232  0.00  0.00    +0.000 A 
ATOM     19  C   UNL     1      50.597   5.514  18.151  0.00  0.00    +0.000 A 
ATOM     20  C   UNL     1      50.812   4.204  17.713  0.00  0.00    +0.000 A 
ATOM     21  C   UNL     1      49.733   3.398  17.356  0.00  0.00    +0.000 A 
ATOM     22  C   UNL     1      48.441   3.922  17.446  0.00  0.00    +0.000 A 
ATOM     23  F   UNL     1      47.369   3.178  17.130  0.00  0.00    +0.000 F 
ATOM     24  C   UNL     1      48.221   5.233  17.873  0.00  0.00    +0.000 A 
BRANCH  21  25
ATOM     25  C   UNL     1      50.022   2.012  16.901  0.00  0.00    +0.000 C 
ATOM     26  N   UNL     1      50.868   1.249  17.646  0.00  0.00    +0.000 N 
ATOM     27  O   UNL     1      49.510   1.557  15.878  0.00  0.00    +0.000 OA
ATOM     28  H   UNL     1      51.314   1.585  18.494  0.00  0.00    +0.000 HD
ATOM     29  H   UNL     1      51.058   0.306  17.335  0.00  0.00    +0.000 HD
ENDBRANCH  21  25
ENDBRANCH  17  18
ENDBRANCH  16  17
ENDBRANCH   1  16
TORSDOF 7
ENDMDL
MODEL 9
REMARK VINA RESULT:    -6.482      4.851      7.969
REMARK INTER + INTRA:         -10.132
REMARK INTER:                  -9.160
REMARK INTRA:                  -0.972
REMARK UNBOUND:                -0.998
REMARK  Name = 
REMARK  8 active torsions:
REMARK  status: ('A' for Active; 'I' for Inactive)
REMARK    1  A    between atoms: C_1  and  C_2
REMARK    2  A    between atoms: C_2  and  C_3
REMARK    3  A    between atoms: C_6  and  C_7
REMARK    4  A    between atoms: C_11  and  C_12
REMARK    5  A    between atoms: C_12  and  C_13
REMARK    6  A    between atoms: C_13  and  O_14
REMARK    7  A    between atoms: O_14  and  C_15
REMARK    8  A    between atoms: C_18  and  C_19
REMARK                            x       y       z     vdW  Elec       q    Type
REMARK                         _______ _______ _______ _____ _____    ______ ____
ROOT
ATOM      1  C   UNL     1      44.835   8.313  11.937  0.00  0.00    +0.000 C 
ENDROOT
BRANCH   1   6
ATOM      2  C   UNL     1      44.901   4.657  10.719  0.00  0.00    +0.000 A 
ATOM      3  C   UNL     1      44.329   4.017  11.825  0.00  0.00    +0.000 A 
ATOM      4  C   UNL     1      43.897   4.742  12.929  0.00  0.00    +0.000 A 
ATOM      5  C   UNL     1      44.043   6.125  12.965  0.00  0.00    +0.000 A 
ATOM      6  C   UNL     1      44.618   6.813  11.884  0.00  0.00    +0.000 A 
ATOM      7  C   UNL     1      45.010   6.056  10.765  0.00  0.00    +0.000 A 
BRANCH   2  11
ATOM      8  C   UNL     1      46.358   2.503   7.466  0.00  0.00    +0.000 A 
ATOM      9  C   UNL     1      45.760   1.876   8.553  0.00  0.00    +0.000 A 
ATOM     10  N   UNL     1      45.259   2.551   9.613  0.00  0.00    +0.000 NA
ATOM     11  C   UNL     1      45.369   3.905   9.558  0.00  0.00    +0.000 A 
ATOM     12  C   UNL     1      45.942   4.522   8.446  0.00  0.00    +0.000 A 
ATOM     13  N   UNL     1      46.442   3.849   7.388  0.00  0.00    +0.000 NA
BRANCH   8  15
ATOM     14  C   UNL     1      47.449   2.598   5.215  0.00  0.00    +0.000 C 
ATOM     15  C   UNL     1      46.990   1.708   6.362  0.00  0.00    +0.000 C 
ENDBRANCH   8  15
ENDBRANCH   2  11
ENDBRANCH   1   6
BRANCH   1  16
ATOM     16  C   UNL     1      45.939   8.737  12.910  0.00  0.00    +0.000 C 
BRANCH  16  17
ATOM     17  O   UNL     1      46.791   9.742  12.361  0.00  0.00    +0.000 OA
BRANCH  17  18
ATOM     18  C   UNL     1      48.041   9.285  12.025  0.00  0.00    +0.000 A 
ATOM     19  C   UNL     1      48.441   7.944  12.040  0.00  0.00    +0.000 A 
ATOM     20  C   UNL     1      49.741   7.582  11.671  0.00  0.00    +0.000 A 
ATOM     21  C   UNL     1      50.655   8.557  11.275  0.00  0.00    +0.000 A 
ATOM     22  C   UNL     1      50.248   9.893  11.254  0.00  0.00    +0.000 A 
ATOM     23  F   UNL     1      51.087  10.866  10.863  0.00  0.00    +0.000 F 
ATOM     24  C   UNL     1      48.955  10.261  11.631  0.00  0.00    +0.000 A 
BRANCH  21  25
ATOM     25  C   UNL     1      52.020   8.113  10.891  0.00  0.00    +0.000 C 
ATOM     26  N   UNL     1      52.855   7.666  11.869  0.00  0.00    +0.000 N 
ATOM     27  O   UNL     1      52.394   8.143   9.718  0.00  0.00    +0.000 OA
ATOM     28  H   UNL     1      52.590   7.627  12.847  0.00  0.00    +0.000 HD
ATOM     29  H   UNL     1      53.781   7.361  11.602  0.00  0.00    +0.000 HD
ENDBRANCH  21  25
ENDBRANCH  17  18
ENDBRANCH  16  17
ENDBRANCH   1  16
TORSDOF 7
ENDMDL
