MODEL 1
REMARK VINA RESULT:    -7.079      0.000      0.000
REMARK INTER + INTRA:          -9.805
REMARK INTER:                  -9.355
REMARK INTRA:                  -0.450
REMARK UNBOUND:                -0.450
REMARK  Name = 
REMARK  6 active torsions:
REMARK  status: ('A' for Active; 'I' for Inactive)
REMARK    1  A    between atoms: N_1  and  C_2
REMARK    2  A    between atoms: C_2  and  C_3
REMARK    3  A    between atoms: C_7  and  O_8
REMARK    4  A    between atoms: O_8  and  C_9
REMARK    5  A    between atoms: C_9  and  C_10
REMARK    6  A    between atoms: C_10  and  C_11
REMARK                            x       y       z     vdW  Elec       q    Type
REMARK                         _______ _______ _______ _____ _____    ______ ____
ROOT
ATOM      1  C   UNL     1      45.736   4.976  13.174  0.00  0.00    +0.000 A 
ATOM      2  C   UNL     1      45.350   6.295  12.986  0.00  0.00    +0.000 A 
ATOM      3  N   UNL     1      44.409   6.688  12.099  0.00  0.00    +0.000 NA
ATOM      4  C   UNL     1      43.820   5.710  11.365  0.00  0.00    +0.000 A 
ATOM      5  C   UNL     1      44.125   4.358  11.465  0.00  0.00    +0.000 A 
ATOM      6  C   UNL     1      45.104   4.001  12.389  0.00  0.00    +0.000 A 
ENDROOT
BRANCH   1   7
ATOM      7  C   UNL     1      46.762   4.585  14.198  0.00  0.00    +0.000 C 
BRANCH   7   8
ATOM      8  N   UNL     1      47.202   3.207  14.017  0.00  0.00    +0.000 NA
ATOM      9  H   UNL     1      46.407   2.582  14.138  0.00  0.00    +0.000 HD
ATOM     10  H   UNL     1      47.867   2.970  14.753  0.00  0.00    +0.000 HD
ENDBRANCH   7   8
ENDBRANCH   1   7
BRANCH   5  11
ATOM     11  O   UNL     1      43.438   3.495  10.655  0.00  0.00    +0.000 OA
BRANCH  11  12
ATOM     12  C   UNL     1      44.251   2.628   9.854  0.00  0.00    +0.000 C 
BRANCH  12  13
ATOM     13  C   UNL     1      44.706   3.359   8.592  0.00  0.00    +0.000 C 
BRANCH  13  14
ATOM     14  C   UNL     1      45.882   2.673   7.942  0.00  0.00    +0.000 A 
ATOM     15  C   UNL     1      46.800   3.403   7.181  0.00  0.00    +0.000 A 
ATOM     16  C   UNL     1      47.861   2.734   6.588  0.00  0.00    +0.000 A 
ATOM     17  N   UNL     1      48.061   1.403   6.693  0.00  0.00    +0.000 NA
ATOM     18  C   UNL     1      47.160   0.713   7.424  0.00  0.00    +0.000 A 
ATOM     19  C   UNL     1      46.068   1.293   8.054  0.00  0.00    +0.000 A 
ENDBRANCH  13  14
ENDBRANCH  12  13
ENDBRANCH  11  12
ENDBRANCH   5  11
TORSDOF 6
ENDMDL
MODEL 2
REMARK VINA RESULT:    -6.998      1.457      5.831
REMARK INTER + INTRA:          -9.698
REMARK INTER:                  -9.220
REMARK INTRA:                  -0.478
REMARK UNBOUND:                -0.450
REMARK  Name = 
REMARK  6 active torsions:
REMARK  status: ('A' for Active; 'I' for Inactive)
REMARK    1  A    between atoms: N_1  and  C_2
REMARK    2  A    between atoms: C_2  and  C_3
REMARK    3  A    between atoms: C_7  and  O_8
REMARK    4  A    between atoms: O_8  and  C_9
REMARK    5  A    between atoms: C_9  and  C_10
REMARK    6  A    between atoms: C_10  and  C_11
REMARK                            x       y       z     vdW  Elec       q    Type
REMARK                         _______ _______ _______ _____ _____    ______ ____
ROOT
ATOM      1  C   UNL     1      46.435   2.262   7.751  0.00  0.00    +0.000 A 
ATOM      2  C   UNL     1      46.545   3.610   7.442  0.00  0.00    +0.000 A 
ATOM      3  N   UNL     1      45.816   4.583   8.034  0.00  0.00    +0.000 NA
ATOM      4  C   UNL     1      44.935   4.186   8.988  0.00  0.00    +0.000 A 
ATOM      5  C   UNL     1      44.738   2.867   9.379  0.00  0.00    +0.000 A 
ATOM      6  C   UNL     1      45.507   1.900   8.738  0.00  0.00    +0.000 A 
ENDROOT
BRANCH   1   7
ATOM      7  C   UNL     1      47.292   1.222   7.090  0.00  0.00    +0.000 C 
BRANCH   7   8
ATOM      8  N   UNL     1      48.422   1.824   6.390  0.00  0.00    +0.000 NA
ATOM      9  H   UNL     1      48.412   2.831   6.541  0.00  0.00    +0.000 HD
ATOM     10  H   UNL     1      48.306   1.683   5.387  0.00  0.00    +0.000 HD
ENDBRANCH   7   8
ENDBRANCH   1   7
BRANCH   5  11
ATOM     11  O   UNL     1      43.811   2.632  10.359  0.00  0.00    +0.000 OA
BRANCH  11  12
ATOM     12  C   UNL     1      43.332   3.798  11.041  0.00  0.00    +0.000 C 
BRANCH  12  13
ATOM     13  C   UNL     1      43.752   3.753  12.509  0.00  0.00    +0.000 C 
BRANCH  13  14
ATOM     14  C   UNL     1      44.848   4.746  12.808  0.00  0.00    +0.000 A 
ATOM     15  C   UNL     1      44.637   6.115  12.623  0.00  0.00    +0.000 A 
ATOM     16  C   UNL     1      45.675   6.995  12.897  0.00  0.00    +0.000 A 
ATOM     17  N   UNL     1      46.893   6.607  13.329  0.00  0.00    +0.000 NA
ATOM     18  C   UNL     1      47.081   5.281  13.494  0.00  0.00    +0.000 A 
ATOM     19  C   UNL     1      46.106   4.324  13.246  0.00  0.00    +0.000 A 
ENDBRANCH  13  14
ENDBRANCH  12  13
ENDBRANCH  11  12
ENDBRANCH   5  11
TORSDOF 6
ENDMDL
MODEL 3
REMARK VINA RESULT:    -6.955      1.443      1.885
REMARK INTER + INTRA:          -9.641
REMARK INTER:                  -9.226
REMARK INTRA:                  -0.414
REMARK UNBOUND:                -0.450
REMARK  Name = 
REMARK  6 active torsions:
REMARK  status: ('A' for Active; 'I' for Inactive)
REMARK    1  A    between atoms: N_1  and  C_2
REMARK    2  A    between atoms: C_2  and  C_3
REMARK    3  A    between atoms: C_7  and  O_8
REMARK    4  A    between atoms: O_8  and  C_9
REMARK    5  A    between atoms: C_9  and  C_10
REMARK    6  A    between atoms: C_10  and  C_11
REMARK                            x       y       z     vdW  Elec       q    Type
REMARK                         _______ _______ _______ _____ _____    ______ ____
ROOT
ATOM      1  C   UNL     1      46.866   5.929  12.726  0.00  0.00    +0.000 A 
ATOM      2  C   UNL     1      46.787   4.929  13.684  0.00  0.00    +0.000 A 
ATOM      3  N   UNL     1      45.912   3.900  13.632  0.00  0.00    +0.000 NA
ATOM      4  C   UNL     1      45.076   3.868  12.563  0.00  0.00    +0.000 A 
ATOM      5  C   UNL     1      45.063   4.813  11.544  0.00  0.00    +0.000 A 
ATOM      6  C   UNL     1      45.978   5.857  11.643  0.00  0.00    +0.000 A 
ENDROOT
BRANCH   1   7
ATOM      7  C   UNL     1      47.880   7.033  12.811  0.00  0.00    +0.000 C 
BRANCH   7   8
ATOM      8  N   UNL     1      49.237   6.508  12.919  0.00  0.00    +0.000 NA
ATOM      9  H   UNL     1      49.232   5.688  13.523  0.00  0.00    +0.000 HD
ATOM     10  H   UNL     1      49.826   7.200  13.380  0.00  0.00    +0.000 HD
ENDBRANCH   7   8
ENDBRANCH   1   7
BRANCH   5  11
ATOM     11  O   UNL     1      44.158   4.636  10.532  0.00  0.00    +0.000 OA
BRANCH  11  12
ATOM     12  C   UNL     1      44.362   3.470   9.725  0.00  0.00    +0.000 C 
BRANCH  12  13
ATOM     13  C   UNL     1      44.808   3.877   8.322  0.00  0.00    +0.000 C 
BRANCH  13  14
ATOM     14  C   UNL     1      45.881   2.962   7.788  0.00  0.00    +0.000 A 
ATOM     15  C   UNL     1      46.800   3.420   6.840  0.00  0.00    +0.000 A 
ATOM     16  C   UNL     1      47.764   2.543   6.363  0.00  0.00    +0.000 A 
ATOM     17  N   UNL     1      47.867   1.256   6.755  0.00  0.00    +0.000 NA
ATOM     18  C   UNL     1      46.966   0.828   7.664  0.00  0.00    +0.000 A 
ATOM     19  C   UNL     1      45.966   1.629   8.199  0.00  0.00    +0.000 A 
ENDBRANCH  13  14
ENDBRANCH  12  13
ENDBRANCH  11  12
ENDBRANCH   5  11
TORSDOF 6
ENDMDL
MODEL 4
REMARK VINA RESULT:    -6.899      1.461      6.111
REMARK INTER + INTRA:          -9.567
REMARK INTER:                  -9.105
REMARK INTRA:                  -0.462
REMARK UNBOUND:                -0.450
REMARK  Name = 
REMARK  6 active torsions:
REMARK  status: ('A' for Active; 'I' for Inactive)
REMARK    1  A    between atoms: N_1  and  C_2
REMARK    2  A    between atoms: C_2  and  C_3
REMARK    3  A    between atoms: C_7  and  O_8
REMARK    4  A    between atoms: O_8  and  C_9
REMARK    5  A    between atoms: C_9  and  C_10
REMARK    6  A    between atoms: C_10  and  C_11
REMARK                            x       y       z     vdW  Elec       q    Type
REMARK                         _______ _______ _______ _____ _____    ______ ____
ROOT
ATOM      1  C   UNL     1      46.637   2.574   6.983  0.00  0.00    +0.000 A 
ATOM      2  C   UNL     1      46.582   1.368   7.666  0.00  0.00    +0.000 A 
ATOM      3  N   UNL     1      45.763   1.130   8.715  0.00  0.00    +0.000 NA
ATOM      4  C   UNL     1      44.953   2.150   9.097  0.00  0.00    +0.000 A 
ATOM      5  C   UNL     1      44.921   3.400   8.490  0.00  0.00    +0.000 A 
ATOM      6  C   UNL     1      45.786   3.601   7.417  0.00  0.00    +0.000 A 
ENDROOT
BRANCH   1   7
ATOM      7  C   UNL     1      47.538   2.778   5.800  0.00  0.00    +0.000 C 
BRANCH   7   8
ATOM      8  N   UNL     1      48.537   1.720   5.698  0.00  0.00    +0.000 NA
ATOM      9  H   UNL     1      48.337   1.002   6.393  0.00  0.00    +0.000 HD
ATOM     10  H   UNL     1      49.452   2.101   5.935  0.00  0.00    +0.000 HD
ENDBRANCH   7   8
ENDBRANCH   1   7
BRANCH   5  11
ATOM     11  O   UNL     1      44.044   4.323   8.994  0.00  0.00    +0.000 OA
BRANCH  11  12
ATOM     12  C   UNL     1      43.926   4.340  10.422  0.00  0.00    +0.000 C 
BRANCH  12  13
ATOM     13  C   UNL     1      44.507   5.639  10.978  0.00  0.00    +0.000 C 
BRANCH  13  14
ATOM     14  C   UNL     1      45.644   5.378  11.934  0.00  0.00    +0.000 A 
ATOM     15  C   UNL     1      45.660   4.224  12.723  0.00  0.00    +0.000 A 
ATOM     16  C   UNL     1      46.717   4.027  13.600  0.00  0.00    +0.000 A 
ATOM     17  N   UNL     1      47.740   4.895  13.749  0.00  0.00    +0.000 NA
ATOM     18  C   UNL     1      47.704   6.007  12.986  0.00  0.00    +0.000 A 
ATOM     19  C   UNL     1      46.691   6.293  12.081  0.00  0.00    +0.000 A 
ENDBRANCH  13  14
ENDBRANCH  12  13
ENDBRANCH  11  12
ENDBRANCH   5  11
TORSDOF 6
ENDMDL
MODEL 5
REMARK VINA RESULT:    -5.985      1.643      6.324
REMARK INTER + INTRA:          -8.359
REMARK INTER:                  -8.244
REMARK INTRA:                  -0.115
REMARK UNBOUND:                -0.450
REMARK  Name = 
REMARK  6 active torsions:
REMARK  status: ('A' for Active; 'I' for Inactive)
REMARK    1  A    between atoms: N_1  and  C_2
REMARK    2  A    between atoms: C_2  and  C_3
REMARK    3  A    between atoms: C_7  and  O_8
REMARK    4  A    between atoms: O_8  and  C_9
REMARK    5  A    between atoms: C_9  and  C_10
REMARK    6  A    between atoms: C_10  and  C_11
REMARK                            x       y       z     vdW  Elec       q    Type
REMARK                         _______ _______ _______ _____ _____    ______ ____
ROOT
ATOM      1  C   UNL     1      46.668   2.608   7.018  0.00  0.00    +0.000 A 
ATOM      2  C   UNL     1      46.390   1.378   7.598  0.00  0.00    +0.000 A 
ATOM      3  N   UNL     1      45.666   1.223   8.729  0.00  0.00    +0.000 NA
ATOM      4  C   UNL     1      45.192   2.355   9.307  0.00  0.00    +0.000 A 
ATOM      5  C   UNL     1      45.407   3.639   8.819  0.00  0.00    +0.000 A 
ATOM      6  C   UNL     1      46.162   3.750   7.655  0.00  0.00    +0.000 A 
ENDROOT
BRANCH   1   7
ATOM      7  C   UNL     1      47.448   2.726   5.741  0.00  0.00    +0.000 C 
BRANCH   7   8
ATOM      8  N   UNL     1      48.537   1.759   5.685  0.00  0.00    +0.000 NA
ATOM      9  H   UNL     1      49.226   1.987   6.400  0.00  0.00    +0.000 HD
ATOM     10  H   UNL     1      49.015   1.845   4.789  0.00  0.00    +0.000 HD
ENDBRANCH   7   8
ENDBRANCH   1   7
BRANCH   5  11
ATOM     11  O   UNL     1      44.857   4.680   9.518  0.00  0.00    +0.000 OA
BRANCH  11  12
ATOM     12  C   UNL     1      43.709   4.348  10.309  0.00  0.00    +0.000 C 
BRANCH  12  13
ATOM     13  C   UNL     1      44.110   4.209  11.777  0.00  0.00    +0.000 C 
BRANCH  13  14
ATOM     14  C   UNL     1      45.011   5.335  12.220  0.00  0.00    +0.000 A 
ATOM     15  C   UNL     1      46.266   5.065  12.774  0.00  0.00    +0.000 A 
ATOM     16  C   UNL     1      47.059   6.128  13.181  0.00  0.00    +0.000 A 
ATOM     17  N   UNL     1      46.688   7.423  13.085  0.00  0.00    +0.000 NA
ATOM     18  C   UNL     1      45.470   7.663  12.556  0.00  0.00    +0.000 A 
ATOM     19  C   UNL     1      44.605   6.668  12.120  0.00  0.00    +0.000 A 
ENDBRANCH  13  14
ENDBRANCH  12  13
ENDBRANCH  11  12
ENDBRANCH   5  11
TORSDOF 6
ENDMDL
MODEL 6
REMARK VINA RESULT:    -5.771      1.854      6.366
REMARK INTER + INTRA:          -8.076
REMARK INTER:                  -7.867
REMARK INTRA:                  -0.209
REMARK UNBOUND:                -0.450
REMARK  Name = 
REMARK  6 active torsions:
REMARK  status: ('A' for Active; 'I' for Inactive)
REMARK    1  A    between atoms: N_1  and  C_2
REMARK    2  A    between atoms: C_2  and  C_3
REMARK    3  A    between atoms: C_7  and  O_8
REMARK    4  A    between atoms: O_8  and  C_9
REMARK    5  A    between atoms: C_9  and  C_10
REMARK    6  A    between atoms: C_10  and  C_11
REMARK                            x       y       z     vdW  Elec       q    Type
REMARK                         _______ _______ _______ _____ _____    ______ ____
ROOT
ATOM      1  C   UNL     1      46.681   2.447   6.791  0.00  0.00    +0.000 A 
ATOM      2  C   UNL     1      46.414   1.280   7.491  0.00  0.00    +0.000 A 
ATOM      3  N   UNL     1      45.767   1.241   8.677  0.00  0.00    +0.000 NA
ATOM      4  C   UNL     1      45.362   2.432   9.187  0.00  0.00    +0.000 A 
ATOM      5  C   UNL     1      45.574   3.663   8.577  0.00  0.00    +0.000 A 
ATOM      6  C   UNL     1      46.249   3.654   7.359  0.00  0.00    +0.000 A 
ENDROOT
BRANCH   1   7
ATOM      7  C   UNL     1      47.373   2.435   5.458  0.00  0.00    +0.000 C 
BRANCH   7   8
ATOM      8  N   UNL     1      48.618   1.677   5.507  0.00  0.00    +0.000 NA
ATOM      9  H   UNL     1      48.922   1.593   6.475  0.00  0.00    +0.000 HD
ATOM     10  H   UNL     1      49.346   2.201   5.022  0.00  0.00    +0.000 HD
ENDBRANCH   7   8
ENDBRANCH   1   7
BRANCH   5  11
ATOM     11  O   UNL     1      45.099   4.775   9.220  0.00  0.00    +0.000 OA
BRANCH  11  12
ATOM     12  C   UNL     1      46.072   5.796   9.476  0.00  0.00    +0.000 C 
BRANCH  12  13
ATOM     13  C   UNL     1      46.137   6.091  10.974  0.00  0.00    +0.000 C 
BRANCH  13  14
ATOM     14  C   UNL     1      44.944   5.529  11.707  0.00  0.00    +0.000 A 
ATOM     15  C   UNL     1      43.690   6.136  11.595  0.00  0.00    +0.000 A 
ATOM     16  C   UNL     1      42.620   5.597  12.296  0.00  0.00    +0.000 A 
ATOM     17  N   UNL     1      42.717   4.514  13.096  0.00  0.00    +0.000 NA
ATOM     18  C   UNL     1      43.937   3.947  13.199  0.00  0.00    +0.000 A 
ATOM     19  C   UNL     1      45.066   4.412  12.538  0.00  0.00    +0.000 A 
ENDBRANCH  13  14
ENDBRANCH  12  13
ENDBRANCH  11  12
ENDBRANCH   5  11
TORSDOF 6
ENDMDL
MODEL 7
REMARK VINA RESULT:    -5.240      3.680      7.443
REMARK INTER + INTRA:          -7.374
REMARK INTER:                  -7.092
REMARK INTRA:                  -0.282
REMARK UNBOUND:                -0.450
REMARK  Name = 
REMARK  6 active torsions:
REMARK  status: ('A' for Active; 'I' for Inactive)
REMARK    1  A    between atoms: N_1  and  C_2
REMARK    2  A    between atoms: C_2  and  C_3
REMARK    3  A    between atoms: C_7  and  O_8
REMARK    4  A    between atoms: O_8  and  C_9
REMARK    5  A    between atoms: C_9  and  C_10
REMARK    6  A    between atoms: C_10  and  C_11
REMARK                            x       y       z     vdW  Elec       q    Type
REMARK                         _______ _______ _______ _____ _____    ______ ____
ROOT
ATOM      1  C   UNL     1      44.993   4.641  11.641  0.00  0.00    +0.000 A 
ATOM      2  C   UNL     1      45.533   5.916  11.565  0.00  0.00    +0.000 A 
ATOM      3  N   UNL     1      46.507   6.374  12.384  0.00  0.00    +0.000 NA
ATOM      4  C   UNL     1      46.967   5.509  13.323  0.00  0.00    +0.000 A 
ATOM      5  C   UNL     1      46.503   4.210  13.493  0.00  0.00    +0.000 A 
ATOM      6  C   UNL     1      45.496   3.784  12.631  0.00  0.00    +0.000 A 
ENDROOT
BRANCH   1   7
ATOM      7  C   UNL     1      43.937   4.167  10.685  0.00  0.00    +0.000 C 
BRANCH   7   8
ATOM      8  N   UNL     1      44.300   4.448   9.301  0.00  0.00    +0.000 NA
ATOM      9  H   UNL     1      43.945   3.704   8.703  0.00  0.00    +0.000 HD
ATOM     10  H   UNL     1      45.315   4.427   9.212  0.00  0.00    +0.000 HD
ENDBRANCH   7   8
ENDBRANCH   1   7
BRANCH   5  11
ATOM     11  O   UNL     1      47.074   3.461  14.487  0.00  0.00    +0.000 OA
BRANCH  11  12
ATOM     12  C   UNL     1      47.323   4.160  15.713  0.00  0.00    +0.000 C 
BRANCH  12  13
ATOM     13  C   UNL     1      47.613   3.161  16.833  0.00  0.00    +0.000 C 
BRANCH  13  14
ATOM     14  C   UNL     1      49.082   3.110  17.172  0.00  0.00    +0.000 A 
ATOM     15  C   UNL     1      49.747   4.253  17.625  0.00  0.00    +0.000 A 
ATOM     16  C   UNL     1      51.102   4.168  17.914  0.00  0.00    +0.000 A 
ATOM     17  N   UNL     1      51.830   3.041  17.774  0.00  0.00    +0.000 NA
ATOM     18  C   UNL     1      51.173   1.950  17.326  0.00  0.00    +0.000 A 
ATOM     19  C   UNL     1      49.821   1.935  17.012  0.00  0.00    +0.000 A 
ENDBRANCH  13  14
ENDBRANCH  12  13
ENDBRANCH  11  12
ENDBRANCH   5  11
TORSDOF 6
ENDMDL
MODEL 8
REMARK VINA RESULT:    -5.215      2.445      6.073
REMARK INTER + INTRA:          -7.342
REMARK INTER:                  -6.866
REMARK INTRA:                  -0.476
REMARK UNBOUND:                -0.450
REMARK  Name = 
REMARK  6 active torsions:
REMARK  status: ('A' for Active; 'I' for Inactive)
REMARK    1  A    between atoms: N_1  and  C_2
REMARK    2  A    between atoms: C_2  and  C_3
REMARK    3  A    between atoms: C_7  and  O_8
REMARK    4  A    between atoms: O_8  and  C_9
REMARK    5  A    between atoms: C_9  and  C_10
REMARK    6  A    between atoms: C_10  and  C_11
REMARK                            x       y       z     vdW  Elec       q    Type
REMARK                         _______ _______ _______ _____ _____    ______ ____
ROOT
ATOM      1  C   UNL     1      45.090   3.479   8.958  0.00  0.00    +0.000 A 
ATOM      2  C   UNL     1      44.385   2.416   9.504  0.00  0.00    +0.000 A 
ATOM      3  N   UNL     1      43.625   2.506  10.619  0.00  0.00    +0.000 NA
ATOM      4  C   UNL     1      43.564   3.724  11.215  0.00  0.00    +0.000 A 
ATOM      5  C   UNL     1      44.227   4.858  10.761  0.00  0.00    +0.000 A 
ATOM      6  C   UNL     1      45.002   4.716   9.613  0.00  0.00    +0.000 A 
ENDROOT
BRANCH   1   7
ATOM      7  C   UNL     1      45.892   3.338   7.697  0.00  0.00    +0.000 C 
BRANCH   7   8
ATOM      8  N   UNL     1      46.618   2.073   7.662  0.00  0.00    +0.000 NA
ATOM      9  H   UNL     1      46.404   1.540   8.503  0.00  0.00    +0.000 HD
ATOM     10  H   UNL     1      47.619   2.263   7.690  0.00  0.00    +0.000 HD
ENDBRANCH   7   8
ENDBRANCH   1   7
BRANCH   5  11
ATOM     11  O   UNL     1      44.061   6.014  11.476  0.00  0.00    +0.000 OA
BRANCH  11  12
ATOM     12  C   UNL     1      44.430   5.938  12.858  0.00  0.00    +0.000 C 
BRANCH  12  13
ATOM     13  C   UNL     1      45.944   5.780  12.986  0.00  0.00    +0.000 C 
BRANCH  13  14
ATOM     14  C   UNL     1      46.670   7.059  12.653  0.00  0.00    +0.000 A 
ATOM     15  C   UNL     1      46.068   8.299  12.883  0.00  0.00    +0.000 A 
ATOM     16  C   UNL     1      46.764   9.453  12.551  0.00  0.00    +0.000 A 
ATOM     17  N   UNL     1      47.998   9.455  12.004  0.00  0.00    +0.000 NA
ATOM     18  C   UNL     1      48.560   8.248  11.782  0.00  0.00    +0.000 A 
ATOM     19  C   UNL     1      47.945   7.040  12.080  0.00  0.00    +0.000 A 
ENDBRANCH  13  14
ENDBRANCH  12  13
ENDBRANCH  11  12
ENDBRANCH   5  11
TORSDOF 6
ENDMDL
MODEL 9
REMARK VINA RESULT:    -5.134      3.810      8.304
REMARK INTER + INTRA:          -7.235
REMARK INTER:                  -6.970
REMARK INTRA:                  -0.265
REMARK UNBOUND:                -0.450
REMARK  Name = 
REMARK  6 active torsions:
REMARK  status: ('A' for Active; 'I' for Inactive)
REMARK    1  A    between atoms: N_1  and  C_2
REMARK    2  A    between atoms: C_2  and  C_3
REMARK    3  A    between atoms: C_7  and  O_8
REMARK    4  A    between atoms: O_8  and  C_9
REMARK    5  A    between atoms: C_9  and  C_10
REMARK    6  A    between atoms: C_10  and  C_11
REMARK                            x       y       z     vdW  Elec       q    Type
REMARK                         _______ _______ _______ _____ _____    ______ ____
ROOT
ATOM      1  C   UNL     1      44.900   4.281  11.550  0.00  0.00    +0.000 A 
ATOM      2  C   UNL     1      45.292   5.600  11.375  0.00  0.00    +0.000 A 
ATOM      3  N   UNL     1      46.227   6.217  12.132  0.00  0.00    +0.000 NA
ATOM      4  C   UNL     1      46.803   5.475  13.111  0.00  0.00    +0.000 A 
ATOM      5  C   UNL     1      46.490   4.147  13.381  0.00  0.00    +0.000 A 
ATOM      6  C   UNL     1      45.518   3.555  12.579  0.00  0.00    +0.000 A 
ENDROOT
BRANCH   1   7
ATOM      7  C   UNL     1      43.882   3.629  10.660  0.00  0.00    +0.000 C 
BRANCH   7   8
ATOM      8  N   UNL     1      42.953   2.803  11.423  0.00  0.00    +0.000 NA
ATOM      9  H   UNL     1      41.998   3.046  11.165  0.00  0.00    +0.000 HD
ATOM     10  H   UNL     1      43.047   3.023  12.414  0.00  0.00    +0.000 HD
ENDBRANCH   7   8
ENDBRANCH   1   7
BRANCH   5  11
ATOM     11  O   UNL     1      47.164   3.536  14.404  0.00  0.00    +0.000 OA
BRANCH  11  12
ATOM     12  C   UNL     1      47.355   4.337  15.576  0.00  0.00    +0.000 C 
BRANCH  12  13
ATOM     13  C   UNL     1      47.584   3.439  16.790  0.00  0.00    +0.000 C 
BRANCH  13  14
ATOM     14  C   UNL     1      47.788   4.243  18.051  0.00  0.00    +0.000 A 
ATOM     15  C   UNL     1      48.755   3.865  18.986  0.00  0.00    +0.000 A 
ATOM     16  C   UNL     1      48.902   4.623  20.139  0.00  0.00    +0.000 A 
ATOM     17  N   UNL     1      48.156   5.712  20.423  0.00  0.00    +0.000 NA
ATOM     18  C   UNL     1      47.222   6.056  19.512  0.00  0.00    +0.000 A 
ATOM     19  C   UNL     1      46.999   5.362  18.331  0.00  0.00    +0.000 A 
ENDBRANCH  13  14
ENDBRANCH  12  13
ENDBRANCH  11  12
ENDBRANCH   5  11
TORSDOF 6
ENDMDL
