MODEL 1
REMARK VINA RESULT:    -7.738      0.000      0.000
REMARK INTER + INTRA:         -10.857
REMARK INTER:                 -10.000
REMARK INTRA:                  -0.858
REMARK UNBOUND:                -0.858
REMARK  Name = 
REMARK  5 active torsions:
REMARK  status: ('A' for Active; 'I' for Inactive)
REMARK    1  A    between atoms: C_2  and  C_3
REMARK    2  A    between atoms: C_7  and  C_8
REMARK    3  A    between atoms: C_8  and  C_9
REMARK    4  A    between atoms: C_9  and  C_10
REMARK    5  A    between atoms: C_14  and  C_15
REMARK                            x       y       z     vdW  Elec       q    Type
REMARK                         _______ _______ _______ _____ _____    ______ ____
ROOT
ATOM      1  C   UNL     1      45.185   4.278  11.752  0.00  0.00    +0.000 A 
ATOM      2  C   UNL     1      45.661   3.678  12.914  0.00  0.00    +0.000 A 
ATOM      3  C   UNL     1      46.483   4.416  13.747  0.00  0.00    +0.000 A 
ATOM      4  N   UNL     1      46.856   5.691  13.502  0.00  0.00    +0.000 NA
ATOM      5  C   UNL     1      46.356   6.302  12.405  0.00  0.00    +0.000 A 
ATOM      6  C   UNL     1      45.533   5.609  11.509  0.00  0.00    +0.000 A 
ENDROOT
BRANCH   5   7
ATOM      7  C   UNL     1      46.689   7.733  12.206  0.00  0.00    +0.000 A 
ATOM      8  C   UNL     1      45.650   8.695  12.254  0.00  0.00    +0.000 A 
ATOM      9  C   UNL     1      45.897  10.067  12.176  0.00  0.00    +0.000 A 
ATOM     10  C   UNL     1      47.197  10.525  12.020  0.00  0.00    +0.000 A 
ATOM     11  C   UNL     1      48.241   9.609  11.931  0.00  0.00    +0.000 A 
ATOM     12  C   UNL     1      47.999   8.228  12.021  0.00  0.00    +0.000 A 
ATOM     13 CL   UNL     1      49.413   7.227  11.950  0.00  0.00    +0.000 Cl
ENDBRANCH   5   7
BRANCH   1  14
ATOM     14  C   UNL     1      44.267   3.538  10.811  0.00  0.00    +0.000 C 
BRANCH  14  15
ATOM     15  C   UNL     1      44.276   4.111   9.387  0.00  0.00    +0.000 C 
BRANCH  15  20
ATOM     16  C   UNL     1      46.501   1.568   7.682  0.00  0.00    +0.000 A 
ATOM     17  C   UNL     1      47.225   2.392   6.825  0.00  0.00    +0.000 A 
ATOM     18  C   UNL     1      46.951   3.745   6.849  0.00  0.00    +0.000 A 
ATOM     19  N   UNL     1      46.021   4.305   7.654  0.00  0.00    +0.000 NA
ATOM     20  C   UNL     1      45.319   3.496   8.481  0.00  0.00    +0.000 A 
ATOM     21  C   UNL     1      45.535   2.122   8.523  0.00  0.00    +0.000 A 
BRANCH  16  23
ATOM     22  N   UNL     1      46.940  -0.986   7.718  0.00  0.00    +0.000 NA
ATOM     23  C   UNL     1      46.743   0.159   7.701  0.00  0.00    +0.000 C 
ENDBRANCH  16  23
ENDBRANCH  15  20
ENDBRANCH  14  15
ENDBRANCH   1  14
TORSDOF 5
ENDMDL
MODEL 2
REMARK VINA RESULT:    -7.186      1.984      3.733
REMARK INTER + INTRA:         -10.145
REMARK INTER:                  -9.988
REMARK INTRA:                  -0.157
REMARK UNBOUND:                -0.858
REMARK  Name = 
REMARK  5 active torsions:
REMARK  status: ('A' for Active; 'I' for Inactive)
REMARK    1  A    between atoms: C_2  and  C_3
REMARK    2  A    between atoms: C_7  and  C_8
REMARK    3  A    between atoms: C_8  and  C_9
REMARK    4  A    between atoms: C_9  and  C_10
REMARK    5  A    between atoms: C_14  and  C_15
REMARK                            x       y       z     vdW  Elec       q    Type
REMARK                         _______ _______ _______ _____ _____    ______ ____
ROOT
ATOM      1  C   UNL     1      45.471   4.611  12.089  0.00  0.00    +0.000 A 
ATOM      2  C   UNL     1      45.803   5.839  11.525  0.00  0.00    +0.000 A 
ATOM      3  C   UNL     1      46.628   6.690  12.240  0.00  0.00    +0.000 A 
ATOM      4  N   UNL     1      47.134   6.403  13.458  0.00  0.00    +0.000 NA
ATOM      5  C   UNL     1      46.865   5.191  13.991  0.00  0.00    +0.000 A 
ATOM      6  C   UNL     1      46.023   4.287  13.332  0.00  0.00    +0.000 A 
ENDROOT
BRANCH   5   7
ATOM      7  C   UNL     1      47.513   4.848  15.280  0.00  0.00    +0.000 A 
ATOM      8  C   UNL     1      47.301   3.564  15.837  0.00  0.00    +0.000 A 
ATOM      9  C   UNL     1      47.956   3.132  16.993  0.00  0.00    +0.000 A 
ATOM     10  C   UNL     1      48.831   3.986  17.647  0.00  0.00    +0.000 A 
ATOM     11  C   UNL     1      49.038   5.269  17.151  0.00  0.00    +0.000 A 
ATOM     12  C   UNL     1      48.391   5.703  15.982  0.00  0.00    +0.000 A 
ATOM     13 CL   UNL     1      48.802   7.308  15.466  0.00  0.00    +0.000 Cl
ENDBRANCH   5   7
BRANCH   1  14
ATOM     14  C   UNL     1      44.596   3.625  11.355  0.00  0.00    +0.000 C 
BRANCH  14  15
ATOM     15  C   UNL     1      44.277   4.058   9.917  0.00  0.00    +0.000 C 
BRANCH  15  20
ATOM     16  C   UNL     1      46.381   1.683   7.853  0.00  0.00    +0.000 A 
ATOM     17  C   UNL     1      47.017   2.578   6.998  0.00  0.00    +0.000 A 
ATOM     18  C   UNL     1      46.727   3.920   7.141  0.00  0.00    +0.000 A 
ATOM     19  N   UNL     1      45.864   4.405   8.059  0.00  0.00    +0.000 NA
ATOM     20  C   UNL     1      45.247   3.527   8.884  0.00  0.00    +0.000 A 
ATOM     21  C   UNL     1      45.484   2.158   8.810  0.00  0.00    +0.000 A 
BRANCH  16  23
ATOM     22  N   UNL     1      46.855  -0.859   7.670  0.00  0.00    +0.000 NA
ATOM     23  C   UNL     1      46.643   0.280   7.753  0.00  0.00    +0.000 C 
ENDBRANCH  16  23
ENDBRANCH  15  20
ENDBRANCH  14  15
ENDBRANCH   1  14
TORSDOF 5
ENDMDL
MODEL 3
REMARK VINA RESULT:    -6.893      1.976      3.013
REMARK INTER + INTRA:          -9.766
REMARK INTER:                  -9.184
REMARK INTRA:                  -0.582
REMARK UNBOUND:                -0.858
REMARK  Name = 
REMARK  5 active torsions:
REMARK  status: ('A' for Active; 'I' for Inactive)
REMARK    1  A    between atoms: C_2  and  C_3
REMARK    2  A    between atoms: C_7  and  C_8
REMARK    3  A    between atoms: C_8  and  C_9
REMARK    4  A    between atoms: C_9  and  C_10
REMARK    5  A    between atoms: C_14  and  C_15
REMARK                            x       y       z     vdW  Elec       q    Type
REMARK                         _______ _______ _______ _____ _____    ______ ____
ROOT
ATOM      1  C   UNL     1      44.923   5.506  13.029  0.00  0.00    +0.000 A 
ATOM      2  C   UNL     1      45.594   4.452  13.642  0.00  0.00    +0.000 A 
ATOM      3  C   UNL     1      46.972   4.522  13.747  0.00  0.00    +0.000 A 
ATOM      4  N   UNL     1      47.712   5.555  13.287  0.00  0.00    +0.000 NA
ATOM      5  C   UNL     1      47.067   6.608  12.741  0.00  0.00    +0.000 A 
ATOM      6  C   UNL     1      45.676   6.597  12.586  0.00  0.00    +0.000 A 
ENDROOT
BRANCH   5   7
ATOM      7  C   UNL     1      47.882   7.779  12.338  0.00  0.00    +0.000 A 
ATOM      8  C   UNL     1      49.258   7.595  12.055  0.00  0.00    +0.000 A 
ATOM      9  C   UNL     1      50.067   8.627  11.574  0.00  0.00    +0.000 A 
ATOM     10  C   UNL     1      49.530   9.891  11.383  0.00  0.00    +0.000 A 
ATOM     11  C   UNL     1      48.191  10.120  11.684  0.00  0.00    +0.000 A 
ATOM     12  C   UNL     1      47.370   9.083  12.157  0.00  0.00    +0.000 A 
ATOM     13 CL   UNL     1      45.714   9.521  12.429  0.00  0.00    +0.000 Cl
ENDBRANCH   5   7
BRANCH   1  14
ATOM     14  C   UNL     1      43.419   5.505  12.902  0.00  0.00    +0.000 C 
BRANCH  14  15
ATOM     15  C   UNL     1      42.938   5.385  11.449  0.00  0.00    +0.000 C 
BRANCH  15  20
ATOM     16  C   UNL     1      45.011   3.536   8.879  0.00  0.00    +0.000 A 
ATOM     17  C   UNL     1      44.789   2.219   9.267  0.00  0.00    +0.000 A 
ATOM     18  C   UNL     1      43.966   1.998  10.353  0.00  0.00    +0.000 A 
ATOM     19  N   UNL     1      43.372   2.988  11.054  0.00  0.00    +0.000 NA
ATOM     20  C   UNL     1      43.597   4.267  10.672  0.00  0.00    +0.000 A 
ATOM     21  C   UNL     1      44.410   4.577   9.587  0.00  0.00    +0.000 A 
BRANCH  16  23
ATOM     22  N   UNL     1      46.538   4.060   6.850  0.00  0.00    +0.000 NA
ATOM     23  C   UNL     1      45.854   3.825   7.760  0.00  0.00    +0.000 C 
ENDBRANCH  16  23
ENDBRANCH  15  20
ENDBRANCH  14  15
ENDBRANCH   1  14
TORSDOF 5
ENDMDL
MODEL 4
REMARK VINA RESULT:    -6.815      2.917      7.244
REMARK INTER + INTRA:          -9.665
REMARK INTER:                  -8.963
REMARK INTRA:                  -0.702
REMARK UNBOUND:                -0.858
REMARK  Name = 
REMARK  5 active torsions:
REMARK  status: ('A' for Active; 'I' for Inactive)
REMARK    1  A    between atoms: C_2  and  C_3
REMARK    2  A    between atoms: C_7  and  C_8
REMARK    3  A    between atoms: C_8  and  C_9
REMARK    4  A    between atoms: C_9  and  C_10
REMARK    5  A    between atoms: C_14  and  C_15
REMARK                            x       y       z     vdW  Elec       q    Type
REMARK                         _______ _______ _______ _____ _____    ______ ____
ROOT
ATOM      1  C   UNL     1      45.284   6.328  11.707  0.00  0.00    +0.000 A 
ATOM      2  C   UNL     1      43.905   6.304  11.896  0.00  0.00    +0.000 A 
ATOM      3  C   UNL     1      43.135   5.550  11.028  0.00  0.00    +0.000 A 
ATOM      4  N   UNL     1      43.640   4.832  10.002  0.00  0.00    +0.000 NA
ATOM      5  C   UNL     1      44.981   4.803   9.843  0.00  0.00    +0.000 A 
ATOM      6  C   UNL     1      45.820   5.556  10.673  0.00  0.00    +0.000 A 
ENDROOT
BRANCH   5   7
ATOM      7  C   UNL     1      45.527   3.926   8.779  0.00  0.00    +0.000 A 
ATOM      8  C   UNL     1      46.411   4.477   7.819  0.00  0.00    +0.000 A 
ATOM      9  C   UNL     1      47.044   3.696   6.849  0.00  0.00    +0.000 A 
ATOM     10  C   UNL     1      46.793   2.334   6.792  0.00  0.00    +0.000 A 
ATOM     11  C   UNL     1      45.902   1.761   7.695  0.00  0.00    +0.000 A 
ATOM     12  C   UNL     1      45.273   2.540   8.679  0.00  0.00    +0.000 A 
ATOM     13 CL   UNL     1      44.238   1.664   9.761  0.00  0.00    +0.000 Cl
ENDBRANCH   5   7
BRANCH   1  14
ATOM     14  C   UNL     1      46.185   7.111  12.630  0.00  0.00    +0.000 C 
BRANCH  14  15
ATOM     15  C   UNL     1      47.614   6.554  12.692  0.00  0.00    +0.000 C 
BRANCH  15  20
ATOM     16  C   UNL     1      47.825   4.894  16.087  0.00  0.00    +0.000 A 
ATOM     17  C   UNL     1      48.929   5.548  16.625  0.00  0.00    +0.000 A 
ATOM     18  C   UNL     1      49.551   6.505  15.850  0.00  0.00    +0.000 A 
ATOM     19  N   UNL     1      49.148   6.836  14.604  0.00  0.00    +0.000 NA
ATOM     20  C   UNL     1      48.076   6.192  14.087  0.00  0.00    +0.000 A 
ATOM     21  C   UNL     1      47.388   5.217  14.801  0.00  0.00    +0.000 A 
BRANCH  16  23
ATOM     22  N   UNL     1      46.582   3.081  17.461  0.00  0.00    +0.000 NA
ATOM     23  C   UNL     1      47.139   3.894  16.845  0.00  0.00    +0.000 C 
ENDBRANCH  16  23
ENDBRANCH  15  20
ENDBRANCH  14  15
ENDBRANCH   1  14
TORSDOF 5
ENDMDL
MODEL 5
REMARK VINA RESULT:    -6.732      3.175      7.450
REMARK INTER + INTRA:          -9.557
REMARK INTER:                  -8.640
REMARK INTRA:                  -0.917
REMARK UNBOUND:                -0.858
REMARK  Name = 
REMARK  5 active torsions:
REMARK  status: ('A' for Active; 'I' for Inactive)
REMARK    1  A    between atoms: C_2  and  C_3
REMARK    2  A    between atoms: C_7  and  C_8
REMARK    3  A    between atoms: C_8  and  C_9
REMARK    4  A    between atoms: C_9  and  C_10
REMARK    5  A    between atoms: C_14  and  C_15
REMARK                            x       y       z     vdW  Elec       q    Type
REMARK                         _______ _______ _______ _____ _____    ______ ____
ROOT
ATOM      1  C   UNL     1      47.413   7.449  12.581  0.00  0.00    +0.000 A 
ATOM      2  C   UNL     1      46.451   8.408  12.887  0.00  0.00    +0.000 A 
ATOM      3  C   UNL     1      45.186   8.266  12.347  0.00  0.00    +0.000 A 
ATOM      4  N   UNL     1      44.822   7.250  11.535  0.00  0.00    +0.000 NA
ATOM      5  C   UNL     1      45.730   6.283  11.276  0.00  0.00    +0.000 A 
ATOM      6  C   UNL     1      47.035   6.372  11.774  0.00  0.00    +0.000 A 
ENDROOT
BRANCH   5   7
ATOM      7  C   UNL     1      45.285   5.120  10.471  0.00  0.00    +0.000 A 
ATOM      8  C   UNL     1      45.616   5.069   9.094  0.00  0.00    +0.000 A 
ATOM      9  C   UNL     1      45.320   3.962   8.295  0.00  0.00    +0.000 A 
ATOM     10  C   UNL     1      44.657   2.875   8.843  0.00  0.00    +0.000 A 
ATOM     11  C   UNL     1      44.282   2.903  10.183  0.00  0.00    +0.000 A 
ATOM     12  C   UNL     1      44.588   4.009  10.994  0.00  0.00    +0.000 A 
ATOM     13 CL   UNL     1      44.103   3.861  12.653  0.00  0.00    +0.000 Cl
ENDBRANCH   5   7
BRANCH   1  14
ATOM     14  C   UNL     1      48.807   7.530  13.155  0.00  0.00    +0.000 C 
BRANCH  14  15
ATOM     15  C   UNL     1      48.827   7.956  14.629  0.00  0.00    +0.000 C 
BRANCH  15  20
ATOM     16  C   UNL     1      48.454   4.865  16.781  0.00  0.00    +0.000 A 
ATOM     17  C   UNL     1      49.723   4.790  17.347  0.00  0.00    +0.000 A 
ATOM     18  C   UNL     1      50.641   5.759  16.998  0.00  0.00    +0.000 A 
ATOM     19  N   UNL     1      50.374   6.768  16.140  0.00  0.00    +0.000 NA
ATOM     20  C   UNL     1      49.139   6.831  15.592  0.00  0.00    +0.000 A 
ATOM     21  C   UNL     1      48.152   5.897  15.892  0.00  0.00    +0.000 A 
BRANCH  16  23
ATOM     22  N   UNL     1      46.654   3.095  17.372  0.00  0.00    +0.000 NA
ATOM     23  C   UNL     1      47.460   3.888  17.107  0.00  0.00    +0.000 C 
ENDBRANCH  16  23
ENDBRANCH  15  20
ENDBRANCH  14  15
ENDBRANCH   1  14
TORSDOF 5
ENDMDL
MODEL 6
REMARK VINA RESULT:    -6.573      3.464      7.488
REMARK INTER + INTRA:          -9.351
REMARK INTER:                  -8.402
REMARK INTRA:                  -0.949
REMARK UNBOUND:                -0.858
REMARK  Name = 
REMARK  5 active torsions:
REMARK  status: ('A' for Active; 'I' for Inactive)
REMARK    1  A    between atoms: C_2  and  C_3
REMARK    2  A    between atoms: C_7  and  C_8
REMARK    3  A    between atoms: C_8  and  C_9
REMARK    4  A    between atoms: C_9  and  C_10
REMARK    5  A    between atoms: C_14  and  C_15
REMARK                            x       y       z     vdW  Elec       q    Type
REMARK                         _______ _______ _______ _____ _____    ______ ____
ROOT
ATOM      1  C   UNL     1      47.853   7.395  13.126  0.00  0.00    +0.000 A 
ATOM      2  C   UNL     1      47.121   8.575  13.226  0.00  0.00    +0.000 A 
ATOM      3  C   UNL     1      45.793   8.560  12.836  0.00  0.00    +0.000 A 
ATOM      4  N   UNL     1      45.159   7.467  12.361  0.00  0.00    +0.000 NA
ATOM      5  C   UNL     1      45.843   6.303  12.312  0.00  0.00    +0.000 A 
ATOM      6  C   UNL     1      47.194   6.248  12.674  0.00  0.00    +0.000 A 
ENDROOT
BRANCH   5   7
ATOM      7  C   UNL     1      45.103   5.090  11.890  0.00  0.00    +0.000 A 
ATOM      8  C   UNL     1      44.353   4.370  12.852  0.00  0.00    +0.000 A 
ATOM      9  C   UNL     1      43.551   3.279  12.512  0.00  0.00    +0.000 A 
ATOM     10  C   UNL     1      43.491   2.853  11.194  0.00  0.00    +0.000 A 
ATOM     11  C   UNL     1      44.243   3.511  10.225  0.00  0.00    +0.000 A 
ATOM     12  C   UNL     1      45.042   4.616  10.560  0.00  0.00    +0.000 A 
ATOM     13 CL   UNL     1      45.869   5.358   9.227  0.00  0.00    +0.000 Cl
ENDBRANCH   5   7
BRANCH   1  14
ATOM     14  C   UNL     1      49.298   7.333  13.555  0.00  0.00    +0.000 C 
BRANCH  14  15
ATOM     15  C   UNL     1      49.501   7.672  15.039  0.00  0.00    +0.000 C 
BRANCH  15  20
ATOM     16  C   UNL     1      48.632   4.552  16.997  0.00  0.00    +0.000 A 
ATOM     17  C   UNL     1      49.863   4.259  17.575  0.00  0.00    +0.000 A 
ATOM     18  C   UNL     1      50.921   5.101  17.298  0.00  0.00    +0.000 A 
ATOM     19  N   UNL     1      50.824   6.185  16.498  0.00  0.00    +0.000 NA
ATOM     20  C   UNL     1      49.623   6.460  15.937  0.00  0.00    +0.000 A 
ATOM     21  C   UNL     1      48.504   5.666  16.167  0.00  0.00    +0.000 A 
BRANCH  16  23
ATOM     22  N   UNL     1      46.580   3.036  17.456  0.00  0.00    +0.000 NA
ATOM     23  C   UNL     1      47.500   3.715  17.250  0.00  0.00    +0.000 C 
ENDBRANCH  16  23
ENDBRANCH  15  20
ENDBRANCH  14  15
ENDBRANCH   1  14
TORSDOF 5
ENDMDL
MODEL 7
REMARK VINA RESULT:    -6.399      4.347      7.898
REMARK INTER + INTRA:          -9.127
REMARK INTER:                  -8.284
REMARK INTRA:                  -0.844
REMARK UNBOUND:                -0.858
REMARK  Name = 
REMARK  5 active torsions:
REMARK  status: ('A' for Active; 'I' for Inactive)
REMARK    1  A    between atoms: C_2  and  C_3
REMARK    2  A    between atoms: C_7  and  C_8
REMARK    3  A    between atoms: C_8  and  C_9
REMARK    4  A    between atoms: C_9  and  C_10
REMARK    5  A    between atoms: C_14  and  C_15
REMARK                            x       y       z     vdW  Elec       q    Type
REMARK                         _______ _______ _______ _____ _____    ______ ____
ROOT
ATOM      1  C   UNL     1      45.087   8.848  12.008  0.00  0.00    +0.000 A 
ATOM      2  C   UNL     1      46.142   8.757  12.912  0.00  0.00    +0.000 A 
ATOM      3  C   UNL     1      46.717   7.517  13.129  0.00  0.00    +0.000 A 
ATOM      4  N   UNL     1      46.316   6.382  12.516  0.00  0.00    +0.000 NA
ATOM      5  C   UNL     1      45.331   6.468  11.596  0.00  0.00    +0.000 A 
ATOM      6  C   UNL     1      44.692   7.686  11.339  0.00  0.00    +0.000 A 
ENDROOT
BRANCH   5   7
ATOM      7  C   UNL     1      44.975   5.234  10.855  0.00  0.00    +0.000 A 
ATOM      8  C   UNL     1      45.477   5.049   9.543  0.00  0.00    +0.000 A 
ATOM      9  C   UNL     1      45.270   3.871   8.822  0.00  0.00    +0.000 A 
ATOM     10  C   UNL     1      44.527   2.843   9.382  0.00  0.00    +0.000 A 
ATOM     11  C   UNL     1      43.985   3.001  10.654  0.00  0.00    +0.000 A 
ATOM     12  C   UNL     1      44.201   4.179  11.388  0.00  0.00    +0.000 A 
ATOM     13 CL   UNL     1      43.507   4.193  12.978  0.00  0.00    +0.000 Cl
ENDBRANCH   5   7
BRANCH   1  14
ATOM     14  C   UNL     1      44.429  10.172  11.706  0.00  0.00    +0.000 C 
BRANCH  14  15
ATOM     15  C   UNL     1      43.934  10.282  10.258  0.00  0.00    +0.000 C 
BRANCH  15  20
ATOM     16  C   UNL     1      40.185  10.643  10.633  0.00  0.00    +0.000 A 
ATOM     17  C   UNL     1      39.959  11.789   9.877  0.00  0.00    +0.000 A 
ATOM     18  C   UNL     1      41.048  12.389   9.276  0.00  0.00    +0.000 A 
ATOM     19  N   UNL     1      42.312  11.925   9.386  0.00  0.00    +0.000 NA
ATOM     20  C   UNL     1      42.523  10.812  10.127  0.00  0.00    +0.000 A 
ATOM     21  C   UNL     1      41.482  10.143  10.763  0.00  0.00    +0.000 A 
BRANCH  16  23
ATOM     22  N   UNL     1      38.209   9.439  11.801  0.00  0.00    +0.000 NA
ATOM     23  C   UNL     1      39.095   9.978  11.277  0.00  0.00    +0.000 C 
ENDBRANCH  16  23
ENDBRANCH  15  20
ENDBRANCH  14  15
ENDBRANCH   1  14
TORSDOF 5
ENDMDL
MODEL 8
REMARK VINA RESULT:    -6.238      2.783      5.171
REMARK INTER + INTRA:          -8.919
REMARK INTER:                  -8.119
REMARK INTRA:                  -0.800
REMARK UNBOUND:                -0.858
REMARK  Name = 
REMARK  5 active torsions:
REMARK  status: ('A' for Active; 'I' for Inactive)
REMARK    1  A    between atoms: C_2  and  C_3
REMARK    2  A    between atoms: C_7  and  C_8
REMARK    3  A    between atoms: C_8  and  C_9
REMARK    4  A    between atoms: C_9  and  C_10
REMARK    5  A    between atoms: C_14  and  C_15
REMARK                            x       y       z     vdW  Elec       q    Type
REMARK                         _______ _______ _______ _____ _____    ______ ____
ROOT
ATOM      1  C   UNL     1      47.089   6.947  12.845  0.00  0.00    +0.000 A 
ATOM      2  C   UNL     1      48.313   7.539  12.549  0.00  0.00    +0.000 A 
ATOM      3  C   UNL     1      49.369   7.342  13.422  0.00  0.00    +0.000 A 
ATOM      4  N   UNL     1      49.285   6.606  14.551  0.00  0.00    +0.000 NA
ATOM      5  C   UNL     1      48.118   5.980  14.820  0.00  0.00    +0.000 A 
ATOM      6  C   UNL     1      47.004   6.150  13.990  0.00  0.00    +0.000 A 
ENDROOT
BRANCH   5   7
ATOM      7  C   UNL     1      48.074   5.091  16.006  0.00  0.00    +0.000 A 
ATOM      8  C   UNL     1      47.746   3.724  15.830  0.00  0.00    +0.000 A 
ATOM      9  C   UNL     1      47.782   2.805  16.881  0.00  0.00    +0.000 A 
ATOM     10  C   UNL     1      48.124   3.230  18.155  0.00  0.00    +0.000 A 
ATOM     11  C   UNL     1      48.417   4.573  18.376  0.00  0.00    +0.000 A 
ATOM     12  C   UNL     1      48.393   5.498  17.320  0.00  0.00    +0.000 A 
ATOM     13 CL   UNL     1      48.838   7.119  17.752  0.00  0.00    +0.000 Cl
ENDBRANCH   5   7
BRANCH   1  14
ATOM     14  C   UNL     1      45.903   7.102  11.925  0.00  0.00    +0.000 C 
BRANCH  14  15
ATOM     15  C   UNL     1      44.740   6.165  12.279  0.00  0.00    +0.000 C 
BRANCH  15  20
ATOM     16  C   UNL     1      45.112   3.882   9.283  0.00  0.00    +0.000 A 
ATOM     17  C   UNL     1      44.353   2.790   9.696  0.00  0.00    +0.000 A 
ATOM     18  C   UNL     1      43.753   2.856  10.937  0.00  0.00    +0.000 A 
ATOM     19  N   UNL     1      43.864   3.916  11.766  0.00  0.00    +0.000 NA
ATOM     20  C   UNL     1      44.607   4.971  11.359  0.00  0.00    +0.000 A 
ATOM     21  C   UNL     1      45.243   4.989  10.122  0.00  0.00    +0.000 A 
BRANCH  16  23
ATOM     22  N   UNL     1      46.279   3.861   6.969  0.00  0.00    +0.000 NA
ATOM     23  C   UNL     1      45.756   3.871   8.007  0.00  0.00    +0.000 C 
ENDBRANCH  16  23
ENDBRANCH  15  20
ENDBRANCH  14  15
ENDBRANCH   1  14
TORSDOF 5
ENDMDL
MODEL 9
REMARK VINA RESULT:    -6.081      3.155      7.707
REMARK INTER + INTRA:          -8.716
REMARK INTER:                  -8.020
REMARK INTRA:                  -0.696
REMARK UNBOUND:                -0.858
REMARK  Name = 
REMARK  5 active torsions:
REMARK  status: ('A' for Active; 'I' for Inactive)
REMARK    1  A    between atoms: C_2  and  C_3
REMARK    2  A    between atoms: C_7  and  C_8
REMARK    3  A    between atoms: C_8  and  C_9
REMARK    4  A    between atoms: C_9  and  C_10
REMARK    5  A    between atoms: C_14  and  C_15
REMARK                            x       y       z     vdW  Elec       q    Type
REMARK                         _______ _______ _______ _____ _____    ______ ____
ROOT
ATOM      1  C   UNL     1      45.284   6.530  11.477  0.00  0.00    +0.000 A 
ATOM      2  C   UNL     1      43.921   6.440  11.744  0.00  0.00    +0.000 A 
ATOM      3  C   UNL     1      43.158   5.567  10.989  0.00  0.00    +0.000 A 
ATOM      4  N   UNL     1      43.656   4.791  10.002  0.00  0.00    +0.000 NA
ATOM      5  C   UNL     1      44.987   4.828   9.771  0.00  0.00    +0.000 A 
ATOM      6  C   UNL     1      45.816   5.702  10.485  0.00  0.00    +0.000 A 
ENDROOT
BRANCH   5   7
ATOM      7  C   UNL     1      45.534   3.894   8.758  0.00  0.00    +0.000 A 
ATOM      8  C   UNL     1      46.394   4.397   7.751  0.00  0.00    +0.000 A 
ATOM      9  C   UNL     1      47.027   3.566   6.824  0.00  0.00    +0.000 A 
ATOM     10  C   UNL     1      46.801   2.199   6.859  0.00  0.00    +0.000 A 
ATOM     11  C   UNL     1      45.934   1.670   7.811  0.00  0.00    +0.000 A 
ATOM     12  C   UNL     1      45.304   2.501   8.752  0.00  0.00    +0.000 A 
ATOM     13 CL   UNL     1      44.301   1.678   9.904  0.00  0.00    +0.000 Cl
ENDBRANCH   5   7
BRANCH   1  14
ATOM     14  C   UNL     1      46.178   7.445  12.278  0.00  0.00    +0.000 C 
BRANCH  14  15
ATOM     15  C   UNL     1      45.440   8.668  12.838  0.00  0.00    +0.000 C 
BRANCH  15  20
ATOM     16  C   UNL     1      44.158  11.189  10.323  0.00  0.00    +0.000 A 
ATOM     17  C   UNL     1      45.288  11.983  10.155  0.00  0.00    +0.000 A 
ATOM     18  C   UNL     1      46.420  11.653  10.874  0.00  0.00    +0.000 A 
ATOM     19  N   UNL     1      46.485  10.607  11.726  0.00  0.00    +0.000 NA
ATOM     20  C   UNL     1      45.380   9.842  11.886  0.00  0.00    +0.000 A 
ATOM     21  C   UNL     1      44.199  10.103  11.198  0.00  0.00    +0.000 A 
BRANCH  16  23
ATOM     22  N   UNL     1      41.982  11.721   9.019  0.00  0.00    +0.000 NA
ATOM     23  C   UNL     1      42.957  11.483   9.603  0.00  0.00    +0.000 C 
ENDBRANCH  16  23
ENDBRANCH  15  20
ENDBRANCH  14  15
ENDBRANCH   1  14
TORSDOF 5
ENDMDL
