MODEL 1
REMARK VINA RESULT:    -8.263      0.000      0.000
REMARK INTER + INTRA:         -12.904
REMARK INTER:                 -11.644
REMARK INTRA:                  -1.260
REMARK UNBOUND:                -1.260
REMARK  Name = 
REMARK  8 active torsions:
REMARK  status: ('A' for Active; 'I' for Inactive)
REMARK    1  A    between atoms: C_1  and  N_2
REMARK    2  A    between atoms: C_4  and  C_5
REMARK    3  A    between atoms: N_7  and  C_8
REMARK    4  A    between atoms: C_8  and  C_9
REMARK    5  A    between atoms: C_12  and  C_13
REMARK    6  A    between atoms: C_13  and  N_14
REMARK    7  A    between atoms: N_14  and  C_15
REMARK    8  A    between atoms: C_15  and  C_16
REMARK                            x       y       z     vdW  Elec       q    Type
REMARK                         _______ _______ _______ _____ _____    ______ ____
ROOT
ATOM      1  C   UNL     1      46.784   7.954  12.983  0.00  0.00    +0.000 C 
ENDROOT
BRANCH   1   2
ATOM      2  C   UNL     1      45.949   6.821  12.453  0.00  0.00    +0.000 A 
ATOM      3  C   UNL     1      46.015   6.460  11.100  0.00  0.00    +0.000 A 
ATOM      4  C   UNL     1      45.259   5.391  10.612  0.00  0.00    +0.000 A 
ATOM      5  C   UNL     1      44.416   4.662  11.463  0.00  0.00    +0.000 A 
ATOM      6  C   UNL     1      44.333   5.038  12.810  0.00  0.00    +0.000 A 
ATOM      7  C   UNL     1      45.088   6.110  13.298  0.00  0.00    +0.000 A 
BRANCH   5   8
ATOM      8  C   UNL     1      43.606   3.496  10.940  0.00  0.00    +0.000 C 
BRANCH   8   9
ATOM      9  N   UNL     1      43.886   3.253   9.527  0.00  0.00    +0.000 NA
ATOM     10  H   UNL     1      44.456   4.021   9.169  0.00  0.00    +0.000 HD
BRANCH   9  11
ATOM     11  C   UNL     1      44.643   2.008   9.348  0.00  0.00    +0.000 C 
BRANCH  11  12
ATOM     12  C   UNL     1      45.704   2.138   8.271  0.00  0.00    +0.000 A 
ATOM     13  C   UNL     1      45.812   3.316   7.532  0.00  0.00    +0.000 A 
ATOM     14  C   UNL     1      46.806   3.417   6.564  0.00  0.00    +0.000 A 
ATOM     15  C   UNL     1      47.660   2.342   6.352  0.00  0.00    +0.000 A 
ATOM     16  C   UNL     1      47.484   1.206   7.125  0.00  0.00    +0.000 A 
ATOM     17  N   UNL     1      46.531   1.079   8.075  0.00  0.00    +0.000 NA
ENDBRANCH  11  12
ENDBRANCH   9  11
ENDBRANCH   8   9
ENDBRANCH   5   8
ENDBRANCH   1   2
BRANCH   1  20
ATOM     18  C   UNL     1      48.571   6.958  14.317  0.00  0.00    +0.000 C 
ATOM     19  O   UNL     1      49.127   6.536  13.312  0.00  0.00    +0.000 OA
ATOM     20  N   UNL     1      47.375   7.640  14.262  0.00  0.00    +0.000 N 
ATOM     21  H   UNL     1      46.989   8.061  15.094  0.00  0.00    +0.000 HD
BRANCH  18  25
ATOM     22  C   UNL     1      51.136   7.791  18.513  0.00  0.00    +0.000 C 
ATOM     23  N   UNL     1      50.267   7.168  17.541  0.00  0.00    +0.000 N 
ATOM     24  C   UNL     1      50.026   7.624  16.274  0.00  0.00    +0.000 A 
ATOM     25  C   UNL     1      49.114   6.770  15.661  0.00  0.00    +0.000 A 
ATOM     26  C   UNL     1      48.810   5.738  16.622  0.00  0.00    +0.000 A 
ATOM     27  C   UNL     1      48.040   4.581  16.732  0.00  0.00    +0.000 A 
ATOM     28 CL   UNL     1      47.132   3.992  15.428  0.00  0.00    +0.000 Cl
ATOM     29  N   UNL     1      48.025   3.829  17.848  0.00  0.00    +0.000 NA
ATOM     30  C   UNL     1      48.785   4.243  18.869  0.00  0.00    +0.000 A 
ATOM     31  N   UNL     1      49.575   5.324  18.913  0.00  0.00    +0.000 NA
ATOM     32  C   UNL     1      49.549   6.028  17.767  0.00  0.00    +0.000 A 
ENDBRANCH  18  25
ENDBRANCH   1  20
TORSDOF 7
ENDMDL
MODEL 2
REMARK VINA RESULT:    -8.162      2.029      2.612
REMARK INTER + INTRA:         -12.762
REMARK INTER:                 -11.856
REMARK INTRA:                  -0.907
REMARK UNBOUND:                -1.260
REMARK  Name = 
REMARK  8 active torsions:
REMARK  status: ('A' for Active; 'I' for Inactive)
REMARK    1  A    between atoms: C_1  and  N_2
REMARK    2  A    between atoms: C_4  and  C_5
REMARK    3  A    between atoms: N_7  and  C_8
REMARK    4  A    between atoms: C_8  and  C_9
REMARK    5  A    between atoms: C_12  and  C_13
REMARK    6  A    between atoms: C_13  and  N_14
REMARK    7  A    between atoms: N_14  and  C_15
REMARK    8  A    between atoms: C_15  and  C_16
REMARK                            x       y       z     vdW  Elec       q    Type
REMARK                         _______ _______ _______ _____ _____    ______ ____
ROOT
ATOM      1  C   UNL     1      48.155   6.526  13.763  0.00  0.00    +0.000 C 
ENDROOT
BRANCH   1   2
ATOM      2  C   UNL     1      46.970   6.076  12.953  0.00  0.00    +0.000 A 
ATOM      3  C   UNL     1      46.753   6.587  11.666  0.00  0.00    +0.000 A 
ATOM      4  C   UNL     1      45.667   6.150  10.903  0.00  0.00    +0.000 A 
ATOM      5  C   UNL     1      44.772   5.196  11.410  0.00  0.00    +0.000 A 
ATOM      6  C   UNL     1      44.978   4.703  12.705  0.00  0.00    +0.000 A 
ATOM      7  C   UNL     1      46.063   5.143  13.470  0.00  0.00    +0.000 A 
BRANCH   5   8
ATOM      8  C   UNL     1      43.603   4.712  10.580  0.00  0.00    +0.000 C 
BRANCH   8   9
ATOM      9  N   UNL     1      44.051   4.211   9.283  0.00  0.00    +0.000 NA
ATOM     10  H   UNL     1      44.798   4.815   8.938  0.00  0.00    +0.000 HD
BRANCH   9  11
ATOM     11  C   UNL     1      44.590   2.850   9.402  0.00  0.00    +0.000 C 
BRANCH  11  12
ATOM     12  C   UNL     1      45.595   2.540   8.309  0.00  0.00    +0.000 A 
ATOM     13  C   UNL     1      45.926   3.510   7.364  0.00  0.00    +0.000 A 
ATOM     14  C   UNL     1      46.865   3.206   6.384  0.00  0.00    +0.000 A 
ATOM     15  C   UNL     1      47.445   1.945   6.367  0.00  0.00    +0.000 A 
ATOM     16  C   UNL     1      47.060   1.035   7.339  0.00  0.00    +0.000 A 
ATOM     17  N   UNL     1      46.154   1.302   8.305  0.00  0.00    +0.000 NA
ENDBRANCH  11  12
ENDBRANCH   9  11
ENDBRANCH   8   9
ENDBRANCH   5   8
ENDBRANCH   1   2
BRANCH   1  20
ATOM     18  C   UNL     1      49.037   6.365  16.035  0.00  0.00    +0.000 C 
ATOM     19  O   UNL     1      50.182   6.526  15.634  0.00  0.00    +0.000 OA
ATOM     20  N   UNL     1      47.961   6.307  15.176  0.00  0.00    +0.000 N 
ATOM     21  H   UNL     1      47.020   6.272  15.541  0.00  0.00    +0.000 HD
BRANCH  18  25
ATOM     22  C   UNL     1      48.532   4.302  20.548  0.00  0.00    +0.000 C 
ATOM     23  N   UNL     1      48.500   5.267  19.473  0.00  0.00    +0.000 N 
ATOM     24  C   UNL     1      48.846   5.027  18.171  0.00  0.00    +0.000 A 
ATOM     25  C   UNL     1      48.709   6.210  17.451  0.00  0.00    +0.000 A 
ATOM     26  C   UNL     1      48.240   7.206  18.384  0.00  0.00    +0.000 A 
ATOM     27  C   UNL     1      47.872   8.550  18.409  0.00  0.00    +0.000 A 
ATOM     28 CL   UNL     1      47.848   9.490  16.999  0.00  0.00    +0.000 Cl
ATOM     29  N   UNL     1      47.447   9.160  19.530  0.00  0.00    +0.000 NA
ATOM     30  C   UNL     1      47.397   8.418  20.644  0.00  0.00    +0.000 A 
ATOM     31  N   UNL     1      47.714   7.123  20.777  0.00  0.00    +0.000 NA
ATOM     32  C   UNL     1      48.125   6.572  19.620  0.00  0.00    +0.000 A 
ENDBRANCH  18  25
ENDBRANCH   1  20
TORSDOF 7
ENDMDL
MODEL 3
REMARK VINA RESULT:    -8.103      1.743      2.087
REMARK INTER + INTRA:         -12.679
REMARK INTER:                 -11.729
REMARK INTRA:                  -0.950
REMARK UNBOUND:                -1.260
REMARK  Name = 
REMARK  8 active torsions:
REMARK  status: ('A' for Active; 'I' for Inactive)
REMARK    1  A    between atoms: C_1  and  N_2
REMARK    2  A    between atoms: C_4  and  C_5
REMARK    3  A    between atoms: N_7  and  C_8
REMARK    4  A    between atoms: C_8  and  C_9
REMARK    5  A    between atoms: C_12  and  C_13
REMARK    6  A    between atoms: C_13  and  N_14
REMARK    7  A    between atoms: N_14  and  C_15
REMARK    8  A    between atoms: C_15  and  C_16
REMARK                            x       y       z     vdW  Elec       q    Type
REMARK                         _______ _______ _______ _____ _____    ______ ____
ROOT
ATOM      1  C   UNL     1      48.339   6.528  13.657  0.00  0.00    +0.000 C 
ENDROOT
BRANCH   1   2
ATOM      2  C   UNL     1      47.133   6.055  12.894  0.00  0.00    +0.000 A 
ATOM      3  C   UNL     1      46.252   5.125  13.460  0.00  0.00    +0.000 A 
ATOM      4  C   UNL     1      45.117   4.704  12.761  0.00  0.00    +0.000 A 
ATOM      5  C   UNL     1      44.840   5.201  11.479  0.00  0.00    +0.000 A 
ATOM      6  C   UNL     1      45.734   6.114  10.906  0.00  0.00    +0.000 A 
ATOM      7  C   UNL     1      46.871   6.533  11.604  0.00  0.00    +0.000 A 
BRANCH   5   8
ATOM      8  C   UNL     1      43.606   4.757  10.726  0.00  0.00    +0.000 C 
BRANCH   8   9
ATOM      9  N   UNL     1      43.951   4.258   9.398  0.00  0.00    +0.000 NA
ATOM     10  H   UNL     1      44.730   4.808   9.032  0.00  0.00    +0.000 HD
BRANCH   9  11
ATOM     11  C   UNL     1      44.380   2.854   9.458  0.00  0.00    +0.000 C 
BRANCH  11  12
ATOM     12  C   UNL     1      45.473   2.551   8.451  0.00  0.00    +0.000 A 
ATOM     13  C   UNL     1      45.934   3.549   7.594  0.00  0.00    +0.000 A 
ATOM     14  C   UNL     1      46.951   3.249   6.693  0.00  0.00    +0.000 A 
ATOM     15  C   UNL     1      47.477   1.964   6.665  0.00  0.00    +0.000 A 
ATOM     16  C   UNL     1      46.961   1.028   7.547  0.00  0.00    +0.000 A 
ATOM     17  N   UNL     1      45.978   1.290   8.435  0.00  0.00    +0.000 NA
ENDBRANCH  11  12
ENDBRANCH   9  11
ENDBRANCH   8   9
ENDBRANCH   5   8
ENDBRANCH   1   2
BRANCH   1  20
ATOM     18  C   UNL     1      49.085   6.740  15.974  0.00  0.00    +0.000 C 
ATOM     19  O   UNL     1      50.247   6.527  15.651  0.00  0.00    +0.000 OA
ATOM     20  N   UNL     1      48.054   6.719  15.059  0.00  0.00    +0.000 N 
ATOM     21  H   UNL     1      47.123   6.994  15.335  0.00  0.00    +0.000 HD
BRANCH  18  25
ATOM     22  C   UNL     1      47.355   9.184  19.963  0.00  0.00    +0.000 C 
ATOM     23  N   UNL     1      47.896   8.135  19.128  0.00  0.00    +0.000 N 
ATOM     24  C   UNL     1      48.229   8.255  17.807  0.00  0.00    +0.000 A 
ATOM     25  C   UNL     1      48.685   7.022  17.351  0.00  0.00    +0.000 A 
ATOM     26  C   UNL     1      48.631   6.123  18.478  0.00  0.00    +0.000 A 
ATOM     27  C   UNL     1      48.926   4.799  18.797  0.00  0.00    +0.000 A 
ATOM     28 CL   UNL     1      49.621   3.747  17.665  0.00  0.00    +0.000 Cl
ATOM     29  N   UNL     1      48.746   4.298  20.033  0.00  0.00    +0.000 NA
ATOM     30  C   UNL     1      48.256   5.131  20.960  0.00  0.00    +0.000 A 
ATOM     31  N   UNL     1      47.929   6.420  20.808  0.00  0.00    +0.000 NA
ATOM     32  C   UNL     1      48.138   6.860  19.553  0.00  0.00    +0.000 A 
ENDBRANCH  18  25
ENDBRANCH   1  20
TORSDOF 7
ENDMDL
MODEL 4
REMARK VINA RESULT:    -7.390      1.782      2.386
REMARK INTER + INTRA:         -11.674
REMARK INTER:                 -10.684
REMARK INTRA:                  -0.990
REMARK UNBOUND:                -1.260
REMARK  Name = 
REMARK  8 active torsions:
REMARK  status: ('A' for Active; 'I' for Inactive)
REMARK    1  A    between atoms: C_1  and  N_2
REMARK    2  A    between atoms: C_4  and  C_5
REMARK    3  A    between atoms: N_7  and  C_8
REMARK    4  A    between atoms: C_8  and  C_9
REMARK    5  A    between atoms: C_12  and  C_13
REMARK    6  A    between atoms: C_13  and  N_14
REMARK    7  A    between atoms: N_14  and  C_15
REMARK    8  A    between atoms: C_15  and  C_16
REMARK                            x       y       z     vdW  Elec       q    Type
REMARK                         _______ _______ _______ _____ _____    ______ ____
ROOT
ATOM      1  C   UNL     1      48.243   7.003  13.321  0.00  0.00    +0.000 C 
ENDROOT
BRANCH   1   2
ATOM      2  C   UNL     1      47.073   6.250  12.748  0.00  0.00    +0.000 A 
ATOM      3  C   UNL     1      46.614   6.527  11.453  0.00  0.00    +0.000 A 
ATOM      4  C   UNL     1      45.544   5.811  10.911  0.00  0.00    +0.000 A 
ATOM      5  C   UNL     1      44.906   4.805  11.652  0.00  0.00    +0.000 A 
ATOM      6  C   UNL     1      45.352   4.546  12.954  0.00  0.00    +0.000 A 
ATOM      7  C   UNL     1      46.421   5.264  13.498  0.00  0.00    +0.000 A 
BRANCH   5   8
ATOM      8  C   UNL     1      43.756   4.020  11.062  0.00  0.00    +0.000 C 
BRANCH   8   9
ATOM      9  N   UNL     1      43.967   3.765   9.639  0.00  0.00    +0.000 NA
ATOM     10  H   UNL     1      44.690   4.400   9.296  0.00  0.00    +0.000 HD
BRANCH   9  11
ATOM     11  C   UNL     1      44.430   2.390   9.414  0.00  0.00    +0.000 C 
BRANCH  11  12
ATOM     12  C   UNL     1      45.522   2.323   8.363  0.00  0.00    +0.000 A 
ATOM     13  C   UNL     1      45.775   3.422   7.544  0.00  0.00    +0.000 A 
ATOM     14  C   UNL     1      46.795   3.342   6.601  0.00  0.00    +0.000 A 
ATOM     15  C   UNL     1      47.531   2.169   6.496  0.00  0.00    +0.000 A 
ATOM     16  C   UNL     1      47.214   1.120   7.344  0.00  0.00    +0.000 A 
ATOM     17  N   UNL     1      46.233   1.170   8.271  0.00  0.00    +0.000 NA
ENDBRANCH  11  12
ENDBRANCH   9  11
ENDBRANCH   8   9
ENDBRANCH   5   8
ENDBRANCH   1   2
BRANCH   1  20
ATOM     18  C   UNL     1      48.802   7.099  15.697  0.00  0.00    +0.000 C 
ATOM     19  O   UNL     1      48.493   8.282  15.752  0.00  0.00    +0.000 OA
ATOM     20  N   UNL     1      48.753   6.383  14.520  0.00  0.00    +0.000 N 
ATOM     21  H   UNL     1      48.919   5.387  14.523  0.00  0.00    +0.000 HD
BRANCH  18  25
ATOM     22  C   UNL     1      48.694   4.354  19.860  0.00  0.00    +0.000 C 
ATOM     23  N   UNL     1      49.187   5.103  18.727  0.00  0.00    +0.000 N 
ATOM     24  C   UNL     1      48.419   5.776  17.817  0.00  0.00    +0.000 A 
ATOM     25  C   UNL     1      49.258   6.345  16.862  0.00  0.00    +0.000 A 
ATOM     26  C   UNL     1      50.605   5.996  17.243  0.00  0.00    +0.000 A 
ATOM     27  C   UNL     1      51.917   6.203  16.819  0.00  0.00    +0.000 A 
ATOM     28 CL   UNL     1      52.273   7.181  15.482  0.00  0.00    +0.000 Cl
ATOM     29  N   UNL     1      52.976   5.702  17.481  0.00  0.00    +0.000 NA
ATOM     30  C   UNL     1      52.719   4.978  18.577  0.00  0.00    +0.000 A 
ATOM     31  N   UNL     1      51.522   4.696  19.108  0.00  0.00    +0.000 NA
ATOM     32  C   UNL     1      50.508   5.230  18.402  0.00  0.00    +0.000 A 
ENDBRANCH  18  25
ENDBRANCH   1  20
TORSDOF 7
ENDMDL
MODEL 5
REMARK VINA RESULT:    -7.298      2.782      4.232
REMARK INTER + INTRA:         -11.544
REMARK INTER:                 -10.523
REMARK INTRA:                  -1.021
REMARK UNBOUND:                -1.260
REMARK  Name = 
REMARK  8 active torsions:
REMARK  status: ('A' for Active; 'I' for Inactive)
REMARK    1  A    between atoms: C_1  and  N_2
REMARK    2  A    between atoms: C_4  and  C_5
REMARK    3  A    between atoms: N_7  and  C_8
REMARK    4  A    between atoms: C_8  and  C_9
REMARK    5  A    between atoms: C_12  and  C_13
REMARK    6  A    between atoms: C_13  and  N_14
REMARK    7  A    between atoms: N_14  and  C_15
REMARK    8  A    between atoms: C_15  and  C_16
REMARK                            x       y       z     vdW  Elec       q    Type
REMARK                         _______ _______ _______ _____ _____    ______ ____
ROOT
ATOM      1  C   UNL     1      47.712   5.761  14.311  0.00  0.00    +0.000 C 
ENDROOT
BRANCH   1   2
ATOM      2  C   UNL     1      46.651   5.488  13.280  0.00  0.00    +0.000 A 
ATOM      3  C   UNL     1      45.728   4.450  13.466  0.00  0.00    +0.000 A 
ATOM      4  C   UNL     1      44.727   4.212  12.521  0.00  0.00    +0.000 A 
ATOM      5  C   UNL     1      44.627   5.004  11.368  0.00  0.00    +0.000 A 
ATOM      6  C   UNL     1      45.564   6.026  11.173  0.00  0.00    +0.000 A 
ATOM      7  C   UNL     1      46.569   6.263  12.117  0.00  0.00    +0.000 A 
BRANCH   5   8
ATOM      8  C   UNL     1      43.536   4.757  10.350  0.00  0.00    +0.000 C 
BRANCH   8   9
ATOM      9  N   UNL     1      44.092   4.265   9.091  0.00  0.00    +0.000 NA
ATOM     10  H   UNL     1      44.919   4.817   8.860  0.00  0.00    +0.000 HD
BRANCH   9  11
ATOM     11  C   UNL     1      44.506   2.861   9.212  0.00  0.00    +0.000 C 
BRANCH  11  12
ATOM     12  C   UNL     1      45.601   2.505   8.225  0.00  0.00    +0.000 A 
ATOM     13  C   UNL     1      46.032   3.442   7.287  0.00  0.00    +0.000 A 
ATOM     14  C   UNL     1      47.051   3.097   6.405  0.00  0.00    +0.000 A 
ATOM     15  C   UNL     1      47.611   1.828   6.478  0.00  0.00    +0.000 A 
ATOM     16  C   UNL     1      47.124   0.953   7.436  0.00  0.00    +0.000 A 
ATOM     17  N   UNL     1      46.139   1.260   8.308  0.00  0.00    +0.000 NA
ENDBRANCH  11  12
ENDBRANCH   9  11
ENDBRANCH   8   9
ENDBRANCH   5   8
ENDBRANCH   1   2
BRANCH   1  20
ATOM     18  C   UNL     1      49.117   7.695  14.810  0.00  0.00    +0.000 C 
ATOM     19  O   UNL     1      50.115   6.989  14.881  0.00  0.00    +0.000 OA
ATOM     20  N   UNL     1      47.865   7.172  14.573  0.00  0.00    +0.000 N 
ATOM     21  H   UNL     1      47.077   7.785  14.422  0.00  0.00    +0.000 HD
BRANCH  18  25
ATOM     22  C   UNL     1      49.453  12.167  16.993  0.00  0.00    +0.000 C 
ATOM     23  N   UNL     1      49.323  11.145  15.979  0.00  0.00    +0.000 N 
ATOM     24  C   UNL     1      49.249   9.798  16.206  0.00  0.00    +0.000 A 
ATOM     25  C   UNL     1      49.161   9.146  14.980  0.00  0.00    +0.000 A 
ATOM     26  C   UNL     1      49.170  10.175  13.968  0.00  0.00    +0.000 A 
ATOM     27  C   UNL     1      49.096  10.303  12.582  0.00  0.00    +0.000 A 
ATOM     28 CL   UNL     1      48.880   8.957  11.576  0.00  0.00    +0.000 Cl
ATOM     29  N   UNL     1      49.121  11.499  11.967  0.00  0.00    +0.000 NA
ATOM     30  C   UNL     1      49.228  12.581  12.748  0.00  0.00    +0.000 A 
ATOM     31  N   UNL     1      49.305  12.619  14.085  0.00  0.00    +0.000 NA
ATOM     32  C   UNL     1      49.269  11.392  14.637  0.00  0.00    +0.000 A 
ENDBRANCH  18  25
ENDBRANCH   1  20
TORSDOF 7
ENDMDL
MODEL 6
REMARK VINA RESULT:    -7.166      3.737      5.458
REMARK INTER + INTRA:         -11.358
REMARK INTER:                 -10.218
REMARK INTRA:                  -1.140
REMARK UNBOUND:                -1.260
REMARK  Name = 
REMARK  8 active torsions:
REMARK  status: ('A' for Active; 'I' for Inactive)
REMARK    1  A    between atoms: C_1  and  N_2
REMARK    2  A    between atoms: C_4  and  C_5
REMARK    3  A    between atoms: N_7  and  C_8
REMARK    4  A    between atoms: C_8  and  C_9
REMARK    5  A    between atoms: C_12  and  C_13
REMARK    6  A    between atoms: C_13  and  N_14
REMARK    7  A    between atoms: N_14  and  C_15
REMARK    8  A    between atoms: C_15  and  C_16
REMARK                            x       y       z     vdW  Elec       q    Type
REMARK                         _______ _______ _______ _____ _____    ______ ____
ROOT
ATOM      1  C   UNL     1      48.420   6.485  13.523  0.00  0.00    +0.000 C 
ENDROOT
BRANCH   1   2
ATOM      2  C   UNL     1      47.195   6.000  12.798  0.00  0.00    +0.000 A 
ATOM      3  C   UNL     1      46.354   5.043  13.382  0.00  0.00    +0.000 A 
ATOM      4  C   UNL     1      45.202   4.611  12.719  0.00  0.00    +0.000 A 
ATOM      5  C   UNL     1      44.866   5.123  11.457  0.00  0.00    +0.000 A 
ATOM      6  C   UNL     1      45.720   6.063  10.865  0.00  0.00    +0.000 A 
ATOM      7  C   UNL     1      46.874   6.493  11.527  0.00  0.00    +0.000 A 
BRANCH   5   8
ATOM      8  C   UNL     1      43.612   4.667  10.744  0.00  0.00    +0.000 C 
BRANCH   8   9
ATOM      9  N   UNL     1      43.919   4.178   9.402  0.00  0.00    +0.000 NA
ATOM     10  H   UNL     1      44.676   4.742   9.012  0.00  0.00    +0.000 HD
BRANCH   9  11
ATOM     11  C   UNL     1      44.371   2.781   9.442  0.00  0.00    +0.000 C 
BRANCH  11  12
ATOM     12  C   UNL     1      45.480   2.514   8.443  0.00  0.00    +0.000 A 
ATOM     13  C   UNL     1      45.940   3.538   7.616  0.00  0.00    +0.000 A 
ATOM     14  C   UNL     1      46.971   3.272   6.721  0.00  0.00    +0.000 A 
ATOM     15  C   UNL     1      47.514   1.994   6.669  0.00  0.00    +0.000 A 
ATOM     16  C   UNL     1      46.998   1.032   7.522  0.00  0.00    +0.000 A 
ATOM     17  N   UNL     1      46.000   1.260   8.403  0.00  0.00    +0.000 NA
ENDBRANCH  11  12
ENDBRANCH   9  11
ENDBRANCH   8   9
ENDBRANCH   5   8
ENDBRANCH   1   2
BRANCH   1  20
ATOM     18  C   UNL     1      49.598   8.604  13.226  0.00  0.00    +0.000 C 
ATOM     19  O   UNL     1      49.235   8.994  14.328  0.00  0.00    +0.000 OA
ATOM     20  N   UNL     1      49.209   7.384  12.716  0.00  0.00    +0.000 N 
ATOM     21  H   UNL     1      49.601   7.046  11.849  0.00  0.00    +0.000 HD
BRANCH  18  25
ATOM     22  C   UNL     1      53.705  10.339  10.990  0.00  0.00    +0.000 C 
ATOM     23  N   UNL     1      52.318  10.152  11.351  0.00  0.00    +0.000 N 
ATOM     24  C   UNL     1      51.851   9.314  12.326  0.00  0.00    +0.000 A 
ATOM     25  C   UNL     1      50.461   9.394  12.351  0.00  0.00    +0.000 A 
ATOM     26  C   UNL     1      50.088  10.349  11.336  0.00  0.00    +0.000 A 
ATOM     27  C   UNL     1      48.945  10.944  10.805  0.00  0.00    +0.000 A 
ATOM     28 CL   UNL     1      47.404  10.621  11.431  0.00  0.00    +0.000 Cl
ATOM     29  N   UNL     1      49.000  11.856   9.817  0.00  0.00    +0.000 NA
ATOM     30  C   UNL     1      50.214  12.172   9.350  0.00  0.00    +0.000 A 
ATOM     31  N   UNL     1      51.396  11.692   9.757  0.00  0.00    +0.000 NA
ATOM     32  C   UNL     1      51.272  10.790  10.748  0.00  0.00    +0.000 A 
ENDBRANCH  18  25
ENDBRANCH   1  20
TORSDOF 7
ENDMDL
MODEL 7
REMARK VINA RESULT:    -7.154      2.380      3.012
REMARK INTER + INTRA:         -11.341
REMARK INTER:                 -10.571
REMARK INTRA:                  -0.770
REMARK UNBOUND:                -1.260
REMARK  Name = 
REMARK  8 active torsions:
REMARK  status: ('A' for Active; 'I' for Inactive)
REMARK    1  A    between atoms: C_1  and  N_2
REMARK    2  A    between atoms: C_4  and  C_5
REMARK    3  A    between atoms: N_7  and  C_8
REMARK    4  A    between atoms: C_8  and  C_9
REMARK    5  A    between atoms: C_12  and  C_13
REMARK    6  A    between atoms: C_13  and  N_14
REMARK    7  A    between atoms: N_14  and  C_15
REMARK    8  A    between atoms: C_15  and  C_16
REMARK                            x       y       z     vdW  Elec       q    Type
REMARK                         _______ _______ _______ _____ _____    ______ ____
ROOT
ATOM      1  C   UNL     1      47.353   4.090  15.265  0.00  0.00    +0.000 C 
ENDROOT
BRANCH   1   2
ATOM      2  C   UNL     1      46.745   4.545  13.967  0.00  0.00    +0.000 A 
ATOM      3  C   UNL     1      45.719   3.804  13.363  0.00  0.00    +0.000 A 
ATOM      4  C   UNL     1      45.136   4.239  12.170  0.00  0.00    +0.000 A 
ATOM      5  C   UNL     1      45.567   5.422  11.552  0.00  0.00    +0.000 A 
ATOM      6  C   UNL     1      46.608   6.149  12.144  0.00  0.00    +0.000 A 
ATOM      7  C   UNL     1      47.193   5.712  13.337  0.00  0.00    +0.000 A 
BRANCH   5   8
ATOM      8  C   UNL     1      44.929   5.902  10.267  0.00  0.00    +0.000 C 
BRANCH   8   9
ATOM      9  N   UNL     1      45.605   5.338   9.101  0.00  0.00    +0.000 NA
ATOM     10  H   UNL     1      46.552   5.066   9.370  0.00  0.00    +0.000 HD
BRANCH   9  11
ATOM     11  C   UNL     1      44.910   4.137   8.620  0.00  0.00    +0.000 C 
BRANCH  11  12
ATOM     12  C   UNL     1      45.826   3.234   7.816  0.00  0.00    +0.000 A 
ATOM     13  C   UNL     1      46.097   1.939   8.255  0.00  0.00    +0.000 A 
ATOM     14  C   UNL     1      46.925   1.126   7.489  0.00  0.00    +0.000 A 
ATOM     15  C   UNL     1      47.466   1.624   6.311  0.00  0.00    +0.000 A 
ATOM     16  C   UNL     1      47.151   2.923   5.946  0.00  0.00    +0.000 A 
ATOM     17  N   UNL     1      46.348   3.735   6.666  0.00  0.00    +0.000 NA
ENDBRANCH  11  12
ENDBRANCH   9  11
ENDBRANCH   8   9
ENDBRANCH   5   8
ENDBRANCH   1   2
BRANCH   1  20
ATOM     18  C   UNL     1      48.565   5.506  16.844  0.00  0.00    +0.000 C 
ATOM     19  O   UNL     1      49.612   4.914  16.617  0.00  0.00    +0.000 OA
ATOM     20  N   UNL     1      47.374   5.142  16.252  0.00  0.00    +0.000 N 
ATOM     21  H   UNL     1      46.547   5.707  16.383  0.00  0.00    +0.000 HD
BRANCH  18  25
ATOM     22  C   UNL     1      48.180  10.186  18.524  0.00  0.00    +0.000 C 
ATOM     23  N   UNL     1      48.295   8.746  18.500  0.00  0.00    +0.000 N 
ATOM     24  C   UNL     1      48.428   7.973  17.379  0.00  0.00    +0.000 A 
ATOM     25  C   UNL     1      48.478   6.636  17.766  0.00  0.00    +0.000 A 
ATOM     26  C   UNL     1      48.382   6.623  19.205  0.00  0.00    +0.000 A 
ATOM     27  C   UNL     1      48.381   5.715  20.263  0.00  0.00    +0.000 A 
ATOM     28 CL   UNL     1      48.594   4.054  20.006  0.00  0.00    +0.000 Cl
ATOM     29  N   UNL     1      48.282   6.104  21.547  0.00  0.00    +0.000 NA
ATOM     30  C   UNL     1      48.176   7.419  21.776  0.00  0.00    +0.000 A 
ATOM     31  N   UNL     1      48.165   8.407  20.872  0.00  0.00    +0.000 NA
ATOM     32  C   UNL     1      48.273   7.952  19.611  0.00  0.00    +0.000 A 
ENDBRANCH  18  25
ENDBRANCH   1  20
TORSDOF 7
ENDMDL
MODEL 8
REMARK VINA RESULT:    -7.144      2.276      2.777
REMARK INTER + INTRA:         -11.327
REMARK INTER:                 -10.574
REMARK INTRA:                  -0.753
REMARK UNBOUND:                -1.260
REMARK  Name = 
REMARK  8 active torsions:
REMARK  status: ('A' for Active; 'I' for Inactive)
REMARK    1  A    between atoms: C_1  and  N_2
REMARK    2  A    between atoms: C_4  and  C_5
REMARK    3  A    between atoms: N_7  and  C_8
REMARK    4  A    between atoms: C_8  and  C_9
REMARK    5  A    between atoms: C_12  and  C_13
REMARK    6  A    between atoms: C_13  and  N_14
REMARK    7  A    between atoms: N_14  and  C_15
REMARK    8  A    between atoms: C_15  and  C_16
REMARK                            x       y       z     vdW  Elec       q    Type
REMARK                         _______ _______ _______ _____ _____    ______ ____
ROOT
ATOM      1  C   UNL     1      47.718   4.948  14.422  0.00  0.00    +0.000 C 
ENDROOT
BRANCH   1   2
ATOM      2  C   UNL     1      46.629   4.947  13.385  0.00  0.00    +0.000 A 
ATOM      3  C   UNL     1      46.656   5.862  12.324  0.00  0.00    +0.000 A 
ATOM      4  C   UNL     1      45.657   5.844  11.346  0.00  0.00    +0.000 A 
ATOM      5  C   UNL     1      44.609   4.915  11.409  0.00  0.00    +0.000 A 
ATOM      6  C   UNL     1      44.572   4.017  12.483  0.00  0.00    +0.000 A 
ATOM      7  C   UNL     1      45.569   4.036  13.463  0.00  0.00    +0.000 A 
BRANCH   5   8
ATOM      8  C   UNL     1      43.534   4.886  10.344  0.00  0.00    +0.000 C 
BRANCH   8   9
ATOM      9  N   UNL     1      44.045   4.322   9.097  0.00  0.00    +0.000 NA
ATOM     10  H   UNL     1      44.897   4.821   8.836  0.00  0.00    +0.000 HD
BRANCH   9  11
ATOM     11  C   UNL     1      44.385   2.903   9.262  0.00  0.00    +0.000 C 
BRANCH  11  12
ATOM     12  C   UNL     1      45.549   2.492   8.380  0.00  0.00    +0.000 A 
ATOM     13  C   UNL     1      46.210   3.442   7.604  0.00  0.00    +0.000 A 
ATOM     14  C   UNL     1      47.287   3.042   6.819  0.00  0.00    +0.000 A 
ATOM     15  C   UNL     1      47.673   1.708   6.824  0.00  0.00    +0.000 A 
ATOM     16  C   UNL     1      46.961   0.825   7.620  0.00  0.00    +0.000 A 
ATOM     17  N   UNL     1      45.915   1.184   8.395  0.00  0.00    +0.000 NA
ENDBRANCH  11  12
ENDBRANCH   9  11
ENDBRANCH   8   9
ENDBRANCH   5   8
ENDBRANCH   1   2
BRANCH   1  20
ATOM     18  C   UNL     1      48.794   6.408  16.058  0.00  0.00    +0.000 C 
ATOM     19  O   UNL     1      49.495   5.489  16.462  0.00  0.00    +0.000 OA
ATOM     20  N   UNL     1      47.847   6.229  15.073  0.00  0.00    +0.000 N 
ATOM     21  H   UNL     1      47.353   7.023  14.691  0.00  0.00    +0.000 HD
BRANCH  18  25
ATOM     22  C   UNL     1      49.851  11.273  16.365  0.00  0.00    +0.000 C 
ATOM     23  N   UNL     1      49.364   9.954  16.701  0.00  0.00    +0.000 N 
ATOM     24  C   UNL     1      49.520   8.827  15.942  0.00  0.00    +0.000 A 
ATOM     25  C   UNL     1      48.889   7.767  16.587  0.00  0.00    +0.000 A 
ATOM     26  C   UNL     1      48.337   8.302  17.808  0.00  0.00    +0.000 A 
ATOM     27  C   UNL     1      47.622   7.878  18.927  0.00  0.00    +0.000 A 
ATOM     28 CL   UNL     1      47.203   6.251  19.149  0.00  0.00    +0.000 Cl
ATOM     29  N   UNL     1      47.285   8.714  19.926  0.00  0.00    +0.000 NA
ATOM     30  C   UNL     1      47.662   9.992  19.801  0.00  0.00    +0.000 A 
ATOM     31  N   UNL     1      48.350  10.546  18.794  0.00  0.00    +0.000 NA
ATOM     32  C   UNL     1      48.660   9.657  17.833  0.00  0.00    +0.000 A 
ENDBRANCH  18  25
ENDBRANCH   1  20
TORSDOF 7
ENDMDL
MODEL 9
REMARK VINA RESULT:    -6.633      4.389      9.306
REMARK INTER + INTRA:         -10.608
REMARK INTER:                  -9.737
REMARK INTRA:                  -0.871
REMARK UNBOUND:                -1.260
REMARK  Name = 
REMARK  8 active torsions:
REMARK  status: ('A' for Active; 'I' for Inactive)
REMARK    1  A    between atoms: C_1  and  N_2
REMARK    2  A    between atoms: C_4  and  C_5
REMARK    3  A    between atoms: N_7  and  C_8
REMARK    4  A    between atoms: C_8  and  C_9
REMARK    5  A    between atoms: C_12  and  C_13
REMARK    6  A    between atoms: C_13  and  N_14
REMARK    7  A    between atoms: N_14  and  C_15
REMARK    8  A    between atoms: C_15  and  C_16
REMARK                            x       y       z     vdW  Elec       q    Type
REMARK                         _______ _______ _______ _____ _____    ______ ____
ROOT
ATOM      1  C   UNL     1      47.308   3.296  16.628  0.00  0.00    +0.000 C 
ENDROOT
BRANCH   1   2
ATOM      2  C   UNL     1      48.757   3.325  17.029  0.00  0.00    +0.000 A 
ATOM      3  C   UNL     1      49.528   2.154  16.998  0.00  0.00    +0.000 A 
ATOM      4  C   UNL     1      50.881   2.186  17.346  0.00  0.00    +0.000 A 
ATOM      5  C   UNL     1      51.493   3.386  17.737  0.00  0.00    +0.000 A 
ATOM      6  C   UNL     1      50.715   4.550  17.789  0.00  0.00    +0.000 A 
ATOM      7  C   UNL     1      49.360   4.518  17.444  0.00  0.00    +0.000 A 
BRANCH   5   8
ATOM      8  C   UNL     1      52.960   3.425  18.102  0.00  0.00    +0.000 C 
BRANCH   8   9
ATOM      9  N   UNL     1      53.251   2.519  19.210  0.00  0.00    +0.000 NA
ATOM     10  H   UNL     1      52.619   1.718  19.154  0.00  0.00    +0.000 HD
BRANCH   9  11
ATOM     11  C   UNL     1      54.628   2.013  19.128  0.00  0.00    +0.000 C 
BRANCH  11  12
ATOM     12  C   UNL     1      54.694   0.651  18.462  0.00  0.00    +0.000 A 
ATOM     13  C   UNL     1      54.996   0.548  17.105  0.00  0.00    +0.000 A 
ATOM     14  C   UNL     1      55.069  -0.714  16.524  0.00  0.00    +0.000 A 
ATOM     15  C   UNL     1      54.835  -1.837  17.306  0.00  0.00    +0.000 A 
ATOM     16  C   UNL     1      54.537  -1.649  18.646  0.00  0.00    +0.000 A 
ATOM     17  N   UNL     1      54.462  -0.438  19.240  0.00  0.00    +0.000 NA
ENDBRANCH  11  12
ENDBRANCH   9  11
ENDBRANCH   8   9
ENDBRANCH   5   8
ENDBRANCH   1   2
BRANCH   1  20
ATOM     18  C   UNL     1      46.900   4.218  14.403  0.00  0.00    +0.000 C 
ATOM     19  O   UNL     1      47.206   3.156  13.875  0.00  0.00    +0.000 OA
ATOM     20  N   UNL     1      46.960   4.401  15.768  0.00  0.00    +0.000 N 
ATOM     21  H   UNL     1      46.610   5.252  16.183  0.00  0.00    +0.000 HD
BRANCH  18  25
ATOM     22  C   UNL     1      46.895   8.749  12.319  0.00  0.00    +0.000 C 
ATOM     23  N   UNL     1      46.481   7.419  12.704  0.00  0.00    +0.000 N 
ATOM     24  C   UNL     1      47.164   6.579  13.540  0.00  0.00    +0.000 A 
ATOM     25  C   UNL     1      46.459   5.383  13.640  0.00  0.00    +0.000 A 
ATOM     26  C   UNL     1      45.279   5.534  12.823  0.00  0.00    +0.000 A 
ATOM     27  C   UNL     1      44.142   4.816  12.454  0.00  0.00    +0.000 A 
ATOM     28 CL   UNL     1      43.822   3.276  13.084  0.00  0.00    +0.000 Cl
ATOM     29  N   UNL     1      43.202   5.326  11.638  0.00  0.00    +0.000 NA
ATOM     30  C   UNL     1      43.405   6.567  11.178  0.00  0.00    +0.000 A 
ATOM     31  N   UNL     1      44.439   7.377  11.443  0.00  0.00    +0.000 NA
ATOM     32  C   UNL     1      45.338   6.810  12.268  0.00  0.00    +0.000 A 
ENDBRANCH  18  25
ENDBRANCH   1  20
TORSDOF 7
ENDMDL
