MODEL 1
REMARK VINA RESULT:    -8.823      0.000      0.000
REMARK INTER + INTRA:         -11.540
REMARK INTER:                 -11.402
REMARK INTRA:                  -0.138
REMARK UNBOUND:                -0.138
REMARK  Name = 
REMARK  5 active torsions:
REMARK  status: ('A' for Active; 'I' for Inactive)
REMARK    1  A    between atoms: C_2  and  C_4
REMARK    2  A    between atoms: C_7  and  O_8
REMARK    3  A    between atoms: O_8  and  C_9
REMARK    4  A    between atoms: C_9  and  C_10
REMARK    5  A    between atoms: C_15  and  C_16
REMARK                            x       y       z     vdW  Elec       q    Type
REMARK                         _______ _______ _______ _____ _____    ______ ____
ROOT
ATOM      1  C   UNL     1      44.872   4.560  11.909  0.00  0.00    +0.000 A 
ATOM      2  C   UNL     1      45.522   3.693  12.791  0.00  0.00    +0.000 A 
ATOM      3  C   UNL     1      46.676   4.113  13.445  0.00  0.00    +0.000 A 
ATOM      4  F   UNL     1      47.295   3.275  14.287  0.00  0.00    +0.000 F 
ATOM      5  C   UNL     1      47.202   5.387  13.241  0.00  0.00    +0.000 A 
ATOM      6  C   UNL     1      46.576   6.279  12.357  0.00  0.00    +0.000 A 
ATOM      7  C   UNL     1      45.407   5.845  11.709  0.00  0.00    +0.000 A 
ENDROOT
BRANCH   6   8
ATOM      8  C   UNL     1      47.170   7.668  12.146  0.00  0.00    +0.000 C 
ATOM      9  C   UNL     1      48.700   7.676  12.297  0.00  0.00    +0.000 C 
ATOM     10  C   UNL     1      49.141   7.725  13.759  0.00  0.00    +0.000 C 
ATOM     11  C   UNL     1      48.437   8.837  14.538  0.00  0.00    +0.000 C 
ATOM     12  N   UNL     1      46.982   8.776  14.412  0.00  0.00    +0.000 NA
ATOM     13  C   UNL     1      46.549   8.791  13.011  0.00  0.00    +0.000 C 
ATOM     14  H   UNL     1      46.559   9.557  14.911  0.00  0.00    +0.000 HD
ENDBRANCH   6   8
BRANCH   1  15
ATOM     15  C   UNL     1      43.609   4.151  11.186  0.00  0.00    +0.000 C 
BRANCH  15  16
ATOM     16  O   UNL     1      43.708   4.605   9.835  0.00  0.00    +0.000 OA
BRANCH  16  20
ATOM     17  C   UNL     1      46.419   2.455   7.712  0.00  0.00    +0.000 A 
ATOM     18  C   UNL     1      46.394   3.840   7.607  0.00  0.00    +0.000 A 
ATOM     19  N   UNL     1      45.510   4.612   8.295  0.00  0.00    +0.000 NA
ATOM     20  C   UNL     1      44.657   3.934   9.097  0.00  0.00    +0.000 A 
ATOM     21  C   UNL     1      44.687   2.546   9.205  0.00  0.00    +0.000 A 
ATOM     22  N   UNL     1      45.561   1.766   8.518  0.00  0.00    +0.000 NA
BRANCH  17  24
ATOM     23  N   UNL     1      48.477   2.366   6.439  0.00  0.00    +0.000 N 
ATOM     24  C   UNL     1      47.404   1.667   6.921  0.00  0.00    +0.000 C 
ATOM     25  O   UNL     1      47.267   0.467   6.717  0.00  0.00    +0.000 OA
ATOM     26  H   UNL     1      49.186   1.887   5.907  0.00  0.00    +0.000 HD
ATOM     27  H   UNL     1      48.571   3.356   6.642  0.00  0.00    +0.000 HD
ENDBRANCH  17  24
ENDBRANCH  16  20
ENDBRANCH  15  16
ENDBRANCH   1  15
TORSDOF 5
ENDMDL
MODEL 2
REMARK VINA RESULT:    -8.364      2.049      2.679
REMARK INTER + INTRA:         -10.946
REMARK INTER:                 -10.150
REMARK INTRA:                  -0.795
REMARK UNBOUND:                -0.138
REMARK  Name = 
REMARK  5 active torsions:
REMARK  status: ('A' for Active; 'I' for Inactive)
REMARK    1  A    between atoms: C_2  and  C_4
REMARK    2  A    between atoms: C_7  and  O_8
REMARK    3  A    between atoms: O_8  and  C_9
REMARK    4  A    between atoms: C_9  and  C_10
REMARK    5  A    between atoms: C_15  and  C_16
REMARK                            x       y       z     vdW  Elec       q    Type
REMARK                         _______ _______ _______ _____ _____    ______ ____
ROOT
ATOM      1  C   UNL     1      44.783   6.127  11.768  0.00  0.00    +0.000 A 
ATOM      2  C   UNL     1      44.030   7.168  11.218  0.00  0.00    +0.000 A 
ATOM      3  C   UNL     1      44.404   8.486  11.452  0.00  0.00    +0.000 A 
ATOM      4  F   UNL     1      43.676   9.479  10.924  0.00  0.00    +0.000 F 
ATOM      5  C   UNL     1      45.521   8.797  12.226  0.00  0.00    +0.000 A 
ATOM      6  C   UNL     1      46.294   7.776  12.796  0.00  0.00    +0.000 A 
ATOM      7  C   UNL     1      45.910   6.448  12.546  0.00  0.00    +0.000 A 
ENDROOT
BRANCH   6   8
ATOM      8  C   UNL     1      47.511   8.138  13.642  0.00  0.00    +0.000 C 
ATOM      9  C   UNL     1      48.281   9.340  13.069  0.00  0.00    +0.000 C 
ATOM     10  C   UNL     1      49.212   8.942  11.924  0.00  0.00    +0.000 C 
ATOM     11  C   UNL     1      50.102   7.754  12.289  0.00  0.00    +0.000 C 
ATOM     12  N   UNL     1      49.339   6.612  12.787  0.00  0.00    +0.000 NA
ATOM     13  C   UNL     1      48.488   6.973  13.927  0.00  0.00    +0.000 C 
ATOM     14  H   UNL     1      49.973   5.862  13.057  0.00  0.00    +0.000 HD
ENDBRANCH   6   8
BRANCH   1  15
ATOM     15  C   UNL     1      44.421   4.679  11.531  0.00  0.00    +0.000 C 
BRANCH  15  16
ATOM     16  O   UNL     1      43.937   4.558  10.192  0.00  0.00    +0.000 OA
BRANCH  16  20
ATOM     17  C   UNL     1      46.465   2.507   7.767  0.00  0.00    +0.000 A 
ATOM     18  C   UNL     1      46.306   3.878   7.606  0.00  0.00    +0.000 A 
ATOM     19  N   UNL     1      45.476   4.617   8.389  0.00  0.00    +0.000 NA
ATOM     20  C   UNL     1      44.816   3.922   9.345  0.00  0.00    +0.000 A 
ATOM     21  C   UNL     1      44.980   2.549   9.507  0.00  0.00    +0.000 A 
ATOM     22  N   UNL     1      45.802   1.801   8.726  0.00  0.00    +0.000 NA
BRANCH  17  24
ATOM     23  N   UNL     1      48.494   2.431   6.447  0.00  0.00    +0.000 N 
ATOM     24  C   UNL     1      47.381   1.754   6.866  0.00  0.00    +0.000 C 
ATOM     25  O   UNL     1      47.157   0.600   6.525  0.00  0.00    +0.000 OA
ATOM     26  H   UNL     1      49.161   1.972   5.847  0.00  0.00    +0.000 HD
ATOM     27  H   UNL     1      48.661   3.380   6.764  0.00  0.00    +0.000 HD
ENDBRANCH  17  24
ENDBRANCH  16  20
ENDBRANCH  15  16
ENDBRANCH   1  15
TORSDOF 5
ENDMDL
MODEL 3
REMARK VINA RESULT:    -8.224      2.394      3.284
REMARK INTER + INTRA:         -10.766
REMARK INTER:                  -9.966
REMARK INTRA:                  -0.800
REMARK UNBOUND:                -0.138
REMARK  Name = 
REMARK  5 active torsions:
REMARK  status: ('A' for Active; 'I' for Inactive)
REMARK    1  A    between atoms: C_2  and  C_4
REMARK    2  A    between atoms: C_7  and  O_8
REMARK    3  A    between atoms: O_8  and  C_9
REMARK    4  A    between atoms: C_9  and  C_10
REMARK    5  A    between atoms: C_15  and  C_16
REMARK                            x       y       z     vdW  Elec       q    Type
REMARK                         _______ _______ _______ _____ _____    ______ ____
ROOT
ATOM      1  C   UNL     1      45.157   6.209  11.505  0.00  0.00    +0.000 A 
ATOM      2  C   UNL     1      46.542   6.177  11.688  0.00  0.00    +0.000 A 
ATOM      3  C   UNL     1      47.231   7.359  11.939  0.00  0.00    +0.000 A 
ATOM      4  F   UNL     1      48.559   7.321  12.111  0.00  0.00    +0.000 F 
ATOM      5  C   UNL     1      46.569   8.583  12.014  0.00  0.00    +0.000 A 
ATOM      6  C   UNL     1      45.180   8.650  11.829  0.00  0.00    +0.000 A 
ATOM      7  C   UNL     1      44.495   7.448  11.584  0.00  0.00    +0.000 A 
ENDROOT
BRANCH   6   8
ATOM      8  C   UNL     1      44.475  10.000  11.912  0.00  0.00    +0.000 C 
ATOM      9  C   UNL     1      43.286  10.096  10.942  0.00  0.00    +0.000 C 
ATOM     10  C   UNL     1      43.724  10.429   9.516  0.00  0.00    +0.000 C 
ATOM     11  C   UNL     1      44.663  11.635   9.467  0.00  0.00    +0.000 C 
ATOM     12  N   UNL     1      45.806  11.494  10.366  0.00  0.00    +0.000 NA
ATOM     13  C   UNL     1      45.391  11.235  11.749  0.00  0.00    +0.000 C 
ATOM     14  H   UNL     1      46.379  12.336  10.331  0.00  0.00    +0.000 HD
ENDBRANCH   6   8
BRANCH   1  15
ATOM     15  C   UNL     1      44.365   4.949  11.242  0.00  0.00    +0.000 C 
BRANCH  15  16
ATOM     16  O   UNL     1      44.046   4.911   9.850  0.00  0.00    +0.000 OA
BRANCH  16  20
ATOM     17  C   UNL     1      46.479   2.435   7.746  0.00  0.00    +0.000 A 
ATOM     18  C   UNL     1      46.508   3.804   7.510  0.00  0.00    +0.000 A 
ATOM     19  N   UNL     1      45.718   4.682   8.185  0.00  0.00    +0.000 NA
ATOM     20  C   UNL     1      44.902   4.126   9.111  0.00  0.00    +0.000 A 
ATOM     21  C   UNL     1      44.877   2.755   9.348  0.00  0.00    +0.000 A 
ATOM     22  N   UNL     1      45.658   1.869   8.675  0.00  0.00    +0.000 NA
BRANCH  17  24
ATOM     23  N   UNL     1      48.511   2.086   6.475  0.00  0.00    +0.000 N 
ATOM     24  C   UNL     1      47.361   1.527   6.962  0.00  0.00    +0.000 C 
ATOM     25  O   UNL     1      47.080   0.351   6.768  0.00  0.00    +0.000 OA
ATOM     26  H   UNL     1      49.157   1.521   5.948  0.00  0.00    +0.000 HD
ATOM     27  H   UNL     1      48.724   3.059   6.670  0.00  0.00    +0.000 HD
ENDBRANCH  17  24
ENDBRANCH  16  20
ENDBRANCH  15  16
ENDBRANCH   1  15
TORSDOF 5
ENDMDL
MODEL 4
REMARK VINA RESULT:    -7.310      5.077      7.771
REMARK INTER + INTRA:          -9.585
REMARK INTER:                  -9.007
REMARK INTRA:                  -0.578
REMARK UNBOUND:                -0.138
REMARK  Name = 
REMARK  5 active torsions:
REMARK  status: ('A' for Active; 'I' for Inactive)
REMARK    1  A    between atoms: C_2  and  C_4
REMARK    2  A    between atoms: C_7  and  O_8
REMARK    3  A    between atoms: O_8  and  C_9
REMARK    4  A    between atoms: C_9  and  C_10
REMARK    5  A    between atoms: C_15  and  C_16
REMARK                            x       y       z     vdW  Elec       q    Type
REMARK                         _______ _______ _______ _____ _____    ______ ____
ROOT
ATOM      1  C   UNL     1      46.632   4.610  14.009  0.00  0.00    +0.000 A 
ATOM      2  C   UNL     1      47.382   5.703  13.568  0.00  0.00    +0.000 A 
ATOM      3  C   UNL     1      47.041   6.338  12.379  0.00  0.00    +0.000 A 
ATOM      4  F   UNL     1      47.767   7.384  11.962  0.00  0.00    +0.000 F 
ATOM      5  C   UNL     1      45.960   5.909  11.612  0.00  0.00    +0.000 A 
ATOM      6  C   UNL     1      45.190   4.811  12.024  0.00  0.00    +0.000 A 
ATOM      7  C   UNL     1      45.541   4.183  13.231  0.00  0.00    +0.000 A 
ENDROOT
BRANCH   6   8
ATOM      8  C   UNL     1      44.012   4.355  11.168  0.00  0.00    +0.000 C 
ATOM      9  C   UNL     1      44.040   2.842  10.899  0.00  0.00    +0.000 C 
ATOM     10  C   UNL     1      44.991   2.469   9.762  0.00  0.00    +0.000 C 
ATOM     11  C   UNL     1      44.756   3.316   8.512  0.00  0.00    +0.000 C 
ATOM     12  N   UNL     1      44.781   4.750   8.791  0.00  0.00    +0.000 NA
ATOM     13  C   UNL     1      43.825   5.124   9.838  0.00  0.00    +0.000 C 
ATOM     14  H   UNL     1      44.579   5.272   7.939  0.00  0.00    +0.000 HD
ENDBRANCH   6   8
BRANCH   1  15
ATOM     15  C   UNL     1      46.958   3.896  15.301  0.00  0.00    +0.000 C 
BRANCH  15  16
ATOM     16  O   UNL     1      47.940   4.668  15.995  0.00  0.00    +0.000 OA
BRANCH  16  20
ATOM     17  C   UNL     1      50.949   2.296  17.336  0.00  0.00    +0.000 A 
ATOM     18  C   UNL     1      51.026   3.674  17.497  0.00  0.00    +0.000 A 
ATOM     19  N   UNL     1      50.048   4.518  17.070  0.00  0.00    +0.000 NA
ATOM     20  C   UNL     1      48.987   3.918  16.479  0.00  0.00    +0.000 A 
ATOM     21  C   UNL     1      48.911   2.537  16.323  0.00  0.00    +0.000 A 
ATOM     22  N   UNL     1      49.885   1.686  16.740  0.00  0.00    +0.000 NA
BRANCH  17  24
ATOM     23  N   UNL     1      51.716   0.149  18.152  0.00  0.00    +0.000 N 
ATOM     24  C   UNL     1      52.061   1.430  17.814  0.00  0.00    +0.000 C 
ATOM     25  O   UNL     1      53.215   1.833  17.896  0.00  0.00    +0.000 OA
ATOM     26  H   UNL     1      52.426  -0.492  18.469  0.00  0.00    +0.000 HD
ATOM     27  H   UNL     1      50.754  -0.160  18.054  0.00  0.00    +0.000 HD
ENDBRANCH  17  24
ENDBRANCH  16  20
ENDBRANCH  15  16
ENDBRANCH   1  15
TORSDOF 5
ENDMDL
MODEL 5
REMARK VINA RESULT:    -7.189      3.895      7.344
REMARK INTER + INTRA:          -9.428
REMARK INTER:                  -9.057
REMARK INTRA:                  -0.371
REMARK UNBOUND:                -0.138
REMARK  Name = 
REMARK  5 active torsions:
REMARK  status: ('A' for Active; 'I' for Inactive)
REMARK    1  A    between atoms: C_2  and  C_4
REMARK    2  A    between atoms: C_7  and  O_8
REMARK    3  A    between atoms: O_8  and  C_9
REMARK    4  A    between atoms: C_9  and  C_10
REMARK    5  A    between atoms: C_15  and  C_16
REMARK                            x       y       z     vdW  Elec       q    Type
REMARK                         _______ _______ _______ _____ _____    ______ ____
ROOT
ATOM      1  C   UNL     1      47.127   7.134  12.202  0.00  0.00    +0.000 A 
ATOM      2  C   UNL     1      46.694   8.460  12.280  0.00  0.00    +0.000 A 
ATOM      3  C   UNL     1      45.402   8.787  11.883  0.00  0.00    +0.000 A 
ATOM      4  F   UNL     1      44.995  10.061  11.958  0.00  0.00    +0.000 F 
ATOM      5  C   UNL     1      44.522   7.817  11.407  0.00  0.00    +0.000 A 
ATOM      6  C   UNL     1      44.927   6.478  11.311  0.00  0.00    +0.000 A 
ATOM      7  C   UNL     1      46.233   6.159  11.723  0.00  0.00    +0.000 A 
ENDROOT
BRANCH   6   8
ATOM      8  C   UNL     1      43.949   5.432  10.785  0.00  0.00    +0.000 C 
ATOM      9  C   UNL     1      42.804   5.159  11.774  0.00  0.00    +0.000 C 
ATOM     10  C   UNL     1      43.213   4.195  12.888  0.00  0.00    +0.000 C 
ATOM     11  C   UNL     1      43.875   2.930  12.342  0.00  0.00    +0.000 C 
ATOM     12  N   UNL     1      44.989   3.222  11.443  0.00  0.00    +0.000 NA
ATOM     13  C   UNL     1      44.588   4.097  10.335  0.00  0.00    +0.000 C 
ATOM     14  H   UNL     1      45.371   2.353  11.071  0.00  0.00    +0.000 HD
ENDBRANCH   6   8
BRANCH   1  15
ATOM     15  C   UNL     1      48.518   6.730  12.633  0.00  0.00    +0.000 C 
BRANCH  15  16
ATOM     16  O   UNL     1      48.689   7.123  13.997  0.00  0.00    +0.000 OA
BRANCH  16  20
ATOM     17  C   UNL     1      47.871   4.303  16.800  0.00  0.00    +0.000 A 
ATOM     18  C   UNL     1      47.375   4.166  15.510  0.00  0.00    +0.000 A 
ATOM     19  N   UNL     1      47.617   5.077  14.529  0.00  0.00    +0.000 NA
ATOM     20  C   UNL     1      48.385   6.129  14.898  0.00  0.00    +0.000 A 
ATOM     21  C   UNL     1      48.885   6.263  16.191  0.00  0.00    +0.000 A 
ATOM     22  N   UNL     1      48.643   5.362  17.178  0.00  0.00    +0.000 NA
BRANCH  17  24
ATOM     23  N   UNL     1      48.349   3.290  18.946  0.00  0.00    +0.000 N 
ATOM     24  C   UNL     1      47.557   3.276  17.831  0.00  0.00    +0.000 C 
ATOM     25  O   UNL     1      46.644   2.472  17.694  0.00  0.00    +0.000 OA
ATOM     26  H   UNL     1      48.179   2.628  19.688  0.00  0.00    +0.000 HD
ATOM     27  H   UNL     1      49.085   3.982  19.038  0.00  0.00    +0.000 HD
ENDBRANCH  17  24
ENDBRANCH  16  20
ENDBRANCH  15  16
ENDBRANCH   1  15
TORSDOF 5
ENDMDL
MODEL 6
REMARK VINA RESULT:    -7.110      4.729      8.411
REMARK INTER + INTRA:          -9.326
REMARK INTER:                  -8.680
REMARK INTRA:                  -0.647
REMARK UNBOUND:                -0.138
REMARK  Name = 
REMARK  5 active torsions:
REMARK  status: ('A' for Active; 'I' for Inactive)
REMARK    1  A    between atoms: C_2  and  C_4
REMARK    2  A    between atoms: C_7  and  O_8
REMARK    3  A    between atoms: O_8  and  C_9
REMARK    4  A    between atoms: C_9  and  C_10
REMARK    5  A    between atoms: C_15  and  C_16
REMARK                            x       y       z     vdW  Elec       q    Type
REMARK                         _______ _______ _______ _____ _____    ______ ____
ROOT
ATOM      1  C   UNL     1      46.737   4.336  13.522  0.00  0.00    +0.000 A 
ATOM      2  C   UNL     1      47.188   5.640  13.302  0.00  0.00    +0.000 A 
ATOM      3  C   UNL     1      46.646   6.390  12.264  0.00  0.00    +0.000 A 
ATOM      4  F   UNL     1      47.085   7.639  12.057  0.00  0.00    +0.000 F 
ATOM      5  C   UNL     1      45.656   5.869  11.432  0.00  0.00    +0.000 A 
ATOM      6  C   UNL     1      45.186   4.562  11.623  0.00  0.00    +0.000 A 
ATOM      7  C   UNL     1      45.736   3.817  12.680  0.00  0.00    +0.000 A 
ENDROOT
BRANCH   6   8
ATOM      8  C   UNL     1      44.104   4.010  10.700  0.00  0.00    +0.000 C 
ATOM      9  C   UNL     1      44.305   2.516  10.397  0.00  0.00    +0.000 C 
ATOM     10  C   UNL     1      45.341   2.278   9.299  0.00  0.00    +0.000 C 
ATOM     11  C   UNL     1      45.075   3.132   8.059  0.00  0.00    +0.000 C 
ATOM     12  N   UNL     1      44.935   4.551   8.373  0.00  0.00    +0.000 NA
ATOM     13  C   UNL     1      43.897   4.793   9.382  0.00  0.00    +0.000 C 
ATOM     14  H   UNL     1      44.717   5.074   7.526  0.00  0.00    +0.000 HD
ENDBRANCH   6   8
BRANCH   1  15
ATOM     15  C   UNL     1      47.288   3.488  14.645  0.00  0.00    +0.000 C 
BRANCH  15  16
ATOM     16  O   UNL     1      46.721   3.957  15.870  0.00  0.00    +0.000 OA
BRANCH  16  20
ATOM     17  C   UNL     1      49.310   4.555  18.939  0.00  0.00    +0.000 A 
ATOM     18  C   UNL     1      49.694   3.792  17.844  0.00  0.00    +0.000 A 
ATOM     19  N   UNL     1      48.871   3.559  16.786  0.00  0.00    +0.000 NA
ATOM     20  C   UNL     1      47.647   4.130  16.874  0.00  0.00    +0.000 A 
ATOM     21  C   UNL     1      47.265   4.898  17.971  0.00  0.00    +0.000 A 
ATOM     22  N   UNL     1      48.078   5.131  19.034  0.00  0.00    +0.000 NA
BRANCH  17  24
ATOM     23  N   UNL     1      51.554   4.397  19.837  0.00  0.00    +0.000 N 
ATOM     24  C   UNL     1      50.255   4.760  20.071  0.00  0.00    +0.000 C 
ATOM     25  O   UNL     1      49.897   5.229  21.145  0.00  0.00    +0.000 OA
ATOM     26  H   UNL     1      52.245   4.524  20.558  0.00  0.00    +0.000 HD
ATOM     27  H   UNL     1      51.822   4.030  18.929  0.00  0.00    +0.000 HD
ENDBRANCH  17  24
ENDBRANCH  16  20
ENDBRANCH  15  16
ENDBRANCH   1  15
TORSDOF 5
ENDMDL
MODEL 7
REMARK VINA RESULT:    -7.033      3.863      6.059
REMARK INTER + INTRA:          -9.226
REMARK INTER:                  -8.647
REMARK INTRA:                  -0.580
REMARK UNBOUND:                -0.138
REMARK  Name = 
REMARK  5 active torsions:
REMARK  status: ('A' for Active; 'I' for Inactive)
REMARK    1  A    between atoms: C_2  and  C_4
REMARK    2  A    between atoms: C_7  and  O_8
REMARK    3  A    between atoms: O_8  and  C_9
REMARK    4  A    between atoms: C_9  and  C_10
REMARK    5  A    between atoms: C_15  and  C_16
REMARK                            x       y       z     vdW  Elec       q    Type
REMARK                         _______ _______ _______ _____ _____    ______ ____
ROOT
ATOM      1  C   UNL     1      49.130   7.062  15.033  0.00  0.00    +0.000 A 
ATOM      2  C   UNL     1      50.444   7.528  14.938  0.00  0.00    +0.000 A 
ATOM      3  C   UNL     1      51.389   7.119  15.873  0.00  0.00    +0.000 A 
ATOM      4  F   UNL     1      52.646   7.572  15.777  0.00  0.00    +0.000 F 
ATOM      5  C   UNL     1      51.055   6.249  16.910  0.00  0.00    +0.000 A 
ATOM      6  C   UNL     1      49.744   5.768  17.037  0.00  0.00    +0.000 A 
ATOM      7  C   UNL     1      48.801   6.183  16.081  0.00  0.00    +0.000 A 
ENDROOT
BRANCH   6   8
ATOM      8  C   UNL     1      49.399   4.819  18.180  0.00  0.00    +0.000 C 
ATOM      9  C   UNL     1      49.751   3.359  17.849  0.00  0.00    +0.000 C 
ATOM     10  C   UNL     1      48.684   2.684  16.986  0.00  0.00    +0.000 C 
ATOM     11  C   UNL     1      47.278   2.869  17.556  0.00  0.00    +0.000 C 
ATOM     12  N   UNL     1      46.957   4.270  17.817  0.00  0.00    +0.000 NA
ATOM     13  C   UNL     1      47.943   4.907  18.696  0.00  0.00    +0.000 C 
ATOM     14  H   UNL     1      46.029   4.341  18.234  0.00  0.00    +0.000 HD
ENDBRANCH   6   8
BRANCH   1  15
ATOM     15  C   UNL     1      48.073   7.469  14.033  0.00  0.00    +0.000 C 
BRANCH  15  16
ATOM     16  O   UNL     1      48.216   6.641  12.878  0.00  0.00    +0.000 OA
BRANCH  16  20
ATOM     17  C   UNL     1      44.930   4.362  12.182  0.00  0.00    +0.000 A 
ATOM     18  C   UNL     1      45.175   5.485  11.402  0.00  0.00    +0.000 A 
ATOM     19  N   UNL     1      46.260   6.285  11.588  0.00  0.00    +0.000 NA
ATOM     20  C   UNL     1      47.091   5.904  12.586  0.00  0.00    +0.000 A 
ATOM     21  C   UNL     1      46.845   4.776  13.363  0.00  0.00    +0.000 A 
ATOM     22  N   UNL     1      45.762   3.974  13.190  0.00  0.00    +0.000 NA
BRANCH  17  24
ATOM     23  N   UNL     1      43.739   2.271  12.456  0.00  0.00    +0.000 N 
ATOM     24  C   UNL     1      43.715   3.536  11.935  0.00  0.00    +0.000 C 
ATOM     25  O   UNL     1      42.752   3.962  11.310  0.00  0.00    +0.000 OA
ATOM     26  H   UNL     1      42.942   1.667  12.336  0.00  0.00    +0.000 HD
ATOM     27  H   UNL     1      44.545   1.956  12.987  0.00  0.00    +0.000 HD
ENDBRANCH  17  24
ENDBRANCH  16  20
ENDBRANCH  15  16
ENDBRANCH   1  15
TORSDOF 5
ENDMDL
MODEL 8
REMARK VINA RESULT:    -7.013      3.865      5.692
REMARK INTER + INTRA:          -9.201
REMARK INTER:                  -8.539
REMARK INTRA:                  -0.662
REMARK UNBOUND:                -0.138
REMARK  Name = 
REMARK  5 active torsions:
REMARK  status: ('A' for Active; 'I' for Inactive)
REMARK    1  A    between atoms: C_2  and  C_4
REMARK    2  A    between atoms: C_7  and  O_8
REMARK    3  A    between atoms: O_8  and  C_9
REMARK    4  A    between atoms: C_9  and  C_10
REMARK    5  A    between atoms: C_15  and  C_16
REMARK                            x       y       z     vdW  Elec       q    Type
REMARK                         _______ _______ _______ _____ _____    ______ ____
ROOT
ATOM      1  C   UNL     1      48.465   6.812  14.786  0.00  0.00    +0.000 A 
ATOM      2  C   UNL     1      48.977   7.951  15.413  0.00  0.00    +0.000 A 
ATOM      3  C   UNL     1      49.325   7.899  16.758  0.00  0.00    +0.000 A 
ATOM      4  F   UNL     1      49.812   8.996  17.353  0.00  0.00    +0.000 F 
ATOM      5  C   UNL     1      49.176   6.730  17.501  0.00  0.00    +0.000 A 
ATOM      6  C   UNL     1      48.659   5.571  16.903  0.00  0.00    +0.000 A 
ATOM      7  C   UNL     1      48.319   5.634  15.542  0.00  0.00    +0.000 A 
ENDROOT
BRANCH   6   8
ATOM      8  C   UNL     1      48.502   4.302  17.736  0.00  0.00    +0.000 C 
ATOM      9  C   UNL     1      49.782   3.955  18.515  0.00  0.00    +0.000 C 
ATOM     10  C   UNL     1      50.816   3.240  17.646  0.00  0.00    +0.000 C 
ATOM     11  C   UNL     1      50.215   2.058  16.886  0.00  0.00    +0.000 C 
ATOM     12  N   UNL     1      49.028   2.429  16.119  0.00  0.00    +0.000 NA
ATOM     13  C   UNL     1      48.004   3.060  16.959  0.00  0.00    +0.000 C 
ATOM     14  H   UNL     1      48.637   1.604  15.665  0.00  0.00    +0.000 HD
ENDBRANCH   6   8
BRANCH   1  15
ATOM     15  C   UNL     1      48.084   6.818  13.323  0.00  0.00    +0.000 C 
BRANCH  15  16
ATOM     16  O   UNL     1      46.672   7.014  13.236  0.00  0.00    +0.000 OA
BRANCH  16  20
ATOM     17  C   UNL     1      44.671   3.882  11.604  0.00  0.00    +0.000 A 
ATOM     18  C   UNL     1      45.131   4.911  10.793  0.00  0.00    +0.000 A 
ATOM     19  N   UNL     1      45.809   5.984  11.283  0.00  0.00    +0.000 NA
ATOM     20  C   UNL     1      46.009   5.976  12.622  0.00  0.00    +0.000 A 
ATOM     21  C   UNL     1      45.550   4.941  13.432  0.00  0.00    +0.000 A 
ATOM     22  N   UNL     1      44.867   3.869  12.954  0.00  0.00    +0.000 NA
BRANCH  17  24
ATOM     23  N   UNL     1      44.475   2.191   9.881  0.00  0.00    +0.000 N 
ATOM     24  C   UNL     1      43.923   2.742  11.006  0.00  0.00    +0.000 C 
ATOM     25  O   UNL     1      42.881   2.317  11.491  0.00  0.00    +0.000 OA
ATOM     26  H   UNL     1      44.025   1.407   9.437  0.00  0.00    +0.000 HD
ATOM     27  H   UNL     1      45.350   2.554   9.516  0.00  0.00    +0.000 HD
ENDBRANCH  17  24
ENDBRANCH  16  20
ENDBRANCH  15  16
ENDBRANCH   1  15
TORSDOF 5
ENDMDL
MODEL 9
REMARK VINA RESULT:    -6.999      5.403      7.921
REMARK INTER + INTRA:          -9.182
REMARK INTER:                  -8.490
REMARK INTRA:                  -0.692
REMARK UNBOUND:                -0.138
REMARK  Name = 
REMARK  5 active torsions:
REMARK  status: ('A' for Active; 'I' for Inactive)
REMARK    1  A    between atoms: C_2  and  C_4
REMARK    2  A    between atoms: C_7  and  O_8
REMARK    3  A    between atoms: O_8  and  C_9
REMARK    4  A    between atoms: C_9  and  C_10
REMARK    5  A    between atoms: C_15  and  C_16
REMARK                            x       y       z     vdW  Elec       q    Type
REMARK                         _______ _______ _______ _____ _____    ______ ____
ROOT
ATOM      1  C   UNL     1      47.299   5.121  14.834  0.00  0.00    +0.000 A 
ATOM      2  C   UNL     1      48.056   6.216  14.408  0.00  0.00    +0.000 A 
ATOM      3  C   UNL     1      47.876   6.719  13.124  0.00  0.00    +0.000 A 
ATOM      4  F   UNL     1      48.607   7.767  12.722  0.00  0.00    +0.000 F 
ATOM      5  C   UNL     1      46.952   6.155  12.246  0.00  0.00    +0.000 A 
ATOM      6  C   UNL     1      46.181   5.052  12.641  0.00  0.00    +0.000 A 
ATOM      7  C   UNL     1      46.367   4.558  13.944  0.00  0.00    +0.000 A 
ENDROOT
BRANCH   6   8
ATOM      8  C   UNL     1      45.177   4.448  11.665  0.00  0.00    +0.000 C 
ATOM      9  C   UNL     1      44.622   5.493  10.682  0.00  0.00    +0.000 C 
ATOM     10  C   UNL     1      43.499   6.330  11.296  0.00  0.00    +0.000 C 
ATOM     11  C   UNL     1      42.425   5.463  11.952  0.00  0.00    +0.000 C 
ATOM     12  N   UNL     1      42.978   4.513  12.913  0.00  0.00    +0.000 NA
ATOM     13  C   UNL     1      44.013   3.663  12.314  0.00  0.00    +0.000 C 
ATOM     14  H   UNL     1      42.233   3.930  13.292  0.00  0.00    +0.000 HD
ENDBRANCH   6   8
BRANCH   1  15
ATOM     15  C   UNL     1      47.451   4.548  16.225  0.00  0.00    +0.000 C 
BRANCH  15  16
ATOM     16  O   UNL     1      47.827   3.175  16.096  0.00  0.00    +0.000 OA
BRANCH  16  20
ATOM     17  C   UNL     1      51.514   2.527  17.664  0.00  0.00    +0.000 A 
ATOM     18  C   UNL     1      50.921   1.561  16.862  0.00  0.00    +0.000 A 
ATOM     19  N   UNL     1      49.689   1.724  16.307  0.00  0.00    +0.000 NA
ATOM     20  C   UNL     1      49.081   2.900  16.590  0.00  0.00    +0.000 A 
ATOM     21  C   UNL     1      49.680   3.868  17.391  0.00  0.00    +0.000 A 
ATOM     22  N   UNL     1      50.907   3.713  17.954  0.00  0.00    +0.000 NA
BRANCH  17  24
ATOM     23  N   UNL     1      53.094   2.858  19.470  0.00  0.00    +0.000 N 
ATOM     24  C   UNL     1      52.860   2.281  18.251  0.00  0.00    +0.000 C 
ATOM     25  O   UNL     1      53.706   1.600  17.684  0.00  0.00    +0.000 OA
ATOM     26  H   UNL     1      53.981   2.718  19.927  0.00  0.00    +0.000 HD
ATOM     27  H   UNL     1      52.365   3.401  19.922  0.00  0.00    +0.000 HD
ENDBRANCH  17  24
ENDBRANCH  16  20
ENDBRANCH  15  16
ENDBRANCH   1  15
TORSDOF 5
ENDMDL
