MODEL 1
REMARK VINA RESULT:    -7.500      0.000      0.000
REMARK INTER + INTRA:         -11.561
REMARK INTER:                 -10.130
REMARK INTRA:                  -1.431
REMARK UNBOUND:                -1.431
REMARK  Name = 
REMARK  7 active torsions:
REMARK  status: ('A' for Active; 'I' for Inactive)
REMARK    1  A    between atoms: C_1  and  C_2
REMARK    2  A    between atoms: C_2  and  N_3
REMARK    3  A    between atoms: C_2  and  C_16
REMARK    4  A    between atoms: C_4  and  C_6
REMARK    5  A    between atoms: C_19  and  O_20
REMARK    6  A    between atoms: O_20  and  C_21
REMARK    7  A    between atoms: C_26  and  C_27
REMARK                            x       y       z     vdW  Elec       q    Type
REMARK                         _______ _______ _______ _____ _____    ______ ____
ROOT
ATOM      1  C   UNL     1      48.118   9.153  14.170  0.00  0.00    +0.000 C 
ATOM      2  C   UNL     1      48.263   7.627  14.226  0.00  0.00    +0.000 C 
ENDROOT
BRANCH   2   3
ATOM      3  C   UNL     1      47.224   7.029  13.286  0.00  0.00    +0.000 A 
ATOM      4  C   UNL     1      46.890   5.670  13.406  0.00  0.00    +0.000 A 
ATOM      5  C   UNL     1      46.039   5.061  12.481  0.00  0.00    +0.000 A 
ATOM      6  C   UNL     1      45.452   5.814  11.463  0.00  0.00    +0.000 A 
ATOM      7  C   UNL     1      45.789   7.159  11.323  0.00  0.00    +0.000 A 
ATOM      8  C   UNL     1      46.677   7.760  12.219  0.00  0.00    +0.000 A 
BRANCH   6   9
ATOM      9  O   UNL     1      44.591   5.313  10.512  0.00  0.00    +0.000 OA
BRANCH   9  10
ATOM     10  C   UNL     1      45.033   4.383   9.595  0.00  0.00    +0.000 A 
ATOM     11  C   UNL     1      45.919   4.706   8.556  0.00  0.00    +0.000 A 
ATOM     12  C   UNL     1      46.306   3.738   7.630  0.00  0.00    +0.000 A 
ATOM     13  C   UNL     1      45.866   2.425   7.774  0.00  0.00    +0.000 A 
ATOM     14  C   UNL     1      45.045   2.077   8.850  0.00  0.00    +0.000 A 
ATOM     15  C   UNL     1      44.621   3.052   9.768  0.00  0.00    +0.000 A 
BRANCH  15  16
ATOM     16  C   UNL     1      43.778   2.662  10.867  0.00  0.00    +0.000 C 
ATOM     17  N   UNL     1      43.085   2.382  11.754  0.00  0.00    +0.000 NA
ENDBRANCH  15  16
ENDBRANCH   9  10
ENDBRANCH   6   9
ENDBRANCH   2   3
BRANCH   2  18
ATOM     18  N   UNL     1      48.139   7.093  15.575  0.00  0.00    +0.000 N 
ATOM     19  C   UNL     1      49.198   6.515  16.230  0.00  0.00    +0.000 C 
ATOM     20  O   UNL     1      50.322   6.451  15.745  0.00  0.00    +0.000 OA
ATOM     21  H   UNL     1      47.205   6.818  15.868  0.00  0.00    +0.000 HD
BRANCH  19  22
ATOM     22  C   UNL     1      48.941   6.012  17.583  0.00  0.00    +0.000 A 
ATOM     23  C   UNL     1      49.171   4.672  17.866  0.00  0.00    +0.000 A 
ATOM     24  S   UNL     1      48.785   4.234  19.467  0.00  0.00    +0.000 S 
ATOM     25  C   UNL     1      48.268   5.814  19.829  0.00  0.00    +0.000 A 
ATOM     26  N   UNL     1      47.751   6.117  21.049  0.00  0.00    +0.000 NA
ATOM     27  C   UNL     1      47.375   7.346  21.178  0.00  0.00    +0.000 A 
ATOM     28  N   UNL     1      47.488   8.303  20.203  0.00  0.00    +0.000 N 
ATOM     29  C   UNL     1      48.045   8.053  18.971  0.00  0.00    +0.000 A 
ATOM     30  O   UNL     1      48.211   8.947  18.146  0.00  0.00    +0.000 OA
ATOM     31  C   UNL     1      48.436   6.675  18.758  0.00  0.00    +0.000 A 
ATOM     32  H   UNL     1      47.201   9.255  20.381  0.00  0.00    +0.000 HD
ENDBRANCH  19  22
ENDBRANCH   2  18
TORSDOF 6
ENDMDL
MODEL 2
REMARK VINA RESULT:    -7.322      1.372      1.910
REMARK INTER + INTRA:         -11.321
REMARK INTER:                 -10.355
REMARK INTRA:                  -0.966
REMARK UNBOUND:                -1.431
REMARK  Name = 
REMARK  7 active torsions:
REMARK  status: ('A' for Active; 'I' for Inactive)
REMARK    1  A    between atoms: C_1  and  C_2
REMARK    2  A    between atoms: C_2  and  N_3
REMARK    3  A    between atoms: C_2  and  C_16
REMARK    4  A    between atoms: C_4  and  C_6
REMARK    5  A    between atoms: C_19  and  O_20
REMARK    6  A    between atoms: O_20  and  C_21
REMARK    7  A    between atoms: C_26  and  C_27
REMARK                            x       y       z     vdW  Elec       q    Type
REMARK                         _______ _______ _______ _____ _____    ______ ____
ROOT
ATOM      1  C   UNL     1      49.647   8.125  13.782  0.00  0.00    +0.000 C 
ATOM      2  C   UNL     1      48.951   6.897  14.381  0.00  0.00    +0.000 C 
ENDROOT
BRANCH   2   3
ATOM      3  C   UNL     1      47.784   6.535  13.469  0.00  0.00    +0.000 A 
ATOM      4  C   UNL     1      47.011   5.401  13.761  0.00  0.00    +0.000 A 
ATOM      5  C   UNL     1      46.017   4.969  12.879  0.00  0.00    +0.000 A 
ATOM      6  C   UNL     1      45.734   5.703  11.725  0.00  0.00    +0.000 A 
ATOM      7  C   UNL     1      46.507   6.821  11.416  0.00  0.00    +0.000 A 
ATOM      8  C   UNL     1      47.532   7.228  12.273  0.00  0.00    +0.000 A 
BRANCH   6   9
ATOM      9  O   UNL     1      44.769   5.372  10.800  0.00  0.00    +0.000 OA
BRANCH   9  10
ATOM     10  C   UNL     1      45.044   4.458   9.805  0.00  0.00    +0.000 A 
ATOM     11  C   UNL     1      45.853   4.764   8.700  0.00  0.00    +0.000 A 
ATOM     12  C   UNL     1      46.070   3.818   7.699  0.00  0.00    +0.000 A 
ATOM     13  C   UNL     1      45.538   2.538   7.827  0.00  0.00    +0.000 A 
ATOM     14  C   UNL     1      44.795   2.201   8.962  0.00  0.00    +0.000 A 
ATOM     15  C   UNL     1      44.542   3.157   9.958  0.00  0.00    +0.000 A 
BRANCH  15  16
ATOM     16  C   UNL     1      43.775   2.778  11.116  0.00  0.00    +0.000 C 
ATOM     17  N   UNL     1      43.163   2.436  12.040  0.00  0.00    +0.000 NA
ENDBRANCH  15  16
ENDBRANCH   9  10
ENDBRANCH   6   9
ENDBRANCH   2   3
BRANCH   2  18
ATOM     18  N   UNL     1      48.515   7.103  15.754  0.00  0.00    +0.000 N 
ATOM     19  C   UNL     1      49.241   6.644  16.826  0.00  0.00    +0.000 C 
ATOM     20  O   UNL     1      50.319   6.074  16.701  0.00  0.00    +0.000 OA
ATOM     21  H   UNL     1      47.519   7.249  15.896  0.00  0.00    +0.000 HD
BRANCH  19  22
ATOM     22  C   UNL     1      48.691   6.914  18.159  0.00  0.00    +0.000 A 
ATOM     23  C   UNL     1      48.273   8.199  18.475  0.00  0.00    +0.000 A 
ATOM     24  S   UNL     1      47.701   8.359  20.072  0.00  0.00    +0.000 S 
ATOM     25  C   UNL     1      48.020   6.723  20.406  0.00  0.00    +0.000 A 
ATOM     26  N   UNL     1      47.805   6.207  21.645  0.00  0.00    +0.000 NA
ATOM     27  C   UNL     1      48.116   4.959  21.765  0.00  0.00    +0.000 A 
ATOM     28  N   UNL     1      48.604   4.175  20.752  0.00  0.00    +0.000 N 
ATOM     29  C   UNL     1      48.795   4.642  19.472  0.00  0.00    +0.000 A 
ATOM     30  O   UNL     1      49.153   3.899  18.563  0.00  0.00    +0.000 OA
ATOM     31  C   UNL     1      48.509   6.051  19.298  0.00  0.00    +0.000 A 
ATOM     32  H   UNL     1      48.798   3.196  20.906  0.00  0.00    +0.000 HD
ENDBRANCH  19  22
ENDBRANCH   2  18
TORSDOF 6
ENDMDL
MODEL 3
REMARK VINA RESULT:    -7.155      3.572      8.744
REMARK INTER + INTRA:         -11.095
REMARK INTER:                  -9.876
REMARK INTRA:                  -1.220
REMARK UNBOUND:                -1.431
REMARK  Name = 
REMARK  7 active torsions:
REMARK  status: ('A' for Active; 'I' for Inactive)
REMARK    1  A    between atoms: C_1  and  C_2
REMARK    2  A    between atoms: C_2  and  N_3
REMARK    3  A    between atoms: C_2  and  C_16
REMARK    4  A    between atoms: C_4  and  C_6
REMARK    5  A    between atoms: C_19  and  O_20
REMARK    6  A    between atoms: O_20  and  C_21
REMARK    7  A    between atoms: C_26  and  C_27
REMARK                            x       y       z     vdW  Elec       q    Type
REMARK                         _______ _______ _______ _____ _____    ______ ____
ROOT
ATOM      1  C   UNL     1      49.511   7.780  12.968  0.00  0.00    +0.000 C 
ATOM      2  C   UNL     1      48.243   7.219  13.622  0.00  0.00    +0.000 C 
ENDROOT
BRANCH   2   3
ATOM      3  C   UNL     1      48.650   6.569  14.939  0.00  0.00    +0.000 A 
ATOM      4  C   UNL     1      49.891   6.893  15.510  0.00  0.00    +0.000 A 
ATOM      5  C   UNL     1      50.349   6.221  16.646  0.00  0.00    +0.000 A 
ATOM      6  C   UNL     1      49.546   5.265  17.271  0.00  0.00    +0.000 A 
ATOM      7  C   UNL     1      48.320   4.922  16.702  0.00  0.00    +0.000 A 
ATOM      8  C   UNL     1      47.880   5.559  15.540  0.00  0.00    +0.000 A 
BRANCH   6   9
ATOM      9  O   UNL     1      49.899   4.559  18.399  0.00  0.00    +0.000 OA
BRANCH   9  10
ATOM     10  C   UNL     1      51.179   4.065  18.539  0.00  0.00    +0.000 A 
ATOM     11  C   UNL     1      52.127   4.650  19.392  0.00  0.00    +0.000 A 
ATOM     12  C   UNL     1      53.421   4.136  19.469  0.00  0.00    +0.000 A 
ATOM     13  C   UNL     1      53.758   2.995  18.747  0.00  0.00    +0.000 A 
ATOM     14  C   UNL     1      52.798   2.361  17.954  0.00  0.00    +0.000 A 
ATOM     15  C   UNL     1      51.502   2.890  17.842  0.00  0.00    +0.000 A 
BRANCH  15  16
ATOM     16  C   UNL     1      50.536   2.212  17.020  0.00  0.00    +0.000 C 
ATOM     17  N   UNL     1      49.775   1.677  16.326  0.00  0.00    +0.000 NA
ENDBRANCH  15  16
ENDBRANCH   9  10
ENDBRANCH   6   9
ENDBRANCH   2   3
BRANCH   2  18
ATOM     18  N   UNL     1      47.523   6.289  12.763  0.00  0.00    +0.000 N 
ATOM     19  C   UNL     1      46.482   6.691  11.965  0.00  0.00    +0.000 C 
ATOM     20  O   UNL     1      46.119   7.860  11.887  0.00  0.00    +0.000 OA
ATOM     21  H   UNL     1      47.549   5.310  13.036  0.00  0.00    +0.000 HD
BRANCH  19  22
ATOM     22  C   UNL     1      45.837   5.656  11.150  0.00  0.00    +0.000 A 
ATOM     23  C   UNL     1      45.937   5.720   9.767  0.00  0.00    +0.000 A 
ATOM     24  S   UNL     1      45.100   4.472   8.962  0.00  0.00    +0.000 S 
ATOM     25  C   UNL     1      44.551   3.821  10.434  0.00  0.00    +0.000 A 
ATOM     26  N   UNL     1      43.720   2.745  10.455  0.00  0.00    +0.000 NA
ATOM     27  C   UNL     1      43.360   2.372  11.638  0.00  0.00    +0.000 A 
ATOM     28  N   UNL     1      43.773   2.966  12.803  0.00  0.00    +0.000 N 
ATOM     29  C   UNL     1      44.648   4.027  12.832  0.00  0.00    +0.000 A 
ATOM     30  O   UNL     1      45.068   4.487  13.890  0.00  0.00    +0.000 OA
ATOM     31  C   UNL     1      45.041   4.516  11.526  0.00  0.00    +0.000 A 
ATOM     32  H   UNL     1      43.477   2.604  13.698  0.00  0.00    +0.000 HD
ENDBRANCH  19  22
ENDBRANCH   2  18
TORSDOF 6
ENDMDL
MODEL 4
REMARK VINA RESULT:    -6.767      3.758      5.709
REMARK INTER + INTRA:         -10.572
REMARK INTER:                  -9.030
REMARK INTRA:                  -1.542
REMARK UNBOUND:                -1.431
REMARK  Name = 
REMARK  7 active torsions:
REMARK  status: ('A' for Active; 'I' for Inactive)
REMARK    1  A    between atoms: C_1  and  C_2
REMARK    2  A    between atoms: C_2  and  N_3
REMARK    3  A    between atoms: C_2  and  C_16
REMARK    4  A    between atoms: C_4  and  C_6
REMARK    5  A    between atoms: C_19  and  O_20
REMARK    6  A    between atoms: O_20  and  C_21
REMARK    7  A    between atoms: C_26  and  C_27
REMARK                            x       y       z     vdW  Elec       q    Type
REMARK                         _______ _______ _______ _____ _____    ______ ____
ROOT
ATOM      1  C   UNL     1      48.609   6.059  15.742  0.00  0.00    +0.000 C 
ATOM      2  C   UNL     1      48.632   7.082  14.599  0.00  0.00    +0.000 C 
ENDROOT
BRANCH   2   3
ATOM      3  C   UNL     1      47.668   6.597  13.524  0.00  0.00    +0.000 A 
ATOM      4  C   UNL     1      47.356   7.443  12.448  0.00  0.00    +0.000 A 
ATOM      5  C   UNL     1      46.381   7.081  11.516  0.00  0.00    +0.000 A 
ATOM      6  C   UNL     1      45.751   5.838  11.603  0.00  0.00    +0.000 A 
ATOM      7  C   UNL     1      46.039   4.997  12.677  0.00  0.00    +0.000 A 
ATOM      8  C   UNL     1      46.980   5.377  13.637  0.00  0.00    +0.000 A 
BRANCH   6   9
ATOM      9  O   UNL     1      44.789   5.381  10.730  0.00  0.00    +0.000 OA
BRANCH   9  10
ATOM     10  C   UNL     1      45.131   4.521   9.707  0.00  0.00    +0.000 A 
ATOM     11  C   UNL     1      46.016   4.881   8.679  0.00  0.00    +0.000 A 
ATOM     12  C   UNL     1      46.299   3.989   7.645  0.00  0.00    +0.000 A 
ATOM     13  C   UNL     1      45.754   2.709   7.666  0.00  0.00    +0.000 A 
ATOM     14  C   UNL     1      44.933   2.315   8.726  0.00  0.00    +0.000 A 
ATOM     15  C   UNL     1      44.614   3.218   9.753  0.00  0.00    +0.000 A 
BRANCH  15  16
ATOM     16  C   UNL     1      43.767   2.781  10.832  0.00  0.00    +0.000 C 
ATOM     17  N   UNL     1      43.116   2.422  11.723  0.00  0.00    +0.000 NA
ENDBRANCH  15  16
ENDBRANCH   9  10
ENDBRANCH   6   9
ENDBRANCH   2   3
BRANCH   2  18
ATOM     18  N   UNL     1      49.967   7.305  14.063  0.00  0.00    +0.000 N 
ATOM     19  C   UNL     1      50.611   8.511  14.188  0.00  0.00    +0.000 C 
ATOM     20  O   UNL     1      50.127   9.460  14.796  0.00  0.00    +0.000 OA
ATOM     21  H   UNL     1      50.251   6.705  13.294  0.00  0.00    +0.000 HD
BRANCH  19  22
ATOM     22  C   UNL     1      51.951   8.608  13.600  0.00  0.00    +0.000 A 
ATOM     23  C   UNL     1      53.020   8.980  14.403  0.00  0.00    +0.000 A 
ATOM     24  S   UNL     1      54.500   9.089  13.565  0.00  0.00    +0.000 S 
ATOM     25  C   UNL     1      53.757   8.671  12.094  0.00  0.00    +0.000 A 
ATOM     26  N   UNL     1      54.469   8.636  10.936  0.00  0.00    +0.000 NA
ATOM     27  C   UNL     1      53.774   8.331   9.891  0.00  0.00    +0.000 A 
ATOM     28  N   UNL     1      52.435   8.038   9.903  0.00  0.00    +0.000 N 
ATOM     29  C   UNL     1      51.684   8.017  11.056  0.00  0.00    +0.000 A 
ATOM     30  O   UNL     1      50.507   7.669  11.051  0.00  0.00    +0.000 OA
ATOM     31  C   UNL     1      52.408   8.403  12.250  0.00  0.00    +0.000 A 
ATOM     32  H   UNL     1      51.958   7.776   9.052  0.00  0.00    +0.000 HD
ENDBRANCH  19  22
ENDBRANCH   2  18
TORSDOF 6
ENDMDL
MODEL 5
REMARK VINA RESULT:    -6.713      2.318      3.131
REMARK INTER + INTRA:         -10.498
REMARK INTER:                  -8.878
REMARK INTRA:                  -1.620
REMARK UNBOUND:                -1.431
REMARK  Name = 
REMARK  7 active torsions:
REMARK  status: ('A' for Active; 'I' for Inactive)
REMARK    1  A    between atoms: C_1  and  C_2
REMARK    2  A    between atoms: C_2  and  N_3
REMARK    3  A    between atoms: C_2  and  C_16
REMARK    4  A    between atoms: C_4  and  C_6
REMARK    5  A    between atoms: C_19  and  O_20
REMARK    6  A    between atoms: O_20  and  C_21
REMARK    7  A    between atoms: C_26  and  C_27
REMARK                            x       y       z     vdW  Elec       q    Type
REMARK                         _______ _______ _______ _____ _____    ______ ____
ROOT
ATOM      1  C   UNL     1      49.044  10.136  14.438  0.00  0.00    +0.000 C 
ATOM      2  C   UNL     1      49.238   8.626  14.246  0.00  0.00    +0.000 C 
ENDROOT
BRANCH   2   3
ATOM      3  C   UNL     1      48.141   8.135  13.309  0.00  0.00    +0.000 A 
ATOM      4  C   UNL     1      46.868   8.723  13.374  0.00  0.00    +0.000 A 
ATOM      5  C   UNL     1      45.807   8.212  12.621  0.00  0.00    +0.000 A 
ATOM      6  C   UNL     1      46.018   7.151  11.740  0.00  0.00    +0.000 A 
ATOM      7  C   UNL     1      47.273   6.547  11.680  0.00  0.00    +0.000 A 
ATOM      8  C   UNL     1      48.323   7.026  12.466  0.00  0.00    +0.000 A 
BRANCH   6   9
ATOM      9  O   UNL     1      45.046   6.584  10.945  0.00  0.00    +0.000 OA
BRANCH   9  10
ATOM     10  C   UNL     1      44.501   5.361  11.278  0.00  0.00    +0.000 A 
ATOM     11  C   UNL     1      43.788   5.149  12.468  0.00  0.00    +0.000 A 
ATOM     12  C   UNL     1      43.291   3.884  12.778  0.00  0.00    +0.000 A 
ATOM     13  C   UNL     1      43.442   2.838  11.872  0.00  0.00    +0.000 A 
ATOM     14  C   UNL     1      44.084   3.059  10.650  0.00  0.00    +0.000 A 
ATOM     15  C   UNL     1      44.619   4.321  10.344  0.00  0.00    +0.000 A 
BRANCH  15  16
ATOM     16  C   UNL     1      45.272   4.517   9.077  0.00  0.00    +0.000 C 
ATOM     17  N   UNL     1      45.823   4.697   8.072  0.00  0.00    +0.000 NA
ENDBRANCH  15  16
ENDBRANCH   9  10
ENDBRANCH   6   9
ENDBRANCH   2   3
BRANCH   2  18
ATOM     18  N   UNL     1      49.242   7.889  15.501  0.00  0.00    +0.000 N 
ATOM     19  C   UNL     1      50.363   7.243  15.963  0.00  0.00    +0.000 C 
ATOM     20  O   UNL     1      51.439   7.283  15.377  0.00  0.00    +0.000 OA
ATOM     21  H   UNL     1      48.342   7.549  15.829  0.00  0.00    +0.000 HD
BRANCH  19  22
ATOM     22  C   UNL     1      50.236   6.533  17.239  0.00  0.00    +0.000 A 
ATOM     23  C   UNL     1      50.995   6.944  18.325  0.00  0.00    +0.000 A 
ATOM     24  S   UNL     1      50.767   5.993  19.721  0.00  0.00    +0.000 S 
ATOM     25  C   UNL     1      49.667   4.979  18.912  0.00  0.00    +0.000 A 
ATOM     26  N   UNL     1      49.123   3.900  19.535  0.00  0.00    +0.000 NA
ATOM     27  C   UNL     1      48.326   3.202  18.795  0.00  0.00    +0.000 A 
ATOM     28  N   UNL     1      48.008   3.499  17.495  0.00  0.00    +0.000 N 
ATOM     29  C   UNL     1      48.498   4.605  16.839  0.00  0.00    +0.000 A 
ATOM     30  O   UNL     1      48.132   4.894  15.704  0.00  0.00    +0.000 OA
ATOM     31  C   UNL     1      49.439   5.391  17.611  0.00  0.00    +0.000 A 
ATOM     32  H   UNL     1      47.352   2.927  16.983  0.00  0.00    +0.000 HD
ENDBRANCH  19  22
ENDBRANCH   2  18
TORSDOF 6
ENDMDL
MODEL 6
REMARK VINA RESULT:    -6.679      3.401      4.859
REMARK INTER + INTRA:         -10.453
REMARK INTER:                  -9.305
REMARK INTRA:                  -1.148
REMARK UNBOUND:                -1.431
REMARK  Name = 
REMARK  7 active torsions:
REMARK  status: ('A' for Active; 'I' for Inactive)
REMARK    1  A    between atoms: C_1  and  C_2
REMARK    2  A    between atoms: C_2  and  N_3
REMARK    3  A    between atoms: C_2  and  C_16
REMARK    4  A    between atoms: C_4  and  C_6
REMARK    5  A    between atoms: C_19  and  O_20
REMARK    6  A    between atoms: O_20  and  C_21
REMARK    7  A    between atoms: C_26  and  C_27
REMARK                            x       y       z     vdW  Elec       q    Type
REMARK                         _______ _______ _______ _____ _____    ______ ____
ROOT
ATOM      1  C   UNL     1      48.210   7.210  18.156  0.00  0.00    +0.000 C 
ATOM      2  C   UNL     1      49.236   6.790  17.095  0.00  0.00    +0.000 C 
ENDROOT
BRANCH   2   3
ATOM      3  C   UNL     1      48.467   6.346  15.857  0.00  0.00    +0.000 A 
ATOM      4  C   UNL     1      47.749   5.140  15.892  0.00  0.00    +0.000 A 
ATOM      5  C   UNL     1      47.139   4.640  14.738  0.00  0.00    +0.000 A 
ATOM      6  C   UNL     1      47.178   5.371  13.549  0.00  0.00    +0.000 A 
ATOM      7  C   UNL     1      47.904   6.560  13.498  0.00  0.00    +0.000 A 
ATOM      8  C   UNL     1      48.553   7.039  14.639  0.00  0.00    +0.000 A 
BRANCH   6   9
ATOM      9  O   UNL     1      46.600   4.975  12.364  0.00  0.00    +0.000 OA
BRANCH   9  10
ATOM     10  C   UNL     1      45.232   5.031  12.204  0.00  0.00    +0.000 A 
ATOM     11  C   UNL     1      44.342   5.020  13.290  0.00  0.00    +0.000 A 
ATOM     12  C   UNL     1      42.965   5.039  13.075  0.00  0.00    +0.000 A 
ATOM     13  C   UNL     1      42.466   5.138  11.780  0.00  0.00    +0.000 A 
ATOM     14  C   UNL     1      43.346   5.227  10.697  0.00  0.00    +0.000 A 
ATOM     15  C   UNL     1      44.734   5.173  10.900  0.00  0.00    +0.000 A 
BRANCH  15  16
ATOM     16  C   UNL     1      45.613   5.270   9.765  0.00  0.00    +0.000 C 
ATOM     17  N   UNL     1      46.304   5.319   8.834  0.00  0.00    +0.000 NA
ENDBRANCH  15  16
ENDBRANCH   9  10
ENDBRANCH   6   9
ENDBRANCH   2   3
BRANCH   2  18
ATOM     18  N   UNL     1      50.147   5.755  17.563  0.00  0.00    +0.000 N 
ATOM     19  C   UNL     1      51.438   5.660  17.107  0.00  0.00    +0.000 C 
ATOM     20  O   UNL     1      51.922   6.462  16.316  0.00  0.00    +0.000 OA
ATOM     21  H   UNL     1      49.719   4.908  17.928  0.00  0.00    +0.000 HD
BRANCH  19  22
ATOM     22  C   UNL     1      52.252   4.570  17.654  0.00  0.00    +0.000 A 
ATOM     23  C   UNL     1      53.479   4.862  18.234  0.00  0.00    +0.000 A 
ATOM     24  S   UNL     1      54.322   3.486  18.783  0.00  0.00    +0.000 S 
ATOM     25  C   UNL     1      53.090   2.450  18.237  0.00  0.00    +0.000 A 
ATOM     26  N   UNL     1      53.210   1.100  18.350  0.00  0.00    +0.000 NA
ATOM     27  C   UNL     1      52.214   0.433  17.870  0.00  0.00    +0.000 A 
ATOM     28  N   UNL     1      51.097   0.996  17.307  0.00  0.00    +0.000 N 
ATOM     29  C   UNL     1      50.912   2.356  17.212  0.00  0.00    +0.000 A 
ATOM     30  O   UNL     1      49.867   2.834  16.780  0.00  0.00    +0.000 OA
ATOM     31  C   UNL     1      52.027   3.147  17.690  0.00  0.00    +0.000 A 
ATOM     32  H   UNL     1      50.339   0.415  16.979  0.00  0.00    +0.000 HD
ENDBRANCH  19  22
ENDBRANCH   2  18
TORSDOF 6
ENDMDL
MODEL 7
REMARK VINA RESULT:    -6.620      3.000      9.872
REMARK INTER + INTRA:         -10.373
REMARK INTER:                  -8.914
REMARK INTRA:                  -1.458
REMARK UNBOUND:                -1.431
REMARK  Name = 
REMARK  7 active torsions:
REMARK  status: ('A' for Active; 'I' for Inactive)
REMARK    1  A    between atoms: C_1  and  C_2
REMARK    2  A    between atoms: C_2  and  N_3
REMARK    3  A    between atoms: C_2  and  C_16
REMARK    4  A    between atoms: C_4  and  C_6
REMARK    5  A    between atoms: C_19  and  O_20
REMARK    6  A    between atoms: O_20  and  C_21
REMARK    7  A    between atoms: C_26  and  C_27
REMARK                            x       y       z     vdW  Elec       q    Type
REMARK                         _______ _______ _______ _____ _____    ______ ____
ROOT
ATOM      1  C   UNL     1      47.859   3.156  16.781  0.00  0.00    +0.000 C 
ATOM      2  C   UNL     1      48.049   4.560  16.192  0.00  0.00    +0.000 C 
ENDROOT
BRANCH   2   3
ATOM      3  C   UNL     1      47.998   5.556  17.344  0.00  0.00    +0.000 A 
ATOM      4  C   UNL     1      48.832   6.685  17.313  0.00  0.00    +0.000 A 
ATOM      5  C   UNL     1      48.902   7.549  18.409  0.00  0.00    +0.000 A 
ATOM      6  C   UNL     1      48.090   7.339  19.524  0.00  0.00    +0.000 A 
ATOM      7  C   UNL     1      47.271   6.211  19.574  0.00  0.00    +0.000 A 
ATOM      8  C   UNL     1      47.233   5.320  18.499  0.00  0.00    +0.000 A 
BRANCH   6   9
ATOM      9  O   UNL     1      48.074   8.136  20.647  0.00  0.00    +0.000 OA
BRANCH   9  10
ATOM     10  C   UNL     1      47.782   9.480  20.541  0.00  0.00    +0.000 A 
ATOM     11  C   UNL     1      46.537   9.951  20.095  0.00  0.00    +0.000 A 
ATOM     12  C   UNL     1      46.304  11.320  19.967  0.00  0.00    +0.000 A 
ATOM     13  C   UNL     1      47.286  12.229  20.349  0.00  0.00    +0.000 A 
ATOM     14  C   UNL     1      48.501  11.770  20.868  0.00  0.00    +0.000 A 
ATOM     15  C   UNL     1      48.758  10.393  20.966  0.00  0.00    +0.000 A 
BRANCH  15  16
ATOM     16  C   UNL     1      50.017   9.952  21.507  0.00  0.00    +0.000 C 
ATOM     17  N   UNL     1      51.022   9.561  21.935  0.00  0.00    +0.000 NA
ENDBRANCH  15  16
ENDBRANCH   9  10
ENDBRANCH   6   9
ENDBRANCH   2   3
BRANCH   2  18
ATOM     18  N   UNL     1      47.074   4.880  15.160  0.00  0.00    +0.000 N 
ATOM     19  C   UNL     1      47.411   5.592  14.035  0.00  0.00    +0.000 C 
ATOM     20  O   UNL     1      48.556   5.962  13.803  0.00  0.00    +0.000 OA
ATOM     21  H   UNL     1      46.100   4.903  15.450  0.00  0.00    +0.000 HD
BRANCH  19  22
ATOM     22  C   UNL     1      46.335   5.852  13.073  0.00  0.00    +0.000 A 
ATOM     23  C   UNL     1      46.062   7.160  12.695  0.00  0.00    +0.000 A 
ATOM     24  S   UNL     1      44.759   7.300  11.607  0.00  0.00    +0.000 S 
ATOM     25  C   UNL     1      44.494   5.621  11.626  0.00  0.00    +0.000 A 
ATOM     26  N   UNL     1      43.465   5.067  10.931  0.00  0.00    +0.000 NA
ATOM     27  C   UNL     1      43.365   3.786  11.056  0.00  0.00    +0.000 A 
ATOM     28  N   UNL     1      44.214   3.005  11.797  0.00  0.00    +0.000 N 
ATOM     29  C   UNL     1      45.295   3.516  12.479  0.00  0.00    +0.000 A 
ATOM     30  O   UNL     1      46.088   2.785  13.066  0.00  0.00    +0.000 OA
ATOM     31  C   UNL     1      45.420   4.957  12.412  0.00  0.00    +0.000 A 
ATOM     32  H   UNL     1      44.097   2.002  11.827  0.00  0.00    +0.000 HD
ENDBRANCH  19  22
ENDBRANCH   2  18
TORSDOF 6
ENDMDL
MODEL 8
REMARK VINA RESULT:    -6.442      2.970      8.955
REMARK INTER + INTRA:         -10.133
REMARK INTER:                  -9.020
REMARK INTRA:                  -1.112
REMARK UNBOUND:                -1.431
REMARK  Name = 
REMARK  7 active torsions:
REMARK  status: ('A' for Active; 'I' for Inactive)
REMARK    1  A    between atoms: C_1  and  C_2
REMARK    2  A    between atoms: C_2  and  N_3
REMARK    3  A    between atoms: C_2  and  C_16
REMARK    4  A    between atoms: C_4  and  C_6
REMARK    5  A    between atoms: C_19  and  O_20
REMARK    6  A    between atoms: O_20  and  C_21
REMARK    7  A    between atoms: C_26  and  C_27
REMARK                            x       y       z     vdW  Elec       q    Type
REMARK                         _______ _______ _______ _____ _____    ______ ____
ROOT
ATOM      1  C   UNL     1      48.962   7.782  11.485  0.00  0.00    +0.000 C 
ATOM      2  C   UNL     1      47.943   7.365  12.553  0.00  0.00    +0.000 C 
ENDROOT
BRANCH   2   3
ATOM      3  C   UNL     1      48.713   7.056  13.831  0.00  0.00    +0.000 A 
ATOM      4  C   UNL     1      48.104   6.279  14.829  0.00  0.00    +0.000 A 
ATOM      5  C   UNL     1      48.730   6.084  16.062  0.00  0.00    +0.000 A 
ATOM      6  C   UNL     1      50.005   6.603  16.294  0.00  0.00    +0.000 A 
ATOM      7  C   UNL     1      50.613   7.391  15.317  0.00  0.00    +0.000 A 
ATOM      8  C   UNL     1      49.968   7.626  14.100  0.00  0.00    +0.000 A 
BRANCH   6   9
ATOM      9  O   UNL     1      50.713   6.457  17.466  0.00  0.00    +0.000 OA
BRANCH   9  10
ATOM     10  C   UNL     1      51.693   5.491  17.571  0.00  0.00    +0.000 A 
ATOM     11  C   UNL     1      53.038   5.741  17.258  0.00  0.00    +0.000 A 
ATOM     12  C   UNL     1      53.984   4.721  17.343  0.00  0.00    +0.000 A 
ATOM     13  C   UNL     1      53.609   3.463  17.806  0.00  0.00    +0.000 A 
ATOM     14  C   UNL     1      52.286   3.227  18.194  0.00  0.00    +0.000 A 
ATOM     15  C   UNL     1      51.319   4.238  18.079  0.00  0.00    +0.000 A 
BRANCH  15  16
ATOM     16  C   UNL     1      49.967   3.964  18.489  0.00  0.00    +0.000 C 
ATOM     17  N   UNL     1      48.869   3.780  18.816  0.00  0.00    +0.000 NA
ENDBRANCH  15  16
ENDBRANCH   9  10
ENDBRANCH   6   9
ENDBRANCH   2   3
BRANCH   2  18
ATOM     18  N   UNL     1      47.114   6.242  12.140  0.00  0.00    +0.000 N 
ATOM     19  C   UNL     1      45.744   6.278  12.226  0.00  0.00    +0.000 C 
ATOM     20  O   UNL     1      45.130   7.268  12.610  0.00  0.00    +0.000 OA
ATOM     21  H   UNL     1      47.556   5.327  12.147  0.00  0.00    +0.000 HD
BRANCH  19  22
ATOM     22  C   UNL     1      45.024   5.081  11.782  0.00  0.00    +0.000 A 
ATOM     23  C   UNL     1      44.245   4.378  12.692  0.00  0.00    +0.000 A 
ATOM     24  S   UNL     1      43.509   2.989  12.034  0.00  0.00    +0.000 S 
ATOM     25  C   UNL     1      44.229   3.262  10.518  0.00  0.00    +0.000 A 
ATOM     26  N   UNL     1      44.050   2.389   9.492  0.00  0.00    +0.000 NA
ATOM     27  C   UNL     1      44.675   2.704   8.406  0.00  0.00    +0.000 A 
ATOM     28  N   UNL     1      45.447   3.827   8.249  0.00  0.00    +0.000 N 
ATOM     29  C   UNL     1      45.620   4.761   9.245  0.00  0.00    +0.000 A 
ATOM     30  O   UNL     1      46.247   5.798   9.051  0.00  0.00    +0.000 OA
ATOM     31  C   UNL     1      44.980   4.425  10.500  0.00  0.00    +0.000 A 
ATOM     32  H   UNL     1      45.884   4.030   7.362  0.00  0.00    +0.000 HD
ENDBRANCH  19  22
ENDBRANCH   2  18
TORSDOF 6
ENDMDL
MODEL 9
REMARK VINA RESULT:    -6.403      2.641      9.310
REMARK INTER + INTRA:         -10.080
REMARK INTER:                  -8.879
REMARK INTRA:                  -1.201
REMARK UNBOUND:                -1.431
REMARK  Name = 
REMARK  7 active torsions:
REMARK  status: ('A' for Active; 'I' for Inactive)
REMARK    1  A    between atoms: C_1  and  C_2
REMARK    2  A    between atoms: C_2  and  N_3
REMARK    3  A    between atoms: C_2  and  C_16
REMARK    4  A    between atoms: C_4  and  C_6
REMARK    5  A    between atoms: C_19  and  O_20
REMARK    6  A    between atoms: O_20  and  C_21
REMARK    7  A    between atoms: C_26  and  C_27
REMARK                            x       y       z     vdW  Elec       q    Type
REMARK                         _______ _______ _______ _____ _____    ______ ____
ROOT
ATOM      1  C   UNL     1      48.867   7.862  11.773  0.00  0.00    +0.000 C 
ATOM      2  C   UNL     1      47.631   7.695  12.665  0.00  0.00    +0.000 C 
ENDROOT
BRANCH   2   3
ATOM      3  C   UNL     1      48.099   7.721  14.115  0.00  0.00    +0.000 A 
ATOM      4  C   UNL     1      48.181   8.949  14.789  0.00  0.00    +0.000 A 
ATOM      5  C   UNL     1      48.726   9.023  16.073  0.00  0.00    +0.000 A 
ATOM      6  C   UNL     1      49.134   7.862  16.732  0.00  0.00    +0.000 A 
ATOM      7  C   UNL     1      49.076   6.639  16.066  0.00  0.00    +0.000 A 
ATOM      8  C   UNL     1      48.574   6.569  14.764  0.00  0.00    +0.000 A 
BRANCH   6   9
ATOM      9  O   UNL     1      49.671   7.825  18.000  0.00  0.00    +0.000 OA
BRANCH   9  10
ATOM     10  C   UNL     1      49.161   6.961  18.946  0.00  0.00    +0.000 A 
ATOM     11  C   UNL     1      47.837   7.039  19.406  0.00  0.00    +0.000 A 
ATOM     12  C   UNL     1      47.380   6.167  20.393  0.00  0.00    +0.000 A 
ATOM     13  C   UNL     1      48.219   5.167  20.878  0.00  0.00    +0.000 A 
ATOM     14  C   UNL     1      49.514   5.034  20.370  0.00  0.00    +0.000 A 
ATOM     15  C   UNL     1      49.995   5.930  19.402  0.00  0.00    +0.000 A 
BRANCH  15  16
ATOM     16  C   UNL     1      51.333   5.764  18.897  0.00  0.00    +0.000 C 
ATOM     17  N   UNL     1      52.409   5.665  18.474  0.00  0.00    +0.000 NA
ENDBRANCH  15  16
ENDBRANCH   9  10
ENDBRANCH   6   9
ENDBRANCH   2   3
BRANCH   2  18
ATOM     18  N   UNL     1      46.872   6.489  12.367  0.00  0.00    +0.000 N 
ATOM     19  C   UNL     1      45.586   6.536  11.890  0.00  0.00    +0.000 C 
ATOM     20  O   UNL     1      45.009   7.589  11.642  0.00  0.00    +0.000 OA
ATOM     21  H   UNL     1      47.156   5.644  12.855  0.00  0.00    +0.000 HD
BRANCH  19  22
ATOM     22  C   UNL     1      44.930   5.249  11.633  0.00  0.00    +0.000 A 
ATOM     23  C   UNL     1      44.203   4.642  12.647  0.00  0.00    +0.000 A 
ATOM     24  S   UNL     1      43.540   3.135  12.206  0.00  0.00    +0.000 S 
ATOM     25  C   UNL     1      44.227   3.229  10.654  0.00  0.00    +0.000 A 
ATOM     26  N   UNL     1      44.088   2.210   9.765  0.00  0.00    +0.000 NA
ATOM     27  C   UNL     1      44.683   2.402   8.635  0.00  0.00    +0.000 A 
ATOM     28  N   UNL     1      45.388   3.531   8.306  0.00  0.00    +0.000 N 
ATOM     29  C   UNL     1      45.518   4.605   9.156  0.00  0.00    +0.000 A 
ATOM     30  O   UNL     1      46.083   5.637   8.807  0.00  0.00    +0.000 OA
ATOM     31  C   UNL     1      44.910   4.416  10.458  0.00  0.00    +0.000 A 
ATOM     32  H   UNL     1      45.804   3.630   7.391  0.00  0.00    +0.000 HD
ENDBRANCH  19  22
ENDBRANCH   2  18
TORSDOF 6
ENDMDL
