MODEL 1
REMARK VINA RESULT:    -7.469      0.000      0.000
REMARK INTER + INTRA:         -10.996
REMARK INTER:                 -10.088
REMARK INTRA:                  -0.907
REMARK UNBOUND:                -0.907
REMARK  Name = 
REMARK  7 active torsions:
REMARK  status: ('A' for Active; 'I' for Inactive)
REMARK    1  A    between atoms: C_1  and  N_2
REMARK    2  A    between atoms: C_6  and  C_7
REMARK    3  A    between atoms: N_9  and  C_10
REMARK    4  A    between atoms: C_10  and  C_11
REMARK    5  A    between atoms: C_14  and  C_15
REMARK    6  A    between atoms: C_15  and  N_16
REMARK    7  A    between atoms: C_17  and  C_19
REMARK                            x       y       z     vdW  Elec       q    Type
REMARK                         _______ _______ _______ _____ _____    ______ ____
ROOT
ATOM      1  C   UNL     1      47.203   7.786  13.406  0.00  0.00    +0.000 A 
ATOM      2  C   UNL     1      47.420   6.456  13.023  0.00  0.00    +0.000 A 
ATOM      3  C   UNL     1      46.531   5.809  12.156  0.00  0.00    +0.000 A 
ATOM      4  C   UNL     1      45.417   6.484  11.640  0.00  0.00    +0.000 A 
ATOM      5  C   UNL     1      45.196   7.811  12.031  0.00  0.00    +0.000 A 
ATOM      6  C   UNL     1      46.085   8.459  12.897  0.00  0.00    +0.000 A 
ENDROOT
BRANCH   1   7
ATOM      7  C   UNL     1      48.143   8.471  14.362  0.00  0.00    +0.000 C 
BRANCH   7  10
ATOM      8  C   UNL     1      48.908   7.043  16.185  0.00  0.00    +0.000 C 
ATOM      9  O   UNL     1      49.800   6.580  15.479  0.00  0.00    +0.000 OA
ATOM     10  N   UNL     1      48.030   7.993  15.716  0.00  0.00    +0.000 N 
ATOM     11  H   UNL     1      47.303   8.339  16.337  0.00  0.00    +0.000 HD
BRANCH   8  17
ATOM     12  C   UNL     1      46.768   9.037  22.208  0.00  0.00    +0.000 C 
ATOM     13  N   UNL     1      47.277   8.405  21.008  0.00  0.00    +0.000 N 
ATOM     14  C   UNL     1      47.326   9.093  19.809  0.00  0.00    +0.000 A 
ATOM     15  N   UNL     1      47.753   8.653  18.663  0.00  0.00    +0.000 NA
ATOM     16  C   UNL     1      48.208   7.321  18.698  0.00  0.00    +0.000 A 
ATOM     17  C   UNL     1      48.725   6.611  17.571  0.00  0.00    +0.000 A 
ATOM     18  C   UNL     1      49.078   5.325  17.967  0.00  0.00    +0.000 A 
ATOM     19  S   UNL     1      48.789   5.015  19.626  0.00  0.00    +0.000 S 
ATOM     20  C   UNL     1      48.191   6.580  19.850  0.00  0.00    +0.000 A 
ATOM     21  C   UNL     1      47.714   7.085  21.106  0.00  0.00    +0.000 A 
ATOM     22  O   UNL     1      47.683   6.452  22.159  0.00  0.00    +0.000 OA
ENDBRANCH   8  17
ENDBRANCH   7  10
ENDBRANCH   1   7
BRANCH   4  23
ATOM     23  C   UNL     1      44.491   5.809  10.663  0.00  0.00    +0.000 C 
BRANCH  23  24
ATOM     24  N   UNL     1      45.181   5.048   9.652  0.00  0.00    +0.000 N 
ATOM     25  C   UNL     1      44.869   3.721   9.439  0.00  0.00    +0.000 C 
ATOM     26  O   UNL     1      44.019   3.113  10.084  0.00  0.00    +0.000 OA
ATOM     27  H   UNL     1      45.857   5.486   9.032  0.00  0.00    +0.000 HD
BRANCH  25  28
ATOM     28  C   UNL     1      45.633   3.037   8.359  0.00  0.00    +0.000 A 
ATOM     29  C   UNL     1      45.975   1.698   8.495  0.00  0.00    +0.000 A 
ATOM     30  N   UNL     1      46.681   1.027   7.548  0.00  0.00    +0.000 NA
ATOM     31  C   UNL     1      47.034   1.758   6.467  0.00  0.00    +0.000 A 
ATOM     32  C   UNL     1      46.694   3.098   6.331  0.00  0.00    +0.000 A 
ATOM     33  N   UNL     1      45.982   3.775   7.264  0.00  0.00    +0.000 NA
ENDBRANCH  25  28
ENDBRANCH  23  24
ENDBRANCH   4  23
TORSDOF 6
ENDMDL
MODEL 2
REMARK VINA RESULT:    -7.357      1.635      2.188
REMARK INTER + INTRA:         -10.845
REMARK INTER:                 -10.018
REMARK INTRA:                  -0.827
REMARK UNBOUND:                -0.907
REMARK  Name = 
REMARK  7 active torsions:
REMARK  status: ('A' for Active; 'I' for Inactive)
REMARK    1  A    between atoms: C_1  and  N_2
REMARK    2  A    between atoms: C_6  and  C_7
REMARK    3  A    between atoms: N_9  and  C_10
REMARK    4  A    between atoms: C_10  and  C_11
REMARK    5  A    between atoms: C_14  and  C_15
REMARK    6  A    between atoms: C_15  and  N_16
REMARK    7  A    between atoms: C_17  and  C_19
REMARK                            x       y       z     vdW  Elec       q    Type
REMARK                         _______ _______ _______ _____ _____    ______ ____
ROOT
ATOM      1  C   UNL     1      46.625   8.020  12.898  0.00  0.00    +0.000 A 
ATOM      2  C   UNL     1      46.984   6.666  12.890  0.00  0.00    +0.000 A 
ATOM      3  C   UNL     1      46.230   5.732  12.171  0.00  0.00    +0.000 A 
ATOM      4  C   UNL     1      45.109   6.135  11.431  0.00  0.00    +0.000 A 
ATOM      5  C   UNL     1      44.746   7.488  11.448  0.00  0.00    +0.000 A 
ATOM      6  C   UNL     1      45.501   8.422  12.166  0.00  0.00    +0.000 A 
ENDROOT
BRANCH   1   7
ATOM      7  C   UNL     1      47.420   9.019  13.696  0.00  0.00    +0.000 C 
BRANCH   7  10
ATOM      8  C   UNL     1      48.206   9.491  15.955  0.00  0.00    +0.000 C 
ATOM      9  O   UNL     1      48.983  10.345  15.532  0.00  0.00    +0.000 OA
ATOM     10  N   UNL     1      47.383   8.776  15.116  0.00  0.00    +0.000 N 
ATOM     11  H   UNL     1      46.765   8.075  15.514  0.00  0.00    +0.000 HD
BRANCH   8  17
ATOM     12  C   UNL     1      48.716   4.554  20.449  0.00  0.00    +0.000 C 
ATOM     13  N   UNL     1      48.556   5.756  19.657  0.00  0.00    +0.000 N 
ATOM     14  C   UNL     1      48.717   5.729  18.283  0.00  0.00    +0.000 A 
ATOM     15  N   UNL     1      48.606   6.724  17.455  0.00  0.00    +0.000 NA
ATOM     16  C   UNL     1      48.285   7.947  18.074  0.00  0.00    +0.000 A 
ATOM     17  C   UNL     1      48.109   9.185  17.383  0.00  0.00    +0.000 A 
ATOM     18  C   UNL     1      47.800  10.181  18.304  0.00  0.00    +0.000 A 
ATOM     19  S   UNL     1      47.731   9.621  19.921  0.00  0.00    +0.000 S 
ATOM     20  C   UNL     1      48.110   8.048  19.429  0.00  0.00    +0.000 A 
ATOM     21  C   UNL     1      48.237   6.936  20.327  0.00  0.00    +0.000 A 
ATOM     22  O   UNL     1      48.088   6.987  21.546  0.00  0.00    +0.000 OA
ENDBRANCH   8  17
ENDBRANCH   7  10
ENDBRANCH   1   7
BRANCH   4  23
ATOM     23  C   UNL     1      44.330   5.141  10.611  0.00  0.00    +0.000 C 
BRANCH  23  24
ATOM     24  N   UNL     1      45.086   4.579   9.520  0.00  0.00    +0.000 N 
ATOM     25  C   UNL     1      45.010   3.231   9.236  0.00  0.00    +0.000 C 
ATOM     26  O   UNL     1      44.325   2.441   9.880  0.00  0.00    +0.000 OA
ATOM     27  H   UNL     1      45.632   5.169   8.899  0.00  0.00    +0.000 HD
BRANCH  25  28
ATOM     28  C   UNL     1      45.821   2.763   8.078  0.00  0.00    +0.000 A 
ATOM     29  C   UNL     1      46.358   1.481   8.083  0.00  0.00    +0.000 A 
ATOM     30  N   UNL     1      47.115   1.006   7.061  0.00  0.00    +0.000 NA
ATOM     31  C   UNL     1      47.315   1.871   6.041  0.00  0.00    +0.000 A 
ATOM     32  C   UNL     1      46.779   3.152   6.035  0.00  0.00    +0.000 A 
ATOM     33  N   UNL     1      46.015   3.635   7.046  0.00  0.00    +0.000 NA
ENDBRANCH  25  28
ENDBRANCH  23  24
ENDBRANCH   4  23
TORSDOF 6
ENDMDL
MODEL 3
REMARK VINA RESULT:    -7.338      2.068      2.453
REMARK INTER + INTRA:         -10.820
REMARK INTER:                  -9.920
REMARK INTRA:                  -0.900
REMARK UNBOUND:                -0.907
REMARK  Name = 
REMARK  7 active torsions:
REMARK  status: ('A' for Active; 'I' for Inactive)
REMARK    1  A    between atoms: C_1  and  N_2
REMARK    2  A    between atoms: C_6  and  C_7
REMARK    3  A    between atoms: N_9  and  C_10
REMARK    4  A    between atoms: C_10  and  C_11
REMARK    5  A    between atoms: C_14  and  C_15
REMARK    6  A    between atoms: C_15  and  N_16
REMARK    7  A    between atoms: C_17  and  C_19
REMARK                            x       y       z     vdW  Elec       q    Type
REMARK                         _______ _______ _______ _____ _____    ______ ____
ROOT
ATOM      1  C   UNL     1      46.618   7.734  13.184  0.00  0.00    +0.000 A 
ATOM      2  C   UNL     1      46.833   6.350  13.206  0.00  0.00    +0.000 A 
ATOM      3  C   UNL     1      46.060   5.494  12.413  0.00  0.00    +0.000 A 
ATOM      4  C   UNL     1      45.067   6.007  11.567  0.00  0.00    +0.000 A 
ATOM      5  C   UNL     1      44.847   7.391  11.552  0.00  0.00    +0.000 A 
ATOM      6  C   UNL     1      45.621   8.247  12.345  0.00  0.00    +0.000 A 
ENDROOT
BRANCH   1   7
ATOM      7  C   UNL     1      47.431   8.650  14.060  0.00  0.00    +0.000 C 
BRANCH   7  10
ATOM      8  C   UNL     1      49.543   7.771  14.904  0.00  0.00    +0.000 C 
ATOM      9  O   UNL     1      50.139   8.189  13.913  0.00  0.00    +0.000 OA
ATOM     10  N   UNL     1      48.189   7.953  15.068  0.00  0.00    +0.000 N 
ATOM     11  H   UNL     1      47.741   7.581  15.901  0.00  0.00    +0.000 HD
BRANCH   8  17
ATOM     12  C   UNL     1      48.647   4.564  20.712  0.00  0.00    +0.000 C 
ATOM     13  N   UNL     1      49.064   5.210  19.485  0.00  0.00    +0.000 N 
ATOM     14  C   UNL     1      48.142   5.823  18.655  0.00  0.00    +0.000 A 
ATOM     15  N   UNL     1      48.374   6.434  17.532  0.00  0.00    +0.000 NA
ATOM     16  C   UNL     1      49.731   6.446  17.160  0.00  0.00    +0.000 A 
ATOM     17  C   UNL     1      50.241   7.053  15.971  0.00  0.00    +0.000 A 
ATOM     18  C   UNL     1      51.620   6.876  15.925  0.00  0.00    +0.000 A 
ATOM     19  S   UNL     1      52.245   6.014  17.266  0.00  0.00    +0.000 S 
ATOM     20  C   UNL     1      50.699   5.861  17.932  0.00  0.00    +0.000 A 
ATOM     21  C   UNL     1      50.422   5.190  19.171  0.00  0.00    +0.000 A 
ATOM     22  O   UNL     1      51.262   4.653  19.890  0.00  0.00    +0.000 OA
ENDBRANCH   8  17
ENDBRANCH   7  10
ENDBRANCH   1   7
BRANCH   4  23
ATOM     23  C   UNL     1      44.272   5.095  10.670  0.00  0.00    +0.000 C 
BRANCH  23  24
ATOM     24  N   UNL     1      45.068   4.460   9.650  0.00  0.00    +0.000 N 
ATOM     25  C   UNL     1      44.866   3.132   9.329  0.00  0.00    +0.000 C 
ATOM     26  O   UNL     1      44.032   2.422   9.882  0.00  0.00    +0.000 OA
ATOM     27  H   UNL     1      45.740   4.988   9.100  0.00  0.00    +0.000 HD
BRANCH  25  28
ATOM     28  C   UNL     1      45.734   2.585   8.250  0.00  0.00    +0.000 A 
ATOM     29  C   UNL     1      46.056   3.376   7.154  0.00  0.00    +0.000 A 
ATOM     30  N   UNL     1      46.832   2.926   6.134  0.00  0.00    +0.000 NA
ATOM     31  C   UNL     1      47.263   1.650   6.258  0.00  0.00    +0.000 A 
ATOM     32  C   UNL     1      46.940   0.858   7.352  0.00  0.00    +0.000 A 
ATOM     33  N   UNL     1      46.174   1.299   8.380  0.00  0.00    +0.000 NA
ENDBRANCH  25  28
ENDBRANCH  23  24
ENDBRANCH   4  23
TORSDOF 6
ENDMDL
MODEL 4
REMARK VINA RESULT:    -6.731      3.107      3.840
REMARK INTER + INTRA:          -9.999
REMARK INTER:                  -9.268
REMARK INTRA:                  -0.731
REMARK UNBOUND:                -0.907
REMARK  Name = 
REMARK  7 active torsions:
REMARK  status: ('A' for Active; 'I' for Inactive)
REMARK    1  A    between atoms: C_1  and  N_2
REMARK    2  A    between atoms: C_6  and  C_7
REMARK    3  A    between atoms: N_9  and  C_10
REMARK    4  A    between atoms: C_10  and  C_11
REMARK    5  A    between atoms: C_14  and  C_15
REMARK    6  A    between atoms: C_15  and  N_16
REMARK    7  A    between atoms: C_17  and  C_19
REMARK                            x       y       z     vdW  Elec       q    Type
REMARK                         _______ _______ _______ _____ _____    ______ ____
ROOT
ATOM      1  C   UNL     1      47.165   8.275  13.002  0.00  0.00    +0.000 A 
ATOM      2  C   UNL     1      47.722   7.262  12.211  0.00  0.00    +0.000 A 
ATOM      3  C   UNL     1      46.903   6.401  11.472  0.00  0.00    +0.000 A 
ATOM      4  C   UNL     1      45.509   6.548  11.493  0.00  0.00    +0.000 A 
ATOM      5  C   UNL     1      44.953   7.556  12.291  0.00  0.00    +0.000 A 
ATOM      6  C   UNL     1      45.772   8.417  13.029  0.00  0.00    +0.000 A 
ENDROOT
BRANCH   1   7
ATOM      7  C   UNL     1      48.047   9.181  13.820  0.00  0.00    +0.000 C 
BRANCH   7  10
ATOM      8  C   UNL     1      49.565   8.211  15.463  0.00  0.00    +0.000 C 
ATOM      9  O   UNL     1      48.734   8.363  16.355  0.00  0.00    +0.000 OA
ATOM     10  N   UNL     1      49.314   8.588  14.164  0.00  0.00    +0.000 N 
ATOM     11  H   UNL     1      50.038   8.448  13.463  0.00  0.00    +0.000 HD
BRANCH   8  17
ATOM     12  C   UNL     1      52.629   2.987  18.320  0.00  0.00    +0.000 C 
ATOM     13  N   UNL     1      52.178   4.189  17.649  0.00  0.00    +0.000 N 
ATOM     14  C   UNL     1      50.830   4.488  17.556  0.00  0.00    +0.000 A 
ATOM     15  N   UNL     1      50.289   5.523  16.985  0.00  0.00    +0.000 NA
ATOM     16  C   UNL     1      51.219   6.410  16.412  0.00  0.00    +0.000 A 
ATOM     17  C   UNL     1      50.876   7.617  15.729  0.00  0.00    +0.000 A 
ATOM     18  C   UNL     1      52.041   8.242  15.296  0.00  0.00    +0.000 A 
ATOM     19  S   UNL     1      53.469   7.391  15.707  0.00  0.00    +0.000 S 
ATOM     20  C   UNL     1      52.569   6.179  16.468  0.00  0.00    +0.000 A 
ATOM     21  C   UNL     1      53.147   5.029  17.103  0.00  0.00    +0.000 A 
ATOM     22  O   UNL     1      54.351   4.787  17.173  0.00  0.00    +0.000 OA
ENDBRANCH   8  17
ENDBRANCH   7  10
ENDBRANCH   1   7
BRANCH   4  23
ATOM     23  C   UNL     1      44.628   5.660  10.653  0.00  0.00    +0.000 C 
BRANCH  23  24
ATOM     24  N   UNL     1      45.349   4.927   9.644  0.00  0.00    +0.000 N 
ATOM     25  C   UNL     1      44.925   3.674   9.251  0.00  0.00    +0.000 C 
ATOM     26  O   UNL     1      43.944   3.111   9.728  0.00  0.00    +0.000 OA
ATOM     27  H   UNL     1      46.137   5.341   9.154  0.00  0.00    +0.000 HD
BRANCH  25  28
ATOM     28  C   UNL     1      45.736   3.016   8.189  0.00  0.00    +0.000 A 
ATOM     29  C   UNL     1      46.121   1.689   8.337  0.00  0.00    +0.000 A 
ATOM     30  N   UNL     1      46.871   1.041   7.408  0.00  0.00    +0.000 NA
ATOM     31  C   UNL     1      47.222   1.782   6.332  0.00  0.00    +0.000 A 
ATOM     32  C   UNL     1      46.838   3.108   6.184  0.00  0.00    +0.000 A 
ATOM     33  N   UNL     1      46.083   3.763   7.101  0.00  0.00    +0.000 NA
ENDBRANCH  25  28
ENDBRANCH  23  24
ENDBRANCH   4  23
TORSDOF 6
ENDMDL
MODEL 5
REMARK VINA RESULT:    -6.437      3.386      9.677
REMARK INTER + INTRA:          -9.602
REMARK INTER:                  -8.558
REMARK INTRA:                  -1.044
REMARK UNBOUND:                -0.907
REMARK  Name = 
REMARK  7 active torsions:
REMARK  status: ('A' for Active; 'I' for Inactive)
REMARK    1  A    between atoms: C_1  and  N_2
REMARK    2  A    between atoms: C_6  and  C_7
REMARK    3  A    between atoms: N_9  and  C_10
REMARK    4  A    between atoms: C_10  and  C_11
REMARK    5  A    between atoms: C_14  and  C_15
REMARK    6  A    between atoms: C_15  and  N_16
REMARK    7  A    between atoms: C_17  and  C_19
REMARK                            x       y       z     vdW  Elec       q    Type
REMARK                         _______ _______ _______ _____ _____    ______ ____
ROOT
ATOM      1  C   UNL     1      48.062   8.129  13.601  0.00  0.00    +0.000 A 
ATOM      2  C   UNL     1      49.216   7.338  13.516  0.00  0.00    +0.000 A 
ATOM      3  C   UNL     1      50.042   7.158  14.631  0.00  0.00    +0.000 A 
ATOM      4  C   UNL     1      49.723   7.751  15.860  0.00  0.00    +0.000 A 
ATOM      5  C   UNL     1      48.574   8.549  15.942  0.00  0.00    +0.000 A 
ATOM      6  C   UNL     1      47.747   8.728  14.827  0.00  0.00    +0.000 A 
ENDROOT
BRANCH   1   7
ATOM      7  C   UNL     1      47.191   8.345  12.393  0.00  0.00    +0.000 C 
BRANCH   7  10
ATOM      8  C   UNL     1      45.401   6.708  12.142  0.00  0.00    +0.000 C 
ATOM      9  O   UNL     1      44.672   7.355  12.890  0.00  0.00    +0.000 OA
ATOM     10  N   UNL     1      46.676   7.122  11.832  0.00  0.00    +0.000 N 
ATOM     11  H   UNL     1      47.243   6.546  11.215  0.00  0.00    +0.000 HD
BRANCH   8  17
ATOM     12  C   UNL     1      45.875   2.932   6.633  0.00  0.00    +0.000 C 
ATOM     13  N   UNL     1      45.633   3.584   7.903  0.00  0.00    +0.000 N 
ATOM     14  C   UNL     1      46.216   4.803   8.199  0.00  0.00    +0.000 A 
ATOM     15  N   UNL     1      46.089   5.494   9.292  0.00  0.00    +0.000 NA
ATOM     16  C   UNL     1      45.253   4.894  10.252  0.00  0.00    +0.000 A 
ATOM     17  C   UNL     1      44.955   5.455  11.532  0.00  0.00    +0.000 A 
ATOM     18  C   UNL     1      44.100   4.596  12.217  0.00  0.00    +0.000 A 
ATOM     19  S   UNL     1      43.693   3.187  11.334  0.00  0.00    +0.000 S 
ATOM     20  C   UNL     1      44.641   3.689  10.027  0.00  0.00    +0.000 A 
ATOM     21  C   UNL     1      44.795   2.940   8.813  0.00  0.00    +0.000 A 
ATOM     22  O   UNL     1      44.264   1.857   8.575  0.00  0.00    +0.000 OA
ENDBRANCH   8  17
ENDBRANCH   7  10
ENDBRANCH   1   7
BRANCH   4  23
ATOM     23  C   UNL     1      50.579   7.513  17.076  0.00  0.00    +0.000 C 
BRANCH  23  24
ATOM     24  N   UNL     1      51.131   6.183  17.136  0.00  0.00    +0.000 N 
ATOM     25  C   UNL     1      50.394   5.142  17.664  0.00  0.00    +0.000 C 
ATOM     26  O   UNL     1      49.261   5.276  18.116  0.00  0.00    +0.000 OA
ATOM     27  H   UNL     1      52.038   5.970  16.731  0.00  0.00    +0.000 HD
BRANCH  25  28
ATOM     28  C   UNL     1      51.057   3.809  17.661  0.00  0.00    +0.000 A 
ATOM     29  C   UNL     1      50.340   2.682  17.276  0.00  0.00    +0.000 A 
ATOM     30  N   UNL     1      50.889   1.439  17.266  0.00  0.00    +0.000 NA
ATOM     31  C   UNL     1      52.180   1.376  17.663  0.00  0.00    +0.000 A 
ATOM     32  C   UNL     1      52.896   2.502  18.048  0.00  0.00    +0.000 A 
ATOM     33  N   UNL     1      52.362   3.748  18.054  0.00  0.00    +0.000 NA
ENDBRANCH  25  28
ENDBRANCH  23  24
ENDBRANCH   4  23
TORSDOF 6
ENDMDL
MODEL 6
REMARK VINA RESULT:    -6.312      4.598      6.818
REMARK INTER + INTRA:          -9.433
REMARK INTER:                  -8.841
REMARK INTRA:                  -0.593
REMARK UNBOUND:                -0.907
REMARK  Name = 
REMARK  7 active torsions:
REMARK  status: ('A' for Active; 'I' for Inactive)
REMARK    1  A    between atoms: C_1  and  N_2
REMARK    2  A    between atoms: C_6  and  C_7
REMARK    3  A    between atoms: N_9  and  C_10
REMARK    4  A    between atoms: C_10  and  C_11
REMARK    5  A    between atoms: C_14  and  C_15
REMARK    6  A    between atoms: C_15  and  N_16
REMARK    7  A    between atoms: C_17  and  C_19
REMARK                            x       y       z     vdW  Elec       q    Type
REMARK                         _______ _______ _______ _____ _____    ______ ____
ROOT
ATOM      1  C   UNL     1      45.772   6.077  13.077  0.00  0.00    +0.000 A 
ATOM      2  C   UNL     1      46.378   7.340  13.109  0.00  0.00    +0.000 A 
ATOM      3  C   UNL     1      45.855   8.402  12.363  0.00  0.00    +0.000 A 
ATOM      4  C   UNL     1      44.703   8.229  11.584  0.00  0.00    +0.000 A 
ATOM      5  C   UNL     1      44.102   6.963  11.546  0.00  0.00    +0.000 A 
ATOM      6  C   UNL     1      44.625   5.901  12.293  0.00  0.00    +0.000 A 
ENDROOT
BRANCH   1   7
ATOM      7  C   UNL     1      46.354   4.928  13.856  0.00  0.00    +0.000 C 
BRANCH   7  10
ATOM      8  C   UNL     1      47.570   4.491  15.924  0.00  0.00    +0.000 C 
ATOM      9  O   UNL     1      47.069   3.372  16.010  0.00  0.00    +0.000 OA
ATOM     10  N   UNL     1      47.276   5.341  14.884  0.00  0.00    +0.000 N 
ATOM     11  H   UNL     1      47.710   6.260  14.862  0.00  0.00    +0.000 HD
BRANCH   8  17
ATOM     12  C   UNL     1      53.306   3.082  19.078  0.00  0.00    +0.000 C 
ATOM     13  N   UNL     1      52.063   3.578  18.524  0.00  0.00    +0.000 N 
ATOM     14  C   UNL     1      51.379   2.860  17.558  0.00  0.00    +0.000 A 
ATOM     15  N   UNL     1      50.263   3.185  16.977  0.00  0.00    +0.000 NA
ATOM     16  C   UNL     1      49.729   4.412  17.412  0.00  0.00    +0.000 A 
ATOM     17  C   UNL     1      48.515   4.986  16.926  0.00  0.00    +0.000 A 
ATOM     18  C   UNL     1      48.293   6.198  17.574  0.00  0.00    +0.000 A 
ATOM     19  S   UNL     1      49.509   6.600  18.710  0.00  0.00    +0.000 S 
ATOM     20  C   UNL     1      50.351   5.175  18.365  0.00  0.00    +0.000 A 
ATOM     21  C   UNL     1      51.585   4.799  18.995  0.00  0.00    +0.000 A 
ATOM     22  O   UNL     1      52.173   5.456  19.852  0.00  0.00    +0.000 OA
ENDBRANCH   8  17
ENDBRANCH   7  10
ENDBRANCH   1   7
BRANCH   4  23
ATOM     23  C   UNL     1      44.104   9.385  10.826  0.00  0.00    +0.000 C 
BRANCH  23  24
ATOM     24  N   UNL     1      42.800   9.769  11.304  0.00  0.00    +0.000 N 
ATOM     25  C   UNL     1      41.985  10.580  10.540  0.00  0.00    +0.000 C 
ATOM     26  O   UNL     1      42.310  11.026   9.444  0.00  0.00    +0.000 OA
ATOM     27  H   UNL     1      42.426   9.397  12.173  0.00  0.00    +0.000 HD
BRANCH  25  28
ATOM     28  C   UNL     1      40.653  10.899  11.125  0.00  0.00    +0.000 A 
ATOM     29  C   UNL     1      39.733   9.881  11.346  0.00  0.00    +0.000 A 
ATOM     30  N   UNL     1      38.499  10.115  11.864  0.00  0.00    +0.000 NA
ATOM     31  C   UNL     1      38.228  11.410  12.144  0.00  0.00    +0.000 A 
ATOM     32  C   UNL     1      39.146  12.428  11.923  0.00  0.00    +0.000 A 
ATOM     33  N   UNL     1      40.383  12.206  11.414  0.00  0.00    +0.000 NA
ENDBRANCH  25  28
ENDBRANCH  23  24
ENDBRANCH   4  23
TORSDOF 6
ENDMDL
MODEL 7
REMARK VINA RESULT:    -6.249      3.207      4.889
REMARK INTER + INTRA:          -9.348
REMARK INTER:                  -8.337
REMARK INTRA:                  -1.011
REMARK UNBOUND:                -0.907
REMARK  Name = 
REMARK  7 active torsions:
REMARK  status: ('A' for Active; 'I' for Inactive)
REMARK    1  A    between atoms: C_1  and  N_2
REMARK    2  A    between atoms: C_6  and  C_7
REMARK    3  A    between atoms: N_9  and  C_10
REMARK    4  A    between atoms: C_10  and  C_11
REMARK    5  A    between atoms: C_14  and  C_15
REMARK    6  A    between atoms: C_15  and  N_16
REMARK    7  A    between atoms: C_17  and  C_19
REMARK                            x       y       z     vdW  Elec       q    Type
REMARK                         _______ _______ _______ _____ _____    ______ ____
ROOT
ATOM      1  C   UNL     1      46.374   7.663  12.880  0.00  0.00    +0.000 A 
ATOM      2  C   UNL     1      45.104   7.858  12.320  0.00  0.00    +0.000 A 
ATOM      3  C   UNL     1      44.403   6.789  11.751  0.00  0.00    +0.000 A 
ATOM      4  C   UNL     1      44.949   5.498  11.745  0.00  0.00    +0.000 A 
ATOM      5  C   UNL     1      46.222   5.306  12.297  0.00  0.00    +0.000 A 
ATOM      6  C   UNL     1      46.923   6.374  12.867  0.00  0.00    +0.000 A 
ENDROOT
BRANCH   1   7
ATOM      7  C   UNL     1      47.139   8.819  13.465  0.00  0.00    +0.000 C 
BRANCH   7  10
ATOM      8  C   UNL     1      48.871   8.556  15.162  0.00  0.00    +0.000 C 
ATOM      9  O   UNL     1      48.092   8.908  16.045  0.00  0.00    +0.000 OA
ATOM     10  N   UNL     1      48.488   8.480  13.843  0.00  0.00    +0.000 N 
ATOM     11  H   UNL     1      49.172   8.192  13.149  0.00  0.00    +0.000 HD
BRANCH   8  17
ATOM     12  C   UNL     1      55.024   8.182  12.548  0.00  0.00    +0.000 C 
ATOM     13  N   UNL     1      53.790   8.183  13.306  0.00  0.00    +0.000 N 
ATOM     14  C   UNL     1      52.600   8.592  12.728  0.00  0.00    +0.000 A 
ATOM     15  N   UNL     1      51.429   8.645  13.287  0.00  0.00    +0.000 NA
ATOM     16  C   UNL     1      51.419   8.229  14.632  0.00  0.00    +0.000 A 
ATOM     17  C   UNL     1      50.257   8.196  15.462  0.00  0.00    +0.000 A 
ATOM     18  C   UNL     1      50.614   7.734  16.726  0.00  0.00    +0.000 A 
ATOM     19  S   UNL     1      52.279   7.364  16.875  0.00  0.00    +0.000 S 
ATOM     20  C   UNL     1      52.557   7.810  15.268  0.00  0.00    +0.000 A 
ATOM     21  C   UNL     1      53.843   7.759  14.633  0.00  0.00    +0.000 A 
ATOM     22  O   UNL     1      54.886   7.390  15.170  0.00  0.00    +0.000 OA
ENDBRANCH   8  17
ENDBRANCH   7  10
ENDBRANCH   1   7
BRANCH   4  23
ATOM     23  C   UNL     1      44.172   4.336  11.184  0.00  0.00    +0.000 C 
BRANCH  23  24
ATOM     24  N   UNL     1      44.965   3.464  10.355  0.00  0.00    +0.000 N 
ATOM     25  C   UNL     1      45.068   3.692   8.997  0.00  0.00    +0.000 C 
ATOM     26  O   UNL     1      44.500   4.614   8.420  0.00  0.00    +0.000 OA
ATOM     27  H   UNL     1      45.517   2.712  10.757  0.00  0.00    +0.000 HD
BRANCH  25  28
ATOM     28  C   UNL     1      45.927   2.738   8.241  0.00  0.00    +0.000 A 
ATOM     29  C   UNL     1      45.832   1.375   8.491  0.00  0.00    +0.000 A 
ATOM     30  N   UNL     1      46.598   0.461   7.841  0.00  0.00    +0.000 NA
ATOM     31  C   UNL     1      47.465   0.973   6.938  0.00  0.00    +0.000 A 
ATOM     32  C   UNL     1      47.561   2.336   6.689  0.00  0.00    +0.000 A 
ATOM     33  N   UNL     1      46.796   3.257   7.325  0.00  0.00    +0.000 NA
ENDBRANCH  25  28
ENDBRANCH  23  24
ENDBRANCH   4  23
TORSDOF 6
ENDMDL
MODEL 8
REMARK VINA RESULT:    -6.156      6.365      9.951
REMARK INTER + INTRA:          -9.223
REMARK INTER:                  -8.236
REMARK INTRA:                  -0.988
REMARK UNBOUND:                -0.907
REMARK  Name = 
REMARK  7 active torsions:
REMARK  status: ('A' for Active; 'I' for Inactive)
REMARK    1  A    between atoms: C_1  and  N_2
REMARK    2  A    between atoms: C_6  and  C_7
REMARK    3  A    between atoms: N_9  and  C_10
REMARK    4  A    between atoms: C_10  and  C_11
REMARK    5  A    between atoms: C_14  and  C_15
REMARK    6  A    between atoms: C_15  and  N_16
REMARK    7  A    between atoms: C_17  and  C_19
REMARK                            x       y       z     vdW  Elec       q    Type
REMARK                         _______ _______ _______ _____ _____    ______ ____
ROOT
ATOM      1  C   UNL     1      50.863   8.456  12.182  0.00  0.00    +0.000 A 
ATOM      2  C   UNL     1      49.813   7.738  11.596  0.00  0.00    +0.000 A 
ATOM      3  C   UNL     1      48.931   6.991  12.385  0.00  0.00    +0.000 A 
ATOM      4  C   UNL     1      49.070   6.961  13.779  0.00  0.00    +0.000 A 
ATOM      5  C   UNL     1      50.126   7.673  14.364  0.00  0.00    +0.000 A 
ATOM      6  C   UNL     1      51.008   8.421  13.575  0.00  0.00    +0.000 A 
ENDROOT
BRANCH   1   7
ATOM      7  C   UNL     1      51.829   9.235  11.329  0.00  0.00    +0.000 C 
BRANCH   7  10
ATOM      8  C   UNL     1      53.316   7.696  10.160  0.00  0.00    +0.000 C 
ATOM      9  O   UNL     1      53.971   7.515  11.184  0.00  0.00    +0.000 OA
ATOM     10  N   UNL     1      52.228   8.537  10.133  0.00  0.00    +0.000 N 
ATOM     11  H   UNL     1      51.724   8.660   9.259  0.00  0.00    +0.000 HD
BRANCH   8  17
ATOM     12  C   UNL     1      53.745   8.570   3.536  0.00  0.00    +0.000 C 
ATOM     13  N   UNL     1      53.722   8.166   4.926  0.00  0.00    +0.000 N 
ATOM     14  C   UNL     1      53.344   9.054   5.919  0.00  0.00    +0.000 A 
ATOM     15  N   UNL     1      53.279   8.828   7.196  0.00  0.00    +0.000 NA
ATOM     16  C   UNL     1      53.644   7.519   7.564  0.00  0.00    +0.000 A 
ATOM     17  C   UNL     1      53.656   7.026   8.904  0.00  0.00    +0.000 A 
ATOM     18  C   UNL     1      54.066   5.696   8.897  0.00  0.00    +0.000 A 
ATOM     19  S   UNL     1      54.414   5.096   7.332  0.00  0.00    +0.000 S 
ATOM     20  C   UNL     1      54.027   6.587   6.636  0.00  0.00    +0.000 A 
ATOM     21  C   UNL     1      54.093   6.856   5.227  0.00  0.00    +0.000 A 
ATOM     22  O   UNL     1      54.431   6.048   4.365  0.00  0.00    +0.000 OA
ENDBRANCH   8  17
ENDBRANCH   7  10
ENDBRANCH   1   7
BRANCH   4  23
ATOM     23  C   UNL     1      48.088   6.205  14.635  0.00  0.00    +0.000 C 
BRANCH  23  24
ATOM     24  N   UNL     1      46.861   5.884  13.952  0.00  0.00    +0.000 N 
ATOM     25  C   UNL     1      46.578   4.580  13.596  0.00  0.00    +0.000 C 
ATOM     26  O   UNL     1      47.333   3.639  13.818  0.00  0.00    +0.000 OA
ATOM     27  H   UNL     1      46.152   6.591  13.781  0.00  0.00    +0.000 HD
BRANCH  25  28
ATOM     28  C   UNL     1      45.275   4.362  12.909  0.00  0.00    +0.000 A 
ATOM     29  C   UNL     1      45.122   3.287  12.042  0.00  0.00    +0.000 A 
ATOM     30  N   UNL     1      43.962   3.046  11.378  0.00  0.00    +0.000 NA
ATOM     31  C   UNL     1      42.967   3.931  11.617  0.00  0.00    +0.000 A 
ATOM     32  C   UNL     1      43.119   5.006  12.483  0.00  0.00    +0.000 A 
ATOM     33  N   UNL     1      44.270   5.252  13.157  0.00  0.00    +0.000 NA
ENDBRANCH  25  28
ENDBRANCH  23  24
ENDBRANCH   4  23
TORSDOF 6
ENDMDL
MODEL 9
REMARK VINA RESULT:    -6.086      6.333      9.834
REMARK INTER + INTRA:          -9.129
REMARK INTER:                  -8.188
REMARK INTRA:                  -0.941
REMARK UNBOUND:                -0.907
REMARK  Name = 
REMARK  7 active torsions:
REMARK  status: ('A' for Active; 'I' for Inactive)
REMARK    1  A    between atoms: C_1  and  N_2
REMARK    2  A    between atoms: C_6  and  C_7
REMARK    3  A    between atoms: N_9  and  C_10
REMARK    4  A    between atoms: C_10  and  C_11
REMARK    5  A    between atoms: C_14  and  C_15
REMARK    6  A    between atoms: C_15  and  N_16
REMARK    7  A    between atoms: C_17  and  C_19
REMARK                            x       y       z     vdW  Elec       q    Type
REMARK                         _______ _______ _______ _____ _____    ______ ____
ROOT
ATOM      1  C   UNL     1      50.759   8.891  12.370  0.00  0.00    +0.000 A 
ATOM      2  C   UNL     1      50.068   7.832  11.767  0.00  0.00    +0.000 A 
ATOM      3  C   UNL     1      49.253   6.985  12.528  0.00  0.00    +0.000 A 
ATOM      4  C   UNL     1      49.099   7.190  13.906  0.00  0.00    +0.000 A 
ATOM      5  C   UNL     1      49.798   8.244  14.510  0.00  0.00    +0.000 A 
ATOM      6  C   UNL     1      50.612   9.091  13.749  0.00  0.00    +0.000 A 
ENDROOT
BRANCH   1   7
ATOM      7  C   UNL     1      51.658   9.782  11.556  0.00  0.00    +0.000 C 
BRANCH   7  10
ATOM      8  C   UNL     1      52.637   9.979   9.331  0.00  0.00    +0.000 C 
ATOM      9  O   UNL     1      52.810  11.185   9.489  0.00  0.00    +0.000 OA
ATOM     10  N   UNL     1      52.069   9.193  10.307  0.00  0.00    +0.000 N 
ATOM     11  H   UNL     1      51.939   8.201  10.125  0.00  0.00    +0.000 HD
BRANCH   8  17
ATOM     12  C   UNL     1      54.008   3.993   6.663  0.00  0.00    +0.000 C 
ATOM     13  N   UNL     1      53.756   5.371   7.030  0.00  0.00    +0.000 N 
ATOM     14  C   UNL     1      53.393   5.707   8.323  0.00  0.00    +0.000 A 
ATOM     15  N   UNL     1      53.136   6.893   8.787  0.00  0.00    +0.000 NA
ATOM     16  C   UNL     1      53.255   7.919   7.830  0.00  0.00    +0.000 A 
ATOM     17  C   UNL     1      53.026   9.304   8.092  0.00  0.00    +0.000 A 
ATOM     18  C   UNL     1      53.234  10.029   6.923  0.00  0.00    +0.000 A 
ATOM     19  S   UNL     1      53.685   9.059   5.586  0.00  0.00    +0.000 S 
ATOM     20  C   UNL     1      53.613   7.660   6.533  0.00  0.00    +0.000 A 
ATOM     21  C   UNL     1      53.892   6.342   6.039  0.00  0.00    +0.000 A 
ATOM     22  O   UNL     1      54.214   6.070   4.884  0.00  0.00    +0.000 OA
ENDBRANCH   8  17
ENDBRANCH   7  10
ENDBRANCH   1   7
BRANCH   4  23
ATOM     23  C   UNL     1      48.179   6.316  14.717  0.00  0.00    +0.000 C 
BRANCH  23  24
ATOM     24  N   UNL     1      46.937   6.018  14.049  0.00  0.00    +0.000 N 
ATOM     25  C   UNL     1      46.612   4.717  13.722  0.00  0.00    +0.000 C 
ATOM     26  O   UNL     1      47.341   3.758  13.958  0.00  0.00    +0.000 OA
ATOM     27  H   UNL     1      46.248   6.743  13.870  0.00  0.00    +0.000 HD
BRANCH  25  28
ATOM     28  C   UNL     1      45.298   4.523  13.050  0.00  0.00    +0.000 A 
ATOM     29  C   UNL     1      44.430   5.599  12.906  0.00  0.00    +0.000 A 
ATOM     30  N   UNL     1      43.214   5.479  12.314  0.00  0.00    +0.000 NA
ATOM     31  C   UNL     1      42.905   4.236  11.879  0.00  0.00    +0.000 A 
ATOM     32  C   UNL     1      43.771   3.160  12.023  0.00  0.00    +0.000 A 
ATOM     33  N   UNL     1      44.990   3.270  12.606  0.00  0.00    +0.000 NA
ENDBRANCH  25  28
ENDBRANCH  23  24
ENDBRANCH   4  23
TORSDOF 6
ENDMDL
