MODEL 1
REMARK VINA RESULT:    -8.673      0.000      0.000
REMARK INTER + INTRA:         -12.123
REMARK INTER:                 -11.208
REMARK INTRA:                  -0.915
REMARK UNBOUND:                -0.915
REMARK  Name = 
REMARK  5 active torsions:
REMARK  status: ('A' for Active; 'I' for Inactive)
REMARK    1  A    between atoms: C_2  and  C_3
REMARK    2  A    between atoms: C_8  and  C_9
REMARK    3  A    between atoms: C_9  and  N_10
REMARK    4  A    between atoms: N_10  and  C_11
REMARK    5  A    between atoms: C_16  and  C_17
REMARK                            x       y       z     vdW  Elec       q    Type
REMARK                         _______ _______ _______ _____ _____    ______ ____
ROOT
ATOM      1  C   UNL     1      43.829   4.893  10.481  0.00  0.00    +0.000 A 
ATOM      2  C   UNL     1      43.244   3.929  11.301  0.00  0.00    +0.000 A 
ATOM      3  C   UNL     1      43.496   2.582  11.077  0.00  0.00    +0.000 A 
ATOM      4  F   UNL     1      42.964   1.667  11.898  0.00  0.00    +0.000 F 
ATOM      5  C   UNL     1      44.302   2.162  10.023  0.00  0.00    +0.000 A 
ATOM      6  C   UNL     1      44.887   3.099   9.158  0.00  0.00    +0.000 A 
ATOM      7  C   UNL     1      44.615   4.460   9.403  0.00  0.00    +0.000 A 
ENDROOT
BRANCH   6   8
ATOM      8  C   UNL     1      45.794   2.698   8.058  0.00  0.00    +0.000 A 
ATOM      9  C   UNL     1      46.103   3.574   6.999  0.00  0.00    +0.000 A 
ATOM     10  C   UNL     1      47.029   3.227   6.009  0.00  0.00    +0.000 A 
ATOM     11  C   UNL     1      47.650   1.984   6.043  0.00  0.00    +0.000 A 
ATOM     12  C   UNL     1      47.341   1.085   7.060  0.00  0.00    +0.000 A 
ATOM     13  C   UNL     1      46.427   1.441   8.056  0.00  0.00    +0.000 A 
ENDBRANCH   6   8
BRANCH   1  14
ATOM     14  N   UNL     1      43.525   6.243  10.716  0.00  0.00    +0.000 N 
ATOM     15  H   UNL     1      43.977   6.815  10.001  0.00  0.00    +0.000 HD
BRANCH  14  16
ATOM     16  C   UNL     1      43.812   6.765  12.052  0.00  0.00    +0.000 C 
BRANCH  16  22
ATOM     17  C   UNL     1      46.919   5.244  13.713  0.00  0.00    +0.000 A 
ATOM     18  C   UNL     1      47.937   5.970  13.094  0.00  0.00    +0.000 A 
ATOM     19  C   UNL     1      47.607   6.923  12.139  0.00  0.00    +0.000 A 
ATOM     20  F   UNL     1      48.584   7.608  11.530  0.00  0.00    +0.000 F 
ATOM     21  C   UNL     1      46.283   7.185  11.805  0.00  0.00    +0.000 A 
ATOM     22  C   UNL     1      45.247   6.484  12.438  0.00  0.00    +0.000 A 
ATOM     23  C   UNL     1      45.583   5.486  13.370  0.00  0.00    +0.000 A 
BRANCH  17  25
ATOM     24  N   UNL     1      47.506   3.478  15.520  0.00  0.00    +0.000 NA
ATOM     25  C   UNL     1      47.237   4.265  14.708  0.00  0.00    +0.000 C 
ENDBRANCH  17  25
ENDBRANCH  16  22
ENDBRANCH  14  16
ENDBRANCH   1  14
TORSDOF 5
ENDMDL
MODEL 2
REMARK VINA RESULT:    -8.129      1.788      2.245
REMARK INTER + INTRA:         -11.420
REMARK INTER:                 -10.423
REMARK INTRA:                  -0.998
REMARK UNBOUND:                -0.915
REMARK  Name = 
REMARK  5 active torsions:
REMARK  status: ('A' for Active; 'I' for Inactive)
REMARK    1  A    between atoms: C_2  and  C_3
REMARK    2  A    between atoms: C_8  and  C_9
REMARK    3  A    between atoms: C_9  and  N_10
REMARK    4  A    between atoms: N_10  and  C_11
REMARK    5  A    between atoms: C_16  and  C_17
REMARK                            x       y       z     vdW  Elec       q    Type
REMARK                         _______ _______ _______ _____ _____    ______ ____
ROOT
ATOM      1  C   UNL     1      44.211   5.110  10.480  0.00  0.00    +0.000 A 
ATOM      2  C   UNL     1      43.496   4.207  11.267  0.00  0.00    +0.000 A 
ATOM      3  C   UNL     1      43.567   2.846  11.000  0.00  0.00    +0.000 A 
ATOM      4  F   UNL     1      42.912   1.985  11.788  0.00  0.00    +0.000 F 
ATOM      5  C   UNL     1      44.316   2.357   9.933  0.00  0.00    +0.000 A 
ATOM      6  C   UNL     1      45.027   3.234   9.101  0.00  0.00    +0.000 A 
ATOM      7  C   UNL     1      44.938   4.610   9.390  0.00  0.00    +0.000 A 
ENDROOT
BRANCH   6   8
ATOM      8  C   UNL     1      45.880   2.750   7.990  0.00  0.00    +0.000 A 
ATOM      9  C   UNL     1      46.199   3.573   6.892  0.00  0.00    +0.000 A 
ATOM     10  C   UNL     1      47.075   3.146   5.889  0.00  0.00    +0.000 A 
ATOM     11  C   UNL     1      47.635   1.875   5.949  0.00  0.00    +0.000 A 
ATOM     12  C   UNL     1      47.314   1.029   7.006  0.00  0.00    +0.000 A 
ATOM     13  C   UNL     1      46.450   1.464   8.015  0.00  0.00    +0.000 A 
ENDBRANCH   6   8
BRANCH   1  14
ATOM     14  N   UNL     1      44.090   6.481  10.758  0.00  0.00    +0.000 N 
ATOM     15  H   UNL     1      44.692   7.004  10.121  0.00  0.00    +0.000 HD
BRANCH  14  16
ATOM     16  C   UNL     1      44.315   6.899  12.142  0.00  0.00    +0.000 C 
BRANCH  16  22
ATOM     17  C   UNL     1      48.137   7.064  12.440  0.00  0.00    +0.000 A 
ATOM     18  C   UNL     1      48.373   6.083  13.404  0.00  0.00    +0.000 A 
ATOM     19  C   UNL     1      47.297   5.399  13.956  0.00  0.00    +0.000 A 
ATOM     20  F   UNL     1      47.520   4.471  14.895  0.00  0.00    +0.000 F 
ATOM     21  C   UNL     1      45.992   5.655  13.550  0.00  0.00    +0.000 A 
ATOM     22  C   UNL     1      45.740   6.617  12.561  0.00  0.00    +0.000 A 
ATOM     23  C   UNL     1      46.825   7.342  12.038  0.00  0.00    +0.000 A 
BRANCH  17  25
ATOM     24  N   UNL     1      50.125   8.337  11.366  0.00  0.00    +0.000 NA
ATOM     25  C   UNL     1      49.233   7.772  11.852  0.00  0.00    +0.000 C 
ENDBRANCH  17  25
ENDBRANCH  16  22
ENDBRANCH  14  16
ENDBRANCH   1  14
TORSDOF 5
ENDMDL
MODEL 3
REMARK VINA RESULT:    -8.081      2.001      2.940
REMARK INTER + INTRA:         -11.358
REMARK INTER:                 -10.509
REMARK INTRA:                  -0.849
REMARK UNBOUND:                -0.915
REMARK  Name = 
REMARK  5 active torsions:
REMARK  status: ('A' for Active; 'I' for Inactive)
REMARK    1  A    between atoms: C_2  and  C_3
REMARK    2  A    between atoms: C_8  and  C_9
REMARK    3  A    between atoms: C_9  and  N_10
REMARK    4  A    between atoms: N_10  and  C_11
REMARK    5  A    between atoms: C_16  and  C_17
REMARK                            x       y       z     vdW  Elec       q    Type
REMARK                         _______ _______ _______ _____ _____    ______ ____
ROOT
ATOM      1  C   UNL     1      44.384   5.141  10.652  0.00  0.00    +0.000 A 
ATOM      2  C   UNL     1      43.635   4.252  11.421  0.00  0.00    +0.000 A 
ATOM      3  C   UNL     1      43.628   2.899  11.108  0.00  0.00    +0.000 A 
ATOM      4  F   UNL     1      42.941   2.048  11.881  0.00  0.00    +0.000 F 
ATOM      5  C   UNL     1      44.332   2.406  10.013  0.00  0.00    +0.000 A 
ATOM      6  C   UNL     1      45.075   3.271   9.197  0.00  0.00    +0.000 A 
ATOM      7  C   UNL     1      45.065   4.640   9.532  0.00  0.00    +0.000 A 
ENDROOT
BRANCH   6   8
ATOM      8  C   UNL     1      45.882   2.780   8.056  0.00  0.00    +0.000 A 
ATOM      9  C   UNL     1      46.191   3.610   6.960  0.00  0.00    +0.000 A 
ATOM     10  C   UNL     1      47.027   3.173   5.925  0.00  0.00    +0.000 A 
ATOM     11  C   UNL     1      47.554   1.887   5.953  0.00  0.00    +0.000 A 
ATOM     12  C   UNL     1      47.241   1.035   7.008  0.00  0.00    +0.000 A 
ATOM     13  C   UNL     1      46.418   1.480   8.048  0.00  0.00    +0.000 A 
ENDBRANCH   6   8
BRANCH   1  14
ATOM     14  N   UNL     1      44.341   6.506  10.976  0.00  0.00    +0.000 N 
ATOM     15  H   UNL     1      44.786   7.040  10.229  0.00  0.00    +0.000 HD
BRANCH  14  16
ATOM     16  C   UNL     1      44.879   6.895  12.280  0.00  0.00    +0.000 C 
BRANCH  16  22
ATOM     17  C   UNL     1      47.363   9.811  12.053  0.00  0.00    +0.000 A 
ATOM     18  C   UNL     1      48.561   9.127  11.846  0.00  0.00    +0.000 A 
ATOM     19  C   UNL     1      48.553   7.739  11.803  0.00  0.00    +0.000 A 
ATOM     20  F   UNL     1      49.705   7.079  11.624  0.00  0.00    +0.000 F 
ATOM     21  C   UNL     1      47.371   7.018  11.937  0.00  0.00    +0.000 A 
ATOM     22  C   UNL     1      46.154   7.691  12.116  0.00  0.00    +0.000 A 
ATOM     23  C   UNL     1      46.170   9.094  12.208  0.00  0.00    +0.000 A 
BRANCH  17  25
ATOM     24  N   UNL     1      47.327  12.404  12.128  0.00  0.00    +0.000 NA
ATOM     25  C   UNL     1      47.349  11.242  12.090  0.00  0.00    +0.000 C 
ENDBRANCH  17  25
ENDBRANCH  16  22
ENDBRANCH  14  16
ENDBRANCH   1  14
TORSDOF 5
ENDMDL
MODEL 4
REMARK VINA RESULT:    -8.039      2.041      2.569
REMARK INTER + INTRA:         -11.304
REMARK INTER:                 -10.512
REMARK INTRA:                  -0.792
REMARK UNBOUND:                -0.915
REMARK  Name = 
REMARK  5 active torsions:
REMARK  status: ('A' for Active; 'I' for Inactive)
REMARK    1  A    between atoms: C_2  and  C_3
REMARK    2  A    between atoms: C_8  and  C_9
REMARK    3  A    between atoms: C_9  and  N_10
REMARK    4  A    between atoms: N_10  and  C_11
REMARK    5  A    between atoms: C_16  and  C_17
REMARK                            x       y       z     vdW  Elec       q    Type
REMARK                         _______ _______ _______ _____ _____    ______ ____
ROOT
ATOM      1  C   UNL     1      44.396   5.127  10.677  0.00  0.00    +0.000 A 
ATOM      2  C   UNL     1      43.619   4.234  11.415  0.00  0.00    +0.000 A 
ATOM      3  C   UNL     1      43.591   2.890  11.069  0.00  0.00    +0.000 A 
ATOM      4  F   UNL     1      42.876   2.034  11.811  0.00  0.00    +0.000 F 
ATOM      5  C   UNL     1      44.300   2.409   9.972  0.00  0.00    +0.000 A 
ATOM      6  C   UNL     1      45.071   3.279   9.187  0.00  0.00    +0.000 A 
ATOM      7  C   UNL     1      45.083   4.640   9.555  0.00  0.00    +0.000 A 
ENDROOT
BRANCH   6   8
ATOM      8  C   UNL     1      45.884   2.800   8.045  0.00  0.00    +0.000 A 
ATOM      9  C   UNL     1      46.165   3.628   6.940  0.00  0.00    +0.000 A 
ATOM     10  C   UNL     1      47.005   3.205   5.905  0.00  0.00    +0.000 A 
ATOM     11  C   UNL     1      47.566   1.934   5.940  0.00  0.00    +0.000 A 
ATOM     12  C   UNL     1      47.282   1.083   7.003  0.00  0.00    +0.000 A 
ATOM     13  C   UNL     1      46.453   1.514   8.044  0.00  0.00    +0.000 A 
ENDBRANCH   6   8
BRANCH   1  14
ATOM     14  N   UNL     1      44.375   6.484  11.034  0.00  0.00    +0.000 N 
ATOM     15  H   UNL     1      44.815   7.031  10.293  0.00  0.00    +0.000 HD
BRANCH  14  16
ATOM     16  C   UNL     1      44.938   6.835  12.338  0.00  0.00    +0.000 C 
BRANCH  16  22
ATOM     17  C   UNL     1      48.397   8.392  11.756  0.00  0.00    +0.000 A 
ATOM     18  C   UNL     1      48.100   9.752  11.865  0.00  0.00    +0.000 A 
ATOM     19  C   UNL     1      46.790  10.145  12.103  0.00  0.00    +0.000 A 
ATOM     20  F   UNL     1      46.500  11.449  12.188  0.00  0.00    +0.000 F 
ATOM     21  C   UNL     1      45.772   9.210  12.260  0.00  0.00    +0.000 A 
ATOM     22  C   UNL     1      46.058   7.840  12.184  0.00  0.00    +0.000 A 
ATOM     23  C   UNL     1      47.376   7.444  11.895  0.00  0.00    +0.000 A 
BRANCH  17  25
ATOM     24  N   UNL     1      50.835   7.625  11.318  0.00  0.00    +0.000 NA
ATOM     25  C   UNL     1      49.743   7.967  11.522  0.00  0.00    +0.000 C 
ENDBRANCH  17  25
ENDBRANCH  16  22
ENDBRANCH  14  16
ENDBRANCH   1  14
TORSDOF 5
ENDMDL
MODEL 5
REMARK VINA RESULT:    -7.480      2.005      3.364
REMARK INTER + INTRA:         -10.582
REMARK INTER:                  -9.997
REMARK INTRA:                  -0.585
REMARK UNBOUND:                -0.915
REMARK  Name = 
REMARK  5 active torsions:
REMARK  status: ('A' for Active; 'I' for Inactive)
REMARK    1  A    between atoms: C_2  and  C_3
REMARK    2  A    between atoms: C_8  and  C_9
REMARK    3  A    between atoms: C_9  and  N_10
REMARK    4  A    between atoms: N_10  and  C_11
REMARK    5  A    between atoms: C_16  and  C_17
REMARK                            x       y       z     vdW  Elec       q    Type
REMARK                         _______ _______ _______ _____ _____    ______ ____
ROOT
ATOM      1  C   UNL     1      45.069   5.042  12.825  0.00  0.00    +0.000 A 
ATOM      2  C   UNL     1      43.730   5.429  12.843  0.00  0.00    +0.000 A 
ATOM      3  C   UNL     1      42.929   5.210  11.730  0.00  0.00    +0.000 A 
ATOM      4  F   UNL     1      41.634   5.546  11.773  0.00  0.00    +0.000 F 
ATOM      5  C   UNL     1      43.444   4.636  10.571  0.00  0.00    +0.000 A 
ATOM      6  C   UNL     1      44.793   4.258  10.502  0.00  0.00    +0.000 A 
ATOM      7  C   UNL     1      45.586   4.492  11.643  0.00  0.00    +0.000 A 
ENDROOT
BRANCH   6   8
ATOM      8  C   UNL     1      45.366   3.594   9.308  0.00  0.00    +0.000 A 
ATOM      9  C   UNL     1      45.914   4.336   8.243  0.00  0.00    +0.000 A 
ATOM     10  C   UNL     1      46.534   3.707   7.158  0.00  0.00    +0.000 A 
ATOM     11  C   UNL     1      46.601   2.320   7.103  0.00  0.00    +0.000 A 
ATOM     12  C   UNL     1      46.041   1.561   8.126  0.00  0.00    +0.000 A 
ATOM     13  C   UNL     1      45.435   2.192   9.216  0.00  0.00    +0.000 A 
ENDBRANCH   6   8
BRANCH   1  14
ATOM     14  N   UNL     1      45.857   5.309  13.956  0.00  0.00    +0.000 N 
ATOM     15  H   UNL     1      45.447   6.091  14.470  0.00  0.00    +0.000 HD
BRANCH  14  16
ATOM     16  C   UNL     1      47.285   5.532  13.731  0.00  0.00    +0.000 C 
BRANCH  16  22
ATOM     17  C   UNL     1      46.747   9.043  12.280  0.00  0.00    +0.000 A 
ATOM     18  C   UNL     1      48.011   9.312  11.754  0.00  0.00    +0.000 A 
ATOM     19  C   UNL     1      49.020   8.368  11.892  0.00  0.00    +0.000 A 
ATOM     20  F   UNL     1      50.239   8.632  11.404  0.00  0.00    +0.000 F 
ATOM     21  C   UNL     1      48.789   7.150  12.522  0.00  0.00    +0.000 A 
ATOM     22  C   UNL     1      47.517   6.851  13.031  0.00  0.00    +0.000 A 
ATOM     23  C   UNL     1      46.510   7.828  12.933  0.00  0.00    +0.000 A 
BRANCH  17  25
ATOM     24  N   UNL     1      44.838  10.782  12.035  0.00  0.00    +0.000 NA
ATOM     25  C   UNL     1      45.692   9.999  12.139  0.00  0.00    +0.000 C 
ENDBRANCH  17  25
ENDBRANCH  16  22
ENDBRANCH  14  16
ENDBRANCH   1  14
TORSDOF 5
ENDMDL
MODEL 6
REMARK VINA RESULT:    -7.272      2.862      4.019
REMARK INTER + INTRA:         -10.313
REMARK INTER:                  -9.693
REMARK INTRA:                  -0.619
REMARK UNBOUND:                -0.915
REMARK  Name = 
REMARK  5 active torsions:
REMARK  status: ('A' for Active; 'I' for Inactive)
REMARK    1  A    between atoms: C_2  and  C_3
REMARK    2  A    between atoms: C_8  and  C_9
REMARK    3  A    between atoms: C_9  and  N_10
REMARK    4  A    between atoms: N_10  and  C_11
REMARK    5  A    between atoms: C_16  and  C_17
REMARK                            x       y       z     vdW  Elec       q    Type
REMARK                         _______ _______ _______ _____ _____    ______ ____
ROOT
ATOM      1  C   UNL     1      44.864   4.570  13.047  0.00  0.00    +0.000 A 
ATOM      2  C   UNL     1      43.604   5.166  13.019  0.00  0.00    +0.000 A 
ATOM      3  C   UNL     1      42.889   5.222  11.831  0.00  0.00    +0.000 A 
ATOM      4  F   UNL     1      41.662   5.758  11.825  0.00  0.00    +0.000 F 
ATOM      5  C   UNL     1      43.416   4.720  10.644  0.00  0.00    +0.000 A 
ATOM      6  C   UNL     1      44.692   4.137  10.624  0.00  0.00    +0.000 A 
ATOM      7  C   UNL     1      45.401   4.094  11.841  0.00  0.00    +0.000 A 
ENDROOT
BRANCH   6   8
ATOM      8  C   UNL     1      45.268   3.542   9.395  0.00  0.00    +0.000 A 
ATOM      9  C   UNL     1      45.788   4.344   8.361  0.00  0.00    +0.000 A 
ATOM     10  C   UNL     1      46.411   3.780   7.242  0.00  0.00    +0.000 A 
ATOM     11  C   UNL     1      46.507   2.399   7.122  0.00  0.00    +0.000 A 
ATOM     12  C   UNL     1      45.975   1.581   8.114  0.00  0.00    +0.000 A 
ATOM     13  C   UNL     1      45.366   2.147   9.238  0.00  0.00    +0.000 A 
ENDBRANCH   6   8
BRANCH   1  14
ATOM     14  N   UNL     1      45.573   4.561  14.259  0.00  0.00    +0.000 N 
ATOM     15  H   UNL     1      45.458   5.466  14.718  0.00  0.00    +0.000 HD
BRANCH  14  16
ATOM     16  C   UNL     1      46.987   4.190  14.196  0.00  0.00    +0.000 C 
BRANCH  16  22
ATOM     17  C   UNL     1      49.102   2.846  17.102  0.00  0.00    +0.000 A 
ATOM     18  C   UNL     1      48.551   3.542  18.179  0.00  0.00    +0.000 A 
ATOM     19  C   UNL     1      47.522   4.446  17.949  0.00  0.00    +0.000 A 
ATOM     20  F   UNL     1      47.004   5.128  18.978  0.00  0.00    +0.000 F 
ATOM     21  C   UNL     1      47.013   4.653  16.671  0.00  0.00    +0.000 A 
ATOM     22  C   UNL     1      47.536   3.940  15.583  0.00  0.00    +0.000 A 
ATOM     23  C   UNL     1      48.610   3.061  15.809  0.00  0.00    +0.000 A 
BRANCH  17  25
ATOM     24  N   UNL     1      51.009   1.130  17.485  0.00  0.00    +0.000 NA
ATOM     25  C   UNL     1      50.156   1.903  17.320  0.00  0.00    +0.000 C 
ENDBRANCH  17  25
ENDBRANCH  16  22
ENDBRANCH  14  16
ENDBRANCH   1  14
TORSDOF 5
ENDMDL
MODEL 7
REMARK VINA RESULT:    -7.256      3.007      4.073
REMARK INTER + INTRA:         -10.292
REMARK INTER:                  -9.706
REMARK INTRA:                  -0.586
REMARK UNBOUND:                -0.915
REMARK  Name = 
REMARK  5 active torsions:
REMARK  status: ('A' for Active; 'I' for Inactive)
REMARK    1  A    between atoms: C_2  and  C_3
REMARK    2  A    between atoms: C_8  and  C_9
REMARK    3  A    between atoms: C_9  and  N_10
REMARK    4  A    between atoms: N_10  and  C_11
REMARK    5  A    between atoms: C_16  and  C_17
REMARK                            x       y       z     vdW  Elec       q    Type
REMARK                         _______ _______ _______ _____ _____    ______ ____
ROOT
ATOM      1  C   UNL     1      44.855   4.647  13.026  0.00  0.00    +0.000 A 
ATOM      2  C   UNL     1      43.597   5.246  12.978  0.00  0.00    +0.000 A 
ATOM      3  C   UNL     1      42.898   5.296  11.779  0.00  0.00    +0.000 A 
ATOM      4  F   UNL     1      41.672   5.834  11.753  0.00  0.00    +0.000 F 
ATOM      5  C   UNL     1      43.442   4.787  10.603  0.00  0.00    +0.000 A 
ATOM      6  C   UNL     1      44.717   4.202  10.603  0.00  0.00    +0.000 A 
ATOM      7  C   UNL     1      45.408   4.164  11.830  0.00  0.00    +0.000 A 
ENDROOT
BRANCH   6   8
ATOM      8  C   UNL     1      45.308   3.600   9.385  0.00  0.00    +0.000 A 
ATOM      9  C   UNL     1      45.849   4.396   8.357  0.00  0.00    +0.000 A 
ATOM     10  C   UNL     1      46.487   3.825   7.249  0.00  0.00    +0.000 A 
ATOM     11  C   UNL     1      46.577   2.443   7.136  0.00  0.00    +0.000 A 
ATOM     12  C   UNL     1      46.026   1.631   8.122  0.00  0.00    +0.000 A 
ATOM     13  C   UNL     1      45.402   2.205   9.234  0.00  0.00    +0.000 A 
ENDBRANCH   6   8
BRANCH   1  14
ATOM     14  N   UNL     1      45.547   4.643  14.248  0.00  0.00    +0.000 N 
ATOM     15  H   UNL     1      45.335   5.504  14.753  0.00  0.00    +0.000 HD
BRANCH  14  16
ATOM     16  C   UNL     1      46.992   4.422  14.190  0.00  0.00    +0.000 C 
BRANCH  16  22
ATOM     17  C   UNL     1      48.818   5.925  17.212  0.00  0.00    +0.000 A 
ATOM     18  C   UNL     1      48.722   4.879  18.130  0.00  0.00    +0.000 A 
ATOM     19  C   UNL     1      48.055   3.715  17.768  0.00  0.00    +0.000 A 
ATOM     20  F   UNL     1      47.945   2.717  18.655  0.00  0.00    +0.000 F 
ATOM     21  C   UNL     1      47.502   3.563  16.502  0.00  0.00    +0.000 A 
ATOM     22  C   UNL     1      47.614   4.593  15.557  0.00  0.00    +0.000 A 
ATOM     23  C   UNL     1      48.248   5.789  15.940  0.00  0.00    +0.000 A 
BRANCH  17  25
ATOM     24  N   UNL     1      50.067   8.111  17.836  0.00  0.00    +0.000 NA
ATOM     25  C   UNL     1      49.510   7.127  17.562  0.00  0.00    +0.000 C 
ENDBRANCH  17  25
ENDBRANCH  16  22
ENDBRANCH  14  16
ENDBRANCH   1  14
TORSDOF 5
ENDMDL
MODEL 8
REMARK VINA RESULT:    -7.176      2.758      3.623
REMARK INTER + INTRA:         -10.189
REMARK INTER:                  -9.313
REMARK INTRA:                  -0.876
REMARK UNBOUND:                -0.915
REMARK  Name = 
REMARK  5 active torsions:
REMARK  status: ('A' for Active; 'I' for Inactive)
REMARK    1  A    between atoms: C_2  and  C_3
REMARK    2  A    between atoms: C_8  and  C_9
REMARK    3  A    between atoms: C_9  and  N_10
REMARK    4  A    between atoms: N_10  and  C_11
REMARK    5  A    between atoms: C_16  and  C_17
REMARK                            x       y       z     vdW  Elec       q    Type
REMARK                         _______ _______ _______ _____ _____    ______ ____
ROOT
ATOM      1  C   UNL     1      45.274   5.884  12.317  0.00  0.00    +0.000 A 
ATOM      2  C   UNL     1      43.895   6.000  12.491  0.00  0.00    +0.000 A 
ATOM      3  C   UNL     1      43.029   5.370  11.608  0.00  0.00    +0.000 A 
ATOM      4  F   UNL     1      41.708   5.452  11.810  0.00  0.00    +0.000 F 
ATOM      5  C   UNL     1      43.507   4.644  10.520  0.00  0.00    +0.000 A 
ATOM      6  C   UNL     1      44.886   4.527  10.293  0.00  0.00    +0.000 A 
ATOM      7  C   UNL     1      45.746   5.177  11.201  0.00  0.00    +0.000 A 
ENDROOT
BRANCH   6   8
ATOM      8  C   UNL     1      45.437   3.719   9.180  0.00  0.00    +0.000 A 
ATOM      9  C   UNL     1      46.046   4.321   8.062  0.00  0.00    +0.000 A 
ATOM     10  C   UNL     1      46.644   3.556   7.055  0.00  0.00    +0.000 A 
ATOM     11  C   UNL     1      46.626   2.168   7.133  0.00  0.00    +0.000 A 
ATOM     12  C   UNL     1      46.004   1.545   8.211  0.00  0.00    +0.000 A 
ATOM     13  C   UNL     1      45.420   2.313   9.223  0.00  0.00    +0.000 A 
ENDBRANCH   6   8
BRANCH   1  14
ATOM     14  N   UNL     1      46.119   6.562  13.210  0.00  0.00    +0.000 N 
ATOM     15  H   UNL     1      45.962   7.566  13.120  0.00  0.00    +0.000 HD
BRANCH  14  16
ATOM     16  C   UNL     1      47.547   6.254  13.133  0.00  0.00    +0.000 C 
BRANCH  16  22
ATOM     17  C   UNL     1      50.329   8.352  11.526  0.00  0.00    +0.000 A 
ATOM     18  C   UNL     1      49.679   9.574  11.356  0.00  0.00    +0.000 A 
ATOM     19  C   UNL     1      48.350   9.697  11.743  0.00  0.00    +0.000 A 
ATOM     20  F   UNL     1      47.719  10.864  11.564  0.00  0.00    +0.000 F 
ATOM     21  C   UNL     1      47.664   8.634  12.319  0.00  0.00    +0.000 A 
ATOM     22  C   UNL     1      48.311   7.407  12.524  0.00  0.00    +0.000 A 
ATOM     23  C   UNL     1      49.641   7.269  12.087  0.00  0.00    +0.000 A 
BRANCH  17  25
ATOM     24  N   UNL     1      52.818   8.085  10.843  0.00  0.00    +0.000 NA
ATOM     25  C   UNL     1      51.701   8.208  11.143  0.00  0.00    +0.000 C 
ENDBRANCH  17  25
ENDBRANCH  16  22
ENDBRANCH  14  16
ENDBRANCH   1  14
TORSDOF 5
ENDMDL
MODEL 9
REMARK VINA RESULT:    -7.132      2.309      3.068
REMARK INTER + INTRA:         -10.133
REMARK INTER:                  -9.274
REMARK INTRA:                  -0.859
REMARK UNBOUND:                -0.915
REMARK  Name = 
REMARK  5 active torsions:
REMARK  status: ('A' for Active; 'I' for Inactive)
REMARK    1  A    between atoms: C_2  and  C_3
REMARK    2  A    between atoms: C_8  and  C_9
REMARK    3  A    between atoms: C_9  and  N_10
REMARK    4  A    between atoms: N_10  and  C_11
REMARK    5  A    between atoms: C_16  and  C_17
REMARK                            x       y       z     vdW  Elec       q    Type
REMARK                         _______ _______ _______ _____ _____    ______ ____
ROOT
ATOM      1  C   UNL     1      44.977   4.843  12.902  0.00  0.00    +0.000 A 
ATOM      2  C   UNL     1      43.679   5.351  12.885  0.00  0.00    +0.000 A 
ATOM      3  C   UNL     1      42.912   5.258  11.732  0.00  0.00    +0.000 A 
ATOM      4  F   UNL     1      41.651   5.710  11.740  0.00  0.00    +0.000 F 
ATOM      5  C   UNL     1      43.423   4.692  10.567  0.00  0.00    +0.000 A 
ATOM      6  C   UNL     1      44.734   4.194  10.534  0.00  0.00    +0.000 A 
ATOM      7  C   UNL     1      45.494   4.302  11.715  0.00  0.00    +0.000 A 
ENDROOT
BRANCH   6   8
ATOM      8  C   UNL     1      45.297   3.535   9.332  0.00  0.00    +0.000 A 
ATOM      9  C   UNL     1      45.805   4.281   8.251  0.00  0.00    +0.000 A 
ATOM     10  C   UNL     1      46.416   3.659   7.157  0.00  0.00    +0.000 A 
ATOM     11  C   UNL     1      46.514   2.274   7.110  0.00  0.00    +0.000 A 
ATOM     12  C   UNL     1      45.994   1.509   8.150  0.00  0.00    +0.000 A 
ATOM     13  C   UNL     1      45.396   2.134   9.249  0.00  0.00    +0.000 A 
ENDBRANCH   6   8
BRANCH   1  14
ATOM     14  N   UNL     1      45.735   4.985  14.075  0.00  0.00    +0.000 N 
ATOM     15  H   UNL     1      45.517   5.884  14.506  0.00  0.00    +0.000 HD
BRANCH  14  16
ATOM     16  C   UNL     1      47.182   4.808  13.954  0.00  0.00    +0.000 C 
BRANCH  16  22
ATOM     17  C   UNL     1      49.060   8.034  14.844  0.00  0.00    +0.000 A 
ATOM     18  C   UNL     1      49.200   8.618  13.584  0.00  0.00    +0.000 A 
ATOM     19  C   UNL     1      48.706   7.955  12.468  0.00  0.00    +0.000 A 
ATOM     20  F   UNL     1      48.856   8.506  11.256  0.00  0.00    +0.000 F 
ATOM     21  C   UNL     1      48.053   6.733  12.584  0.00  0.00    +0.000 A 
ATOM     22  C   UNL     1      47.877   6.146  13.845  0.00  0.00    +0.000 A 
ATOM     23  C   UNL     1      48.420   6.795  14.968  0.00  0.00    +0.000 A 
BRANCH  17  25
ATOM     24  N   UNL     1      49.962   9.261  16.943  0.00  0.00    +0.000 NA
ATOM     25  C   UNL     1      49.554   8.706  16.007  0.00  0.00    +0.000 C 
ENDBRANCH  17  25
ENDBRANCH  16  22
ENDBRANCH  14  16
ENDBRANCH   1  14
TORSDOF 5
ENDMDL
