MODEL 1
REMARK VINA RESULT:    -7.820      0.000      0.000
REMARK INTER + INTRA:         -10.407
REMARK INTER:                  -9.649
REMARK INTRA:                  -0.758
REMARK UNBOUND:                -0.758
REMARK  Name = 
REMARK  4 active torsions:
REMARK  status: ('A' for Active; 'I' for Inactive)
REMARK    1  A    between atoms: C_5  and  N_6
REMARK    2  A    between atoms: N_6  and  C_7
REMARK    3  A    between atoms: C_7  and  C_8
REMARK    4  A    between atoms: C_12  and  C_13
REMARK                            x       y       z     vdW  Elec       q    Type
REMARK                         _______ _______ _______ _____ _____    ______ ____
ROOT
ATOM      1  C   UNL     1      45.241   5.247  11.985  0.00  0.00    +0.000 A 
ATOM      2  C   UNL     1      45.378   4.392  13.088  0.00  0.00    +0.000 A 
ATOM      3  C   UNL     1      46.517   4.433  13.891  0.00  0.00    +0.000 A 
ATOM      4  C   UNL     1      47.521   5.364  13.631  0.00  0.00    +0.000 A 
ATOM      5  C   UNL     1      47.384   6.304  12.597  0.00  0.00    +0.000 A 
ATOM      6  C   UNL     1      46.246   6.207  11.782  0.00  0.00    +0.000 A 
ENDROOT
BRANCH   5   7
ATOM      7  C   UNL     1      48.473   7.349  12.369  0.00  0.00    +0.000 C 
ATOM      8  C   UNL     1      49.217   7.705  13.670  0.00  0.00    +0.000 C 
ATOM      9  C   UNL     1      48.391   8.630  14.564  0.00  0.00    +0.000 C 
ATOM     10  N   UNL     1      48.029   9.869  13.874  0.00  0.00    +0.000 NA
ATOM     11  C   UNL     1      47.267   9.593  12.656  0.00  0.00    +0.000 C 
ATOM     12  C   UNL     1      48.025   8.666  11.698  0.00  0.00    +0.000 C 
ATOM     13  H   UNL     1      48.877  10.377  13.628  0.00  0.00    +0.000 HD
ENDBRANCH   5   7
BRANCH   1  14
ATOM     14  C   UNL     1      44.106   5.092  10.977  0.00  0.00    +0.000 C 
ATOM     15  C   UNL     1      42.818   4.448  11.460  0.00  0.00    +0.000 C 
ATOM     16  C   UNL     1      42.863   5.927  11.268  0.00  0.00    +0.000 C 
BRANCH  14  17
ATOM     17  N   UNL     1      44.528   5.078   9.571  0.00  0.00    +0.000 N 
ATOM     18  H   UNL     1      44.918   5.954   9.221  0.00  0.00    +0.000 HD
BRANCH  17  23
ATOM     19  F   UNL     1      47.180   1.312   6.689  0.00  0.00    +0.000 F 
ATOM     20  C   UNL     1      46.563   2.197   7.476  0.00  0.00    +0.000 A 
ATOM     21  C   UNL     1      46.705   3.549   7.221  0.00  0.00    +0.000 A 
ATOM     22  N   UNL     1      46.063   4.504   7.940  0.00  0.00    +0.000 NA
ATOM     23  C   UNL     1      45.270   4.074   8.946  0.00  0.00    +0.000 A 
ATOM     24  C   UNL     1      45.157   2.706   9.207  0.00  0.00    +0.000 A 
ATOM     25  N   UNL     1      45.795   1.739   8.485  0.00  0.00    +0.000 NA
ENDBRANCH  17  23
ENDBRANCH  14  17
ENDBRANCH   1  14
TORSDOF 4
ENDMDL
MODEL 2
REMARK VINA RESULT:    -7.222      2.215      3.106
REMARK INTER + INTRA:          -9.668
REMARK INTER:                  -9.327
REMARK INTRA:                  -0.342
REMARK UNBOUND:                -0.758
REMARK  Name = 
REMARK  4 active torsions:
REMARK  status: ('A' for Active; 'I' for Inactive)
REMARK    1  A    between atoms: C_5  and  N_6
REMARK    2  A    between atoms: N_6  and  C_7
REMARK    3  A    between atoms: C_7  and  C_8
REMARK    4  A    between atoms: C_12  and  C_13
REMARK                            x       y       z     vdW  Elec       q    Type
REMARK                         _______ _______ _______ _____ _____    ______ ____
ROOT
ATOM      1  C   UNL     1      44.889   6.271  11.452  0.00  0.00    +0.000 A 
ATOM      2  C   UNL     1      46.258   6.071  11.678  0.00  0.00    +0.000 A 
ATOM      3  C   UNL     1      47.109   7.146  11.932  0.00  0.00    +0.000 A 
ATOM      4  C   UNL     1      46.594   8.439  12.011  0.00  0.00    +0.000 A 
ATOM      5  C   UNL     1      45.216   8.677  11.888  0.00  0.00    +0.000 A 
ATOM      6  C   UNL     1      44.395   7.579  11.590  0.00  0.00    +0.000 A 
ENDROOT
BRANCH   5   7
ATOM      7  C   UNL     1      44.672  10.096  12.034  0.00  0.00    +0.000 C 
ATOM      8  C   UNL     1      43.463  10.351  11.113  0.00  0.00    +0.000 C 
ATOM      9  C   UNL     1      43.888  10.564   9.660  0.00  0.00    +0.000 C 
ATOM     10  N   UNL     1      44.824  11.683   9.528  0.00  0.00    +0.000 NA
ATOM     11  C   UNL     1      46.023  11.467  10.339  0.00  0.00    +0.000 C 
ATOM     12  C   UNL     1      45.687  11.241  11.818  0.00  0.00    +0.000 C 
ATOM     13  H   UNL     1      44.367  12.541   9.832  0.00  0.00    +0.000 HD
ENDBRANCH   5   7
BRANCH   1  14
ATOM     14  C   UNL     1      43.974   5.146  10.977  0.00  0.00    +0.000 C 
ATOM     15  C   UNL     1      43.509   4.134  12.009  0.00  0.00    +0.000 C 
ATOM     16  C   UNL     1      42.556   5.183  11.541  0.00  0.00    +0.000 C 
BRANCH  14  17
ATOM     17  N   UNL     1      44.063   4.843   9.544  0.00  0.00    +0.000 N 
ATOM     18  H   UNL     1      44.018   5.650   8.920  0.00  0.00    +0.000 HD
BRANCH  17  23
ATOM     19  F   UNL     1      47.375   1.563   6.750  0.00  0.00    +0.000 F 
ATOM     20  C   UNL     1      46.598   2.333   7.517  0.00  0.00    +0.000 A 
ATOM     21  C   UNL     1      46.559   3.697   7.294  0.00  0.00    +0.000 A 
ATOM     22  N   UNL     1      45.750   4.534   7.992  0.00  0.00    +0.000 NA
ATOM     23  C   UNL     1      44.973   3.969   8.944  0.00  0.00    +0.000 A 
ATOM     24  C   UNL     1      45.043   2.593   9.175  0.00  0.00    +0.000 A 
ATOM     25  N   UNL     1      45.850   1.745   8.472  0.00  0.00    +0.000 NA
ENDBRANCH  17  23
ENDBRANCH  14  17
ENDBRANCH   1  14
TORSDOF 4
ENDMDL
MODEL 3
REMARK VINA RESULT:    -7.120      1.165      1.734
REMARK INTER + INTRA:          -9.543
REMARK INTER:                  -9.630
REMARK INTRA:                   0.087
REMARK UNBOUND:                -0.758
REMARK  Name = 
REMARK  4 active torsions:
REMARK  status: ('A' for Active; 'I' for Inactive)
REMARK    1  A    between atoms: C_5  and  N_6
REMARK    2  A    between atoms: N_6  and  C_7
REMARK    3  A    between atoms: C_7  and  C_8
REMARK    4  A    between atoms: C_12  and  C_13
REMARK                            x       y       z     vdW  Elec       q    Type
REMARK                         _______ _______ _______ _____ _____    ______ ____
ROOT
ATOM      1  C   UNL     1      44.893   6.242  11.315  0.00  0.00    +0.000 A 
ATOM      2  C   UNL     1      44.417   7.560  11.371  0.00  0.00    +0.000 A 
ATOM      3  C   UNL     1      45.217   8.592  11.858  0.00  0.00    +0.000 A 
ATOM      4  C   UNL     1      46.528   8.331  12.255  0.00  0.00    +0.000 A 
ATOM      5  C   UNL     1      47.079   7.046  12.126  0.00  0.00    +0.000 A 
ATOM      6  C   UNL     1      46.233   6.022  11.673  0.00  0.00    +0.000 A 
ENDROOT
BRANCH   5   7
ATOM      7  C   UNL     1      48.533   6.799  12.517  0.00  0.00    +0.000 C 
ATOM      8  C   UNL     1      48.766   6.980  14.029  0.00  0.00    +0.000 C 
ATOM      9  C   UNL     1      48.815   8.456  14.426  0.00  0.00    +0.000 C 
ATOM     10  N   UNL     1      49.861   9.178  13.699  0.00  0.00    +0.000 NA
ATOM     11  C   UNL     1      49.657   9.089  12.253  0.00  0.00    +0.000 C 
ATOM     12  C   UNL     1      49.594   7.636  11.767  0.00  0.00    +0.000 C 
ATOM     13  H   UNL     1      50.768   8.780  13.932  0.00  0.00    +0.000 HD
ENDBRANCH   5   7
BRANCH   1  14
ATOM     14  C   UNL     1      43.981   5.066  10.976  0.00  0.00    +0.000 C 
ATOM     15  C   UNL     1      43.602   4.122  12.103  0.00  0.00    +0.000 C 
ATOM     16  C   UNL     1      42.598   5.114  11.620  0.00  0.00    +0.000 C 
BRANCH  14  17
ATOM     17  N   UNL     1      43.993   4.663   9.565  0.00  0.00    +0.000 N 
ATOM     18  H   UNL     1      43.836   5.414   8.892  0.00  0.00    +0.000 HD
BRANCH  17  23
ATOM     19  F   UNL     1      47.400   1.500   6.751  0.00  0.00    +0.000 F 
ATOM     20  C   UNL     1      46.601   2.242   7.523  0.00  0.00    +0.000 A 
ATOM     21  C   UNL     1      46.517   3.605   7.304  0.00  0.00    +0.000 A 
ATOM     22  N   UNL     1      45.683   4.413   8.007  0.00  0.00    +0.000 NA
ATOM     23  C   UNL     1      44.929   3.821   8.960  0.00  0.00    +0.000 A 
ATOM     24  C   UNL     1      45.044   2.447   9.187  0.00  0.00    +0.000 A 
ATOM     25  N   UNL     1      45.876   1.628   8.479  0.00  0.00    +0.000 NA
ENDBRANCH  17  23
ENDBRANCH  14  17
ENDBRANCH   1  14
TORSDOF 4
ENDMDL
MODEL 4
REMARK VINA RESULT:    -6.559      3.376      6.753
REMARK INTER + INTRA:          -8.851
REMARK INTER:                  -8.484
REMARK INTRA:                  -0.366
REMARK UNBOUND:                -0.758
REMARK  Name = 
REMARK  4 active torsions:
REMARK  status: ('A' for Active; 'I' for Inactive)
REMARK    1  A    between atoms: C_5  and  N_6
REMARK    2  A    between atoms: N_6  and  C_7
REMARK    3  A    between atoms: C_7  and  C_8
REMARK    4  A    between atoms: C_12  and  C_13
REMARK                            x       y       z     vdW  Elec       q    Type
REMARK                         _______ _______ _______ _____ _____    ______ ____
ROOT
ATOM      1  C   UNL     1      46.807   7.618  12.878  0.00  0.00    +0.000 A 
ATOM      2  C   UNL     1      46.257   8.903  12.760  0.00  0.00    +0.000 A 
ATOM      3  C   UNL     1      45.097   9.123  12.019  0.00  0.00    +0.000 A 
ATOM      4  C   UNL     1      44.439   8.050  11.419  0.00  0.00    +0.000 A 
ATOM      5  C   UNL     1      44.897   6.734  11.591  0.00  0.00    +0.000 A 
ATOM      6  C   UNL     1      46.091   6.554  12.306  0.00  0.00    +0.000 A 
ENDROOT
BRANCH   5   7
ATOM      7  C   UNL     1      44.127   5.573  10.969  0.00  0.00    +0.000 C 
ATOM      8  C   UNL     1      42.797   5.301  11.699  0.00  0.00    +0.000 C 
ATOM      9  C   UNL     1      43.013   4.569  13.024  0.00  0.00    +0.000 C 
ATOM     10  N   UNL     1      43.712   3.298  12.832  0.00  0.00    +0.000 NA
ATOM     11  C   UNL     1      45.013   3.500  12.193  0.00  0.00    +0.000 C 
ATOM     12  C   UNL     1      44.889   4.233  10.851  0.00  0.00    +0.000 C 
ATOM     13  H   UNL     1      43.145   2.687  12.246  0.00  0.00    +0.000 HD
ENDBRANCH   5   7
BRANCH   1  14
ATOM     14  C   UNL     1      48.174   7.378  13.511  0.00  0.00    +0.000 C 
ATOM     15  C   UNL     1      49.310   6.958  12.595  0.00  0.00    +0.000 C 
ATOM     16  C   UNL     1      49.262   8.364  13.094  0.00  0.00    +0.000 C 
BRANCH  14  17
ATOM     17  N   UNL     1      48.143   7.060  14.943  0.00  0.00    +0.000 N 
ATOM     18  H   UNL     1      47.502   7.623  15.505  0.00  0.00    +0.000 HD
BRANCH  17  23
ATOM     19  F   UNL     1      48.433   2.037  16.997  0.00  0.00    +0.000 F 
ATOM     20  C   UNL     1      48.267   3.267  16.502  0.00  0.00    +0.000 A 
ATOM     21  C   UNL     1      48.999   4.317  17.027  0.00  0.00    +0.000 A 
ATOM     22  N   UNL     1      48.928   5.580  16.538  0.00  0.00    +0.000 NA
ATOM     23  C   UNL     1      48.085   5.780  15.499  0.00  0.00    +0.000 A 
ATOM     24  C   UNL     1      47.334   4.715  14.996  0.00  0.00    +0.000 A 
ATOM     25  N   UNL     1      47.405   3.440  15.480  0.00  0.00    +0.000 NA
ENDBRANCH  17  23
ENDBRANCH  14  17
ENDBRANCH   1  14
TORSDOF 4
ENDMDL
MODEL 5
REMARK VINA RESULT:    -6.395      4.088      7.230
REMARK INTER + INTRA:          -8.648
REMARK INTER:                  -8.519
REMARK INTRA:                  -0.129
REMARK UNBOUND:                -0.758
REMARK  Name = 
REMARK  4 active torsions:
REMARK  status: ('A' for Active; 'I' for Inactive)
REMARK    1  A    between atoms: C_5  and  N_6
REMARK    2  A    between atoms: N_6  and  C_7
REMARK    3  A    between atoms: C_7  and  C_8
REMARK    4  A    between atoms: C_12  and  C_13
REMARK                            x       y       z     vdW  Elec       q    Type
REMARK                         _______ _______ _______ _____ _____    ______ ____
ROOT
ATOM      1  C   UNL     1      47.686   6.369  14.052  0.00  0.00    +0.000 A 
ATOM      2  C   UNL     1      47.899   7.288  13.014  0.00  0.00    +0.000 A 
ATOM      3  C   UNL     1      47.297   7.118  11.769  0.00  0.00    +0.000 A 
ATOM      4  C   UNL     1      46.430   6.047  11.554  0.00  0.00    +0.000 A 
ATOM      5  C   UNL     1      46.110   5.157  12.592  0.00  0.00    +0.000 A 
ATOM      6  C   UNL     1      46.767   5.333  13.819  0.00  0.00    +0.000 A 
ENDROOT
BRANCH   5   7
ATOM      7  C   UNL     1      45.115   4.026  12.346  0.00  0.00    +0.000 C 
ATOM      8  C   UNL     1      44.605   4.009  10.892  0.00  0.00    +0.000 C 
ATOM      9  C   UNL     1      43.565   5.101  10.640  0.00  0.00    +0.000 C 
ATOM     10  N   UNL     1      42.419   4.976  11.542  0.00  0.00    +0.000 NA
ATOM     11  C   UNL     1      42.839   5.045  12.942  0.00  0.00    +0.000 C 
ATOM     12  C   UNL     1      43.888   3.980  13.284  0.00  0.00    +0.000 C 
ATOM     13  H   UNL     1      41.956   4.085  11.377  0.00  0.00    +0.000 HD
ENDBRANCH   5   7
BRANCH   1  14
ATOM     14  C   UNL     1      48.482   6.418  15.353  0.00  0.00    +0.000 C 
ATOM     15  C   UNL     1      49.862   7.051  15.310  0.00  0.00    +0.000 C 
ATOM     16  C   UNL     1      48.730   7.819  15.908  0.00  0.00    +0.000 C 
BRANCH  14  17
ATOM     17  N   UNL     1      48.093   5.416  16.352  0.00  0.00    +0.000 N 
ATOM     18  H   UNL     1      47.103   5.165  16.360  0.00  0.00    +0.000 HD
BRANCH  17  23
ATOM     19  F   UNL     1      51.156   1.010  17.206  0.00  0.00    +0.000 F 
ATOM     20  C   UNL     1      50.328   2.043  17.027  0.00  0.00    +0.000 A 
ATOM     21  C   UNL     1      50.653   3.276  17.564  0.00  0.00    +0.000 A 
ATOM     22  N   UNL     1      49.892   4.383  17.374  0.00  0.00    +0.000 NA
ATOM     23  C   UNL     1      48.772   4.229  16.632  0.00  0.00    +0.000 A 
ATOM     24  C   UNL     1      48.445   2.971  16.118  0.00  0.00    +0.000 A 
ATOM     25  N   UNL     1      49.208   1.854  16.300  0.00  0.00    +0.000 NA
ENDBRANCH  17  23
ENDBRANCH  14  17
ENDBRANCH   1  14
TORSDOF 4
ENDMDL
MODEL 6
REMARK VINA RESULT:    -5.974      3.584      5.927
REMARK INTER + INTRA:          -8.129
REMARK INTER:                  -7.344
REMARK INTRA:                  -0.785
REMARK UNBOUND:                -0.758
REMARK  Name = 
REMARK  4 active torsions:
REMARK  status: ('A' for Active; 'I' for Inactive)
REMARK    1  A    between atoms: C_5  and  N_6
REMARK    2  A    between atoms: N_6  and  C_7
REMARK    3  A    between atoms: C_7  and  C_8
REMARK    4  A    between atoms: C_12  and  C_13
REMARK                            x       y       z     vdW  Elec       q    Type
REMARK                         _______ _______ _______ _____ _____    ______ ____
ROOT
ATOM      1  C   UNL     1      48.691   7.869  14.261  0.00  0.00    +0.000 A 
ATOM      2  C   UNL     1      48.460   9.163  14.749  0.00  0.00    +0.000 A 
ATOM      3  C   UNL     1      48.388   9.413  16.118  0.00  0.00    +0.000 A 
ATOM      4  C   UNL     1      48.593   8.376  17.028  0.00  0.00    +0.000 A 
ATOM      5  C   UNL     1      48.924   7.084  16.588  0.00  0.00    +0.000 A 
ATOM      6  C   UNL     1      48.945   6.859  15.203  0.00  0.00    +0.000 A 
ENDROOT
BRANCH   5   7
ATOM      7  C   UNL     1      49.197   5.980  17.606  0.00  0.00    +0.000 C 
ATOM      8  C   UNL     1      48.893   4.580  17.039  0.00  0.00    +0.000 C 
ATOM      9  C   UNL     1      47.390   4.296  16.998  0.00  0.00    +0.000 C 
ATOM     10  N   UNL     1      46.782   4.410  18.325  0.00  0.00    +0.000 NA
ATOM     11  C   UNL     1      46.990   5.743  18.890  0.00  0.00    +0.000 C 
ATOM     12  C   UNL     1      48.477   6.112  18.967  0.00  0.00    +0.000 C 
ATOM     13  H   UNL     1      47.197   3.717  18.946  0.00  0.00    +0.000 HD
ENDBRANCH   5   7
BRANCH   1  14
ATOM     14  C   UNL     1      48.578   7.531  12.777  0.00  0.00    +0.000 C 
ATOM     15  C   UNL     1      48.517   8.687  11.795  0.00  0.00    +0.000 C 
ATOM     16  C   UNL     1      49.788   7.917  11.931  0.00  0.00    +0.000 C 
BRANCH  14  17
ATOM     17  N   UNL     1      48.017   6.206  12.488  0.00  0.00    +0.000 N 
ATOM     18  H   UNL     1      48.549   5.415  12.853  0.00  0.00    +0.000 HD
BRANCH  17  23
ATOM     19  F   UNL     1      42.716   5.241  13.193  0.00  0.00    +0.000 F 
ATOM     20  C   UNL     1      44.030   5.386  12.998  0.00  0.00    +0.000 A 
ATOM     21  C   UNL     1      44.487   6.390  12.163  0.00  0.00    +0.000 A 
ATOM     22  N   UNL     1      45.807   6.635  11.963  0.00  0.00    +0.000 NA
ATOM     23  C   UNL     1      46.677   5.835  12.618  0.00  0.00    +0.000 A 
ATOM     24  C   UNL     1      46.200   4.809  13.438  0.00  0.00    +0.000 A 
ATOM     25  N   UNL     1      44.874   4.560  13.649  0.00  0.00    +0.000 NA
ENDBRANCH  17  23
ENDBRANCH  14  17
ENDBRANCH   1  14
TORSDOF 4
ENDMDL
MODEL 7
REMARK VINA RESULT:    -5.929      3.605      7.170
REMARK INTER + INTRA:          -8.073
REMARK INTER:                  -7.347
REMARK INTRA:                  -0.726
REMARK UNBOUND:                -0.758
REMARK  Name = 
REMARK  4 active torsions:
REMARK  status: ('A' for Active; 'I' for Inactive)
REMARK    1  A    between atoms: C_5  and  N_6
REMARK    2  A    between atoms: N_6  and  C_7
REMARK    3  A    between atoms: C_7  and  C_8
REMARK    4  A    between atoms: C_12  and  C_13
REMARK                            x       y       z     vdW  Elec       q    Type
REMARK                         _______ _______ _______ _____ _____    ______ ____
ROOT
ATOM      1  C   UNL     1      47.163   8.021  12.350  0.00  0.00    +0.000 A 
ATOM      2  C   UNL     1      46.370   9.178  12.380  0.00  0.00    +0.000 A 
ATOM      3  C   UNL     1      45.064   9.166  11.894  0.00  0.00    +0.000 A 
ATOM      4  C   UNL     1      44.511   7.981  11.411  0.00  0.00    +0.000 A 
ATOM      5  C   UNL     1      45.232   6.777  11.451  0.00  0.00    +0.000 A 
ATOM      6  C   UNL     1      46.558   6.834  11.905  0.00  0.00    +0.000 A 
ENDROOT
BRANCH   5   7
ATOM      7  C   UNL     1      44.583   5.483  10.966  0.00  0.00    +0.000 C 
ATOM      8  C   UNL     1      43.112   5.371  11.410  0.00  0.00    +0.000 C 
ATOM      9  C   UNL     1      42.989   4.988  12.886  0.00  0.00    +0.000 C 
ATOM     10  N   UNL     1      43.666   3.722  13.174  0.00  0.00    +0.000 NA
ATOM     11  C   UNL     1      45.086   3.790  12.826  0.00  0.00    +0.000 C 
ATOM     12  C   UNL     1      45.302   4.172  11.356  0.00  0.00    +0.000 C 
ATOM     13  H   UNL     1      43.227   2.976  12.638  0.00  0.00    +0.000 HD
ENDBRANCH   5   7
BRANCH   1  14
ATOM     14  C   UNL     1      48.651   8.052  12.687  0.00  0.00    +0.000 C 
ATOM     15  C   UNL     1      49.596   7.289  11.775  0.00  0.00    +0.000 C 
ATOM     16  C   UNL     1      49.531   8.776  11.672  0.00  0.00    +0.000 C 
BRANCH  14  17
ATOM     17  N   UNL     1      48.958   8.344  14.092  0.00  0.00    +0.000 N 
ATOM     18  H   UNL     1      48.336   9.013  14.548  0.00  0.00    +0.000 HD
BRANCH  17  23
ATOM     19  F   UNL     1      50.572   4.546  17.628  0.00  0.00    +0.000 F 
ATOM     20  C   UNL     1      50.096   5.490  16.811  0.00  0.00    +0.000 A 
ATOM     21  C   UNL     1      50.895   6.570  16.481  0.00  0.00    +0.000 A 
ATOM     22  N   UNL     1      50.503   7.536  15.612  0.00  0.00    +0.000 NA
ATOM     23  C   UNL     1      49.268   7.404  15.078  0.00  0.00    +0.000 A 
ATOM     24  C   UNL     1      48.463   6.321  15.441  0.00  0.00    +0.000 A 
ATOM     25  N   UNL     1      48.853   5.343  16.310  0.00  0.00    +0.000 NA
ENDBRANCH  17  23
ENDBRANCH  14  17
ENDBRANCH   1  14
TORSDOF 4
ENDMDL
MODEL 8
REMARK VINA RESULT:    -5.748      3.626      5.632
REMARK INTER + INTRA:          -7.850
REMARK INTER:                  -7.862
REMARK INTRA:                   0.012
REMARK UNBOUND:                -0.758
REMARK  Name = 
REMARK  4 active torsions:
REMARK  status: ('A' for Active; 'I' for Inactive)
REMARK    1  A    between atoms: C_5  and  N_6
REMARK    2  A    between atoms: N_6  and  C_7
REMARK    3  A    between atoms: C_7  and  C_8
REMARK    4  A    between atoms: C_12  and  C_13
REMARK                            x       y       z     vdW  Elec       q    Type
REMARK                         _______ _______ _______ _____ _____    ______ ____
ROOT
ATOM      1  C   UNL     1      48.330   6.808  14.256  0.00  0.00    +0.000 A 
ATOM      2  C   UNL     1      49.584   7.434  14.225  0.00  0.00    +0.000 A 
ATOM      3  C   UNL     1      50.480   7.301  15.284  0.00  0.00    +0.000 A 
ATOM      4  C   UNL     1      50.154   6.499  16.377  0.00  0.00    +0.000 A 
ATOM      5  C   UNL     1      48.951   5.775  16.408  0.00  0.00    +0.000 A 
ATOM      6  C   UNL     1      48.054   5.966  15.346  0.00  0.00    +0.000 A 
ENDROOT
BRANCH   5   7
ATOM      7  C   UNL     1      48.643   4.861  17.591  0.00  0.00    +0.000 C 
ATOM      8  C   UNL     1      49.922   4.393  18.311  0.00  0.00    +0.000 C 
ATOM      9  C   UNL     1      50.646   3.294  17.532  0.00  0.00    +0.000 C 
ATOM     10  N   UNL     1      49.783   2.134  17.306  0.00  0.00    +0.000 NA
ATOM     11  C   UNL     1      48.575   2.509  16.571  0.00  0.00    +0.000 C 
ATOM     12  C   UNL     1      47.785   3.613  17.284  0.00  0.00    +0.000 C 
ATOM     13  H   UNL     1      49.516   1.733  18.203  0.00  0.00    +0.000 HD
ENDBRANCH   5   7
BRANCH   1  14
ATOM     14  C   UNL     1      47.256   7.094  13.210  0.00  0.00    +0.000 C 
ATOM     15  C   UNL     1      47.509   8.230  12.234  0.00  0.00    +0.000 C 
ATOM     16  C   UNL     1      47.670   6.822  11.766  0.00  0.00    +0.000 C 
BRANCH  14  17
ATOM     17  N   UNL     1      45.910   6.631  13.566  0.00  0.00    +0.000 N 
ATOM     18  H   UNL     1      45.187   7.352  13.583  0.00  0.00    +0.000 HD
BRANCH  17  23
ATOM     19  F   UNL     1      43.078   2.263  12.007  0.00  0.00    +0.000 F 
ATOM     20  C   UNL     1      43.843   3.310  12.330  0.00  0.00    +0.000 A 
ATOM     21  C   UNL     1      43.304   4.583  12.294  0.00  0.00    +0.000 A 
ATOM     22  N   UNL     1      44.001   5.687  12.665  0.00  0.00    +0.000 NA
ATOM     23  C   UNL     1      45.276   5.490  13.069  0.00  0.00    +0.000 A 
ATOM     24  C   UNL     1      45.814   4.200  13.076  0.00  0.00    +0.000 A 
ATOM     25  N   UNL     1      45.117   3.085  12.710  0.00  0.00    +0.000 NA
ENDBRANCH  17  23
ENDBRANCH  14  17
ENDBRANCH   1  14
TORSDOF 4
ENDMDL
