MODEL 1
REMARK VINA RESULT:    -8.774      0.000      0.000
REMARK INTER + INTRA:         -13.232
REMARK INTER:                 -12.364
REMARK INTRA:                  -0.868
REMARK UNBOUND:                -0.868
REMARK  Name = 
REMARK  7 active torsions:
REMARK  status: ('A' for Active; 'I' for Inactive)
REMARK    1  A    between atoms: C_2  and  C_20
REMARK    2  A    between atoms: N_3  and  C_4
REMARK    3  A    between atoms: C_4  and  C_5
REMARK    4  A    between atoms: C_8  and  C_9
REMARK    5  A    between atoms: C_9  and  N_10
REMARK    6  A    between atoms: N_10  and  C_11
REMARK    7  A    between atoms: C_11  and  C_12
REMARK                            x       y       z     vdW  Elec       q    Type
REMARK                         _______ _______ _______ _____ _____    ______ ____
ROOT
ATOM      1  C   UNL     1      46.783   5.816  13.279  0.00  0.00    +0.000 A 
ATOM      2  C   UNL     1      45.820   4.866  13.642  0.00  0.00    +0.000 A 
ATOM      3  C   UNL     1      44.767   4.546  12.776  0.00  0.00    +0.000 A 
ATOM      4  C   UNL     1      44.656   5.165  11.523  0.00  0.00    +0.000 A 
ATOM      5  C   UNL     1      45.635   6.096  11.151  0.00  0.00    +0.000 A 
ATOM      6  C   UNL     1      46.687   6.415  12.013  0.00  0.00    +0.000 A 
ENDROOT
BRANCH   1   7
ATOM      7  C   UNL     1      47.865   6.214  14.243  0.00  0.00    +0.000 C 
BRANCH   7  10
ATOM      8  O   UNL     1      49.916   6.069  16.060  0.00  0.00    +0.000 OA
ATOM      9  C   UNL     1      48.854   5.531  16.361  0.00  0.00    +0.000 C 
ATOM     10  N   UNL     1      47.761   5.555  15.520  0.00  0.00    +0.000 N 
ATOM     11  H   UNL     1      46.864   5.214  15.831  0.00  0.00    +0.000 HD
BRANCH   9  12
ATOM     12  C   UNL     1      48.679   4.816  17.626  0.00  0.00    +0.000 A 
ATOM     13  C   UNL     1      48.604   3.442  17.821  0.00  0.00    +0.000 A 
ATOM     14  N   UNL     1      48.503   3.198  19.168  0.00  0.00    +0.000 N 
ATOM     15  C   UNL     1      48.488   4.376  19.856  0.00  0.00    +0.000 A 
ATOM     16  N   UNL     1      48.405   4.469  21.195  0.00  0.00    +0.000 NA
ATOM     17  C   UNL     1      48.408   5.748  21.635  0.00  0.00    +0.000 A 
ATOM     18  C   UNL     1      48.484   6.879  20.834  0.00  0.00    +0.000 A 
ATOM     19  C   UNL     1      48.573   6.721  19.450  0.00  0.00    +0.000 A 
ATOM     20  C   UNL     1      48.580   5.412  18.932  0.00  0.00    +0.000 A 
ATOM     21  H   UNL     1      48.457   2.295  19.617  0.00  0.00    +0.000 HD
ENDBRANCH   9  12
ENDBRANCH   7  10
ENDBRANCH   1   7
BRANCH   4  22
ATOM     22  C   UNL     1      43.524   4.821  10.580  0.00  0.00    +0.000 C 
BRANCH  22  23
ATOM     23  N   UNL     1      44.021   4.330   9.296  0.00  0.00    +0.000 NA
ATOM     24  H   UNL     1      44.796   4.916   8.988  0.00  0.00    +0.000 HD
BRANCH  23  25
ATOM     25  C   UNL     1      44.494   2.948   9.399  0.00  0.00    +0.000 C 
BRANCH  25  26
ATOM     26  C   UNL     1      45.516   2.642   8.326  0.00  0.00    +0.000 A 
ATOM     27  C   UNL     1      45.866   3.607   7.370  0.00  0.00    +0.000 A 
ATOM     28  C   UNL     1      46.817   3.319   6.388  0.00  0.00    +0.000 A 
ATOM     29  C   UNL     1      47.432   2.068   6.355  0.00  0.00    +0.000 A 
ATOM     30  C   UNL     1      47.092   1.101   7.298  0.00  0.00    +0.000 A 
ATOM     31  C   UNL     1      46.140   1.387   8.278  0.00  0.00    +0.000 A 
ENDBRANCH  25  26
ENDBRANCH  23  25
ENDBRANCH  22  23
ENDBRANCH   4  22
TORSDOF 7
ENDMDL
MODEL 2
REMARK VINA RESULT:    -8.195      1.330      2.022
REMARK INTER + INTRA:         -12.417
REMARK INTER:                 -11.457
REMARK INTRA:                  -0.960
REMARK UNBOUND:                -0.868
REMARK  Name = 
REMARK  7 active torsions:
REMARK  status: ('A' for Active; 'I' for Inactive)
REMARK    1  A    between atoms: C_2  and  C_20
REMARK    2  A    between atoms: N_3  and  C_4
REMARK    3  A    between atoms: C_4  and  C_5
REMARK    4  A    between atoms: C_8  and  C_9
REMARK    5  A    between atoms: C_9  and  N_10
REMARK    6  A    between atoms: N_10  and  C_11
REMARK    7  A    between atoms: C_11  and  C_12
REMARK                            x       y       z     vdW  Elec       q    Type
REMARK                         _______ _______ _______ _____ _____    ______ ____
ROOT
ATOM      1  C   UNL     1      46.726   6.248  12.656  0.00  0.00    +0.000 A 
ATOM      2  C   UNL     1      46.188   5.161  13.358  0.00  0.00    +0.000 A 
ATOM      3  C   UNL     1      45.162   4.388  12.802  0.00  0.00    +0.000 A 
ATOM      4  C   UNL     1      44.652   4.679  11.529  0.00  0.00    +0.000 A 
ATOM      5  C   UNL     1      45.210   5.751  10.819  0.00  0.00    +0.000 A 
ATOM      6  C   UNL     1      46.235   6.523  11.370  0.00  0.00    +0.000 A 
ENDROOT
BRANCH   1   7
ATOM      7  C   UNL     1      47.772   7.123  13.288  0.00  0.00    +0.000 C 
BRANCH   7  10
ATOM      8  O   UNL     1      50.235   7.494  14.438  0.00  0.00    +0.000 OA
ATOM      9  C   UNL     1      49.364   6.965  15.124  0.00  0.00    +0.000 C 
ATOM     10  N   UNL     1      48.092   6.742  14.641  0.00  0.00    +0.000 N 
ATOM     11  H   UNL     1      47.359   6.416  15.252  0.00  0.00    +0.000 HD
BRANCH   9  12
ATOM     12  C   UNL     1      49.621   6.521  16.494  0.00  0.00    +0.000 A 
ATOM     13  C   UNL     1      50.406   7.145  17.456  0.00  0.00    +0.000 A 
ATOM     14  N   UNL     1      50.321   6.426  18.622  0.00  0.00    +0.000 N 
ATOM     15  C   UNL     1      49.518   5.337  18.441  0.00  0.00    +0.000 A 
ATOM     16  N   UNL     1      49.232   4.441  19.402  0.00  0.00    +0.000 NA
ATOM     17  C   UNL     1      48.414   3.453  18.973  0.00  0.00    +0.000 A 
ATOM     18  C   UNL     1      47.900   3.328  17.690  0.00  0.00    +0.000 A 
ATOM     19  C   UNL     1      48.227   4.291  16.735  0.00  0.00    +0.000 A 
ATOM     20  C   UNL     1      49.072   5.349  17.124  0.00  0.00    +0.000 A 
ATOM     21  H   UNL     1      50.762   6.647  19.502  0.00  0.00    +0.000 HD
ENDBRANCH   9  12
ENDBRANCH   7  10
ENDBRANCH   1   7
BRANCH   4  22
ATOM     22  C   UNL     1      43.546   3.845  10.920  0.00  0.00    +0.000 C 
BRANCH  22  23
ATOM     23  N   UNL     1      43.855   3.460   9.544  0.00  0.00    +0.000 NA
ATOM     24  H   UNL     1      44.358   4.220   9.087  0.00  0.00    +0.000 HD
BRANCH  23  25
ATOM     25  C   UNL     1      44.686   2.256   9.499  0.00  0.00    +0.000 C 
BRANCH  25  26
ATOM     26  C   UNL     1      45.678   2.324   8.359  0.00  0.00    +0.000 A 
ATOM     27  C   UNL     1      45.849   3.505   7.623  0.00  0.00    +0.000 A 
ATOM     28  C   UNL     1      46.773   3.562   6.577  0.00  0.00    +0.000 A 
ATOM     29  C   UNL     1      47.541   2.441   6.260  0.00  0.00    +0.000 A 
ATOM     30  C   UNL     1      47.380   1.262   6.984  0.00  0.00    +0.000 A 
ATOM     31  C   UNL     1      46.455   1.203   8.027  0.00  0.00    +0.000 A 
ENDBRANCH  25  26
ENDBRANCH  23  25
ENDBRANCH  22  23
ENDBRANCH   4  22
TORSDOF 7
ENDMDL
MODEL 3
REMARK VINA RESULT:    -8.104      1.631      2.151
REMARK INTER + INTRA:         -12.288
REMARK INTER:                 -11.308
REMARK INTRA:                  -0.980
REMARK UNBOUND:                -0.868
REMARK  Name = 
REMARK  7 active torsions:
REMARK  status: ('A' for Active; 'I' for Inactive)
REMARK    1  A    between atoms: C_2  and  C_20
REMARK    2  A    between atoms: N_3  and  C_4
REMARK    3  A    between atoms: C_4  and  C_5
REMARK    4  A    between atoms: C_8  and  C_9
REMARK    5  A    between atoms: C_9  and  N_10
REMARK    6  A    between atoms: N_10  and  C_11
REMARK    7  A    between atoms: C_11  and  C_12
REMARK                            x       y       z     vdW  Elec       q    Type
REMARK                         _______ _______ _______ _____ _____    ______ ____
ROOT
ATOM      1  C   UNL     1      46.663   6.215  12.817  0.00  0.00    +0.000 A 
ATOM      2  C   UNL     1      46.300   6.384  11.474  0.00  0.00    +0.000 A 
ATOM      3  C   UNL     1      45.327   5.566  10.888  0.00  0.00    +0.000 A 
ATOM      4  C   UNL     1      44.690   4.562  11.631  0.00  0.00    +0.000 A 
ATOM      5  C   UNL     1      45.037   4.412  12.980  0.00  0.00    +0.000 A 
ATOM      6  C   UNL     1      46.007   5.228  13.568  0.00  0.00    +0.000 A 
ENDROOT
BRANCH   1   7
ATOM      7  C   UNL     1      47.764   7.043  13.420  0.00  0.00    +0.000 C 
BRANCH   7  10
ATOM      8  O   UNL     1      50.019   6.754  14.955  0.00  0.00    +0.000 OA
ATOM      9  C   UNL     1      48.947   6.876  15.542  0.00  0.00    +0.000 C 
ATOM     10  N   UNL     1      47.758   7.035  14.861  0.00  0.00    +0.000 N 
ATOM     11  H   UNL     1      46.906   7.251  15.355  0.00  0.00    +0.000 HD
BRANCH   9  12
ATOM     12  C   UNL     1      48.855   6.847  17.002  0.00  0.00    +0.000 A 
ATOM     13  C   UNL     1      49.193   5.802  17.853  0.00  0.00    +0.000 A 
ATOM     14  N   UNL     1      49.012   6.219  19.148  0.00  0.00    +0.000 N 
ATOM     15  C   UNL     1      48.545   7.501  19.165  0.00  0.00    +0.000 A 
ATOM     16  N   UNL     1      48.276   8.193  20.286  0.00  0.00    +0.000 NA
ATOM     17  C   UNL     1      47.825   9.444  20.037  0.00  0.00    +0.000 A 
ATOM     18  C   UNL     1      47.637  10.001  18.779  0.00  0.00    +0.000 A 
ATOM     19  C   UNL     1      47.938   9.236  17.651  0.00  0.00    +0.000 A 
ATOM     20  C   UNL     1      48.418   7.927  17.846  0.00  0.00    +0.000 A 
ATOM     21  H   UNL     1      49.198   5.688  19.986  0.00  0.00    +0.000 HD
ENDBRANCH   9  12
ENDBRANCH   7  10
ENDBRANCH   1   7
BRANCH   4  22
ATOM     22  C   UNL     1      43.635   3.677  11.005  0.00  0.00    +0.000 C 
BRANCH  22  23
ATOM     23  N   UNL     1      43.903   3.435   9.588  0.00  0.00    +0.000 NA
ATOM     24  H   UNL     1      44.482   4.190   9.222  0.00  0.00    +0.000 HD
BRANCH  23  25
ATOM     25  C   UNL     1      44.605   2.167   9.386  0.00  0.00    +0.000 C 
BRANCH  25  26
ATOM     26  C   UNL     1      45.655   2.295   8.305  0.00  0.00    +0.000 A 
ATOM     27  C   UNL     1      45.828   3.500   7.608  0.00  0.00    +0.000 A 
ATOM     28  C   UNL     1      46.806   3.612   6.617  0.00  0.00    +0.000 A 
ATOM     29  C   UNL     1      47.626   2.525   6.316  0.00  0.00    +0.000 A 
ATOM     30  C   UNL     1      47.464   1.323   7.001  0.00  0.00    +0.000 A 
ATOM     31  C   UNL     1      46.485   1.208   7.989  0.00  0.00    +0.000 A 
ENDBRANCH  25  26
ENDBRANCH  23  25
ENDBRANCH  22  23
ENDBRANCH   4  22
TORSDOF 7
ENDMDL
MODEL 4
REMARK VINA RESULT:    -7.896      1.555      2.264
REMARK INTER + INTRA:         -11.995
REMARK INTER:                 -10.994
REMARK INTRA:                  -1.001
REMARK UNBOUND:                -0.868
REMARK  Name = 
REMARK  7 active torsions:
REMARK  status: ('A' for Active; 'I' for Inactive)
REMARK    1  A    between atoms: C_2  and  C_20
REMARK    2  A    between atoms: N_3  and  C_4
REMARK    3  A    between atoms: C_4  and  C_5
REMARK    4  A    between atoms: C_8  and  C_9
REMARK    5  A    between atoms: C_9  and  N_10
REMARK    6  A    between atoms: N_10  and  C_11
REMARK    7  A    between atoms: C_11  and  C_12
REMARK                            x       y       z     vdW  Elec       q    Type
REMARK                         _______ _______ _______ _____ _____    ______ ____
ROOT
ATOM      1  C   UNL     1      47.317   5.919  12.892  0.00  0.00    +0.000 A 
ATOM      2  C   UNL     1      46.922   4.705  13.470  0.00  0.00    +0.000 A 
ATOM      3  C   UNL     1      45.831   3.990  12.960  0.00  0.00    +0.000 A 
ATOM      4  C   UNL     1      45.111   4.470  11.858  0.00  0.00    +0.000 A 
ATOM      5  C   UNL     1      45.523   5.671  11.265  0.00  0.00    +0.000 A 
ATOM      6  C   UNL     1      46.613   6.385  11.770  0.00  0.00    +0.000 A 
ENDROOT
BRANCH   1   7
ATOM      7  C   UNL     1      48.438   6.721  13.490  0.00  0.00    +0.000 C 
BRANCH   7  10
ATOM      8  O   UNL     1      49.993   6.390  15.726  0.00  0.00    +0.000 OA
ATOM      9  C   UNL     1      48.961   7.045  15.847  0.00  0.00    +0.000 C 
ATOM     10  N   UNL     1      48.116   7.275  14.781  0.00  0.00    +0.000 N 
ATOM     11  H   UNL     1      47.338   7.911  14.868  0.00  0.00    +0.000 HD
BRANCH   9  12
ATOM     12  C   UNL     1      48.549   7.614  17.130  0.00  0.00    +0.000 A 
ATOM     13  C   UNL     1      48.227   8.936  17.409  0.00  0.00    +0.000 A 
ATOM     14  N   UNL     1      47.834   9.022  18.721  0.00  0.00    +0.000 N 
ATOM     15  C   UNL     1      47.912   7.795  19.313  0.00  0.00    +0.000 A 
ATOM     16  N   UNL     1      47.586   7.551  20.595  0.00  0.00    +0.000 NA
ATOM     17  C   UNL     1      47.750   6.254  20.942  0.00  0.00    +0.000 A 
ATOM     18  C   UNL     1      48.206   5.244  20.106  0.00  0.00    +0.000 A 
ATOM     19  C   UNL     1      48.524   5.555  18.783  0.00  0.00    +0.000 A 
ATOM     20  C   UNL     1      48.368   6.889  18.361  0.00  0.00    +0.000 A 
ATOM     21  H   UNL     1      47.517   9.849  19.205  0.00  0.00    +0.000 HD
ENDBRANCH   9  12
ENDBRANCH   7  10
ENDBRANCH   1   7
BRANCH   4  22
ATOM     22  C   UNL     1      43.934   3.701  11.299  0.00  0.00    +0.000 C 
BRANCH  22  23
ATOM     23  N   UNL     1      44.002   3.591   9.843  0.00  0.00    +0.000 NA
ATOM     24  H   UNL     1      44.668   4.275   9.484  0.00  0.00    +0.000 HD
BRANCH  23  25
ATOM     25  C   UNL     1      44.435   2.256   9.427  0.00  0.00    +0.000 C 
BRANCH  25  26
ATOM     26  C   UNL     1      45.559   2.339   8.419  0.00  0.00    +0.000 A 
ATOM     27  C   UNL     1      46.324   1.207   8.098  0.00  0.00    +0.000 A 
ATOM     28  C   UNL     1      47.354   1.291   7.159  0.00  0.00    +0.000 A 
ATOM     29  C   UNL     1      47.628   2.503   6.526  0.00  0.00    +0.000 A 
ATOM     30  C   UNL     1      46.876   3.634   6.836  0.00  0.00    +0.000 A 
ATOM     31  C   UNL     1      45.848   3.552   7.777  0.00  0.00    +0.000 A 
ENDBRANCH  25  26
ENDBRANCH  23  25
ENDBRANCH  22  23
ENDBRANCH   4  22
TORSDOF 7
ENDMDL
MODEL 5
REMARK VINA RESULT:    -7.743      1.558      2.398
REMARK INTER + INTRA:         -11.779
REMARK INTER:                 -10.780
REMARK INTRA:                  -0.999
REMARK UNBOUND:                -0.868
REMARK  Name = 
REMARK  7 active torsions:
REMARK  status: ('A' for Active; 'I' for Inactive)
REMARK    1  A    between atoms: C_2  and  C_20
REMARK    2  A    between atoms: N_3  and  C_4
REMARK    3  A    between atoms: C_4  and  C_5
REMARK    4  A    between atoms: C_8  and  C_9
REMARK    5  A    between atoms: C_9  and  N_10
REMARK    6  A    between atoms: N_10  and  C_11
REMARK    7  A    between atoms: C_11  and  C_12
REMARK                            x       y       z     vdW  Elec       q    Type
REMARK                         _______ _______ _______ _____ _____    ______ ____
ROOT
ATOM      1  C   UNL     1      47.141   6.260  12.781  0.00  0.00    +0.000 A 
ATOM      2  C   UNL     1      46.766   6.733  11.517  0.00  0.00    +0.000 A 
ATOM      3  C   UNL     1      45.624   6.236  10.878  0.00  0.00    +0.000 A 
ATOM      4  C   UNL     1      44.827   5.259  11.488  0.00  0.00    +0.000 A 
ATOM      5  C   UNL     1      45.190   4.806  12.764  0.00  0.00    +0.000 A 
ATOM      6  C   UNL     1      46.328   5.301  13.405  0.00  0.00    +0.000 A 
ENDROOT
BRANCH   1   7
ATOM      7  C   UNL     1      48.411   6.738  13.429  0.00  0.00    +0.000 C 
BRANCH   7  10
ATOM      8  O   UNL     1      48.877   8.390  15.569  0.00  0.00    +0.000 OA
ATOM      9  C   UNL     1      48.809   7.183  15.790  0.00  0.00    +0.000 C 
ATOM     10  N   UNL     1      48.570   6.271  14.783  0.00  0.00    +0.000 N 
ATOM     11  H   UNL     1      48.400   5.301  14.998  0.00  0.00    +0.000 HD
BRANCH   9  12
ATOM     12  C   UNL     1      48.991   6.629  17.132  0.00  0.00    +0.000 A 
ATOM     13  C   UNL     1      48.101   6.676  18.198  0.00  0.00    +0.000 A 
ATOM     14  N   UNL     1      48.643   5.979  19.249  0.00  0.00    +0.000 N 
ATOM     15  C   UNL     1      49.872   5.497  18.905  0.00  0.00    +0.000 A 
ATOM     16  N   UNL     1      50.652   4.765  19.721  0.00  0.00    +0.000 NA
ATOM     17  C   UNL     1      51.823   4.407  19.146  0.00  0.00    +0.000 A 
ATOM     18  C   UNL     1      52.227   4.736  17.859  0.00  0.00    +0.000 A 
ATOM     19  C   UNL     1      51.373   5.494  17.057  0.00  0.00    +0.000 A 
ATOM     20  C   UNL     1      50.136   5.892  17.598  0.00  0.00    +0.000 A 
ATOM     21  H   UNL     1      48.218   5.818  20.150  0.00  0.00    +0.000 HD
ENDBRANCH   9  12
ENDBRANCH   7  10
ENDBRANCH   1   7
BRANCH   4  22
ATOM     22  C   UNL     1      43.588   4.720  10.805  0.00  0.00    +0.000 C 
BRANCH  22  23
ATOM     23  N   UNL     1      43.883   4.232   9.459  0.00  0.00    +0.000 NA
ATOM     24  H   UNL     1      44.594   4.826   9.034  0.00  0.00    +0.000 HD
BRANCH  23  25
ATOM     25  C   UNL     1      44.382   2.856   9.488  0.00  0.00    +0.000 C 
BRANCH  25  26
ATOM     26  C   UNL     1      45.450   2.644   8.438  0.00  0.00    +0.000 A 
ATOM     27  C   UNL     1      46.087   1.401   8.300  0.00  0.00    +0.000 A 
ATOM     28  C   UNL     1      47.066   1.211   7.323  0.00  0.00    +0.000 A 
ATOM     29  C   UNL     1      47.415   2.257   6.469  0.00  0.00    +0.000 A 
ATOM     30  C   UNL     1      46.790   3.496   6.596  0.00  0.00    +0.000 A 
ATOM     31  C   UNL     1      45.813   3.688   7.575  0.00  0.00    +0.000 A 
ENDBRANCH  25  26
ENDBRANCH  23  25
ENDBRANCH  22  23
ENDBRANCH   4  22
TORSDOF 7
ENDMDL
MODEL 6
REMARK VINA RESULT:    -7.719      3.889      6.362
REMARK INTER + INTRA:         -11.746
REMARK INTER:                 -10.672
REMARK INTRA:                  -1.074
REMARK UNBOUND:                -0.868
REMARK  Name = 
REMARK  7 active torsions:
REMARK  status: ('A' for Active; 'I' for Inactive)
REMARK    1  A    between atoms: C_2  and  C_20
REMARK    2  A    between atoms: N_3  and  C_4
REMARK    3  A    between atoms: C_4  and  C_5
REMARK    4  A    between atoms: C_8  and  C_9
REMARK    5  A    between atoms: C_9  and  N_10
REMARK    6  A    between atoms: N_10  and  C_11
REMARK    7  A    between atoms: C_11  and  C_12
REMARK                            x       y       z     vdW  Elec       q    Type
REMARK                         _______ _______ _______ _____ _____    ______ ____
ROOT
ATOM      1  C   UNL     1      46.894   5.768  12.989  0.00  0.00    +0.000 A 
ATOM      2  C   UNL     1      46.181   4.675  13.499  0.00  0.00    +0.000 A 
ATOM      3  C   UNL     1      45.078   4.155  12.810  0.00  0.00    +0.000 A 
ATOM      4  C   UNL     1      44.666   4.711  11.591  0.00  0.00    +0.000 A 
ATOM      5  C   UNL     1      45.396   5.788  11.071  0.00  0.00    +0.000 A 
ATOM      6  C   UNL     1      46.498   6.308  11.756  0.00  0.00    +0.000 A 
ENDROOT
BRANCH   1   7
ATOM      7  C   UNL     1      48.026   6.373  13.771  0.00  0.00    +0.000 C 
BRANCH   7  10
ATOM      8  O   UNL     1      48.494   9.067  13.992  0.00  0.00    +0.000 OA
ATOM      9  C   UNL     1      49.122   8.452  13.134  0.00  0.00    +0.000 C 
ATOM     10  N   UNL     1      48.964   7.094  12.949  0.00  0.00    +0.000 N 
ATOM     11  H   UNL     1      49.570   6.586  12.324  0.00  0.00    +0.000 HD
BRANCH   9  12
ATOM     12  C   UNL     1      50.069   9.119  12.239  0.00  0.00    +0.000 A 
ATOM     13  C   UNL     1      51.421   8.844  12.077  0.00  0.00    +0.000 A 
ATOM     14  N   UNL     1      51.917   9.662  11.092  0.00  0.00    +0.000 N 
ATOM     15  C   UNL     1      50.930  10.479  10.623  0.00  0.00    +0.000 A 
ATOM     16  N   UNL     1      51.101  11.389   9.648  0.00  0.00    +0.000 NA
ATOM     17  C   UNL     1      49.970  12.073   9.362  0.00  0.00    +0.000 A 
ATOM     18  C   UNL     1      48.740  11.898   9.981  0.00  0.00    +0.000 A 
ATOM     19  C   UNL     1      48.620  10.934  10.984  0.00  0.00    +0.000 A 
ATOM     20  C   UNL     1      49.763  10.184  11.321  0.00  0.00    +0.000 A 
ATOM     21  H   UNL     1      52.861   9.675  10.736  0.00  0.00    +0.000 HD
ENDBRANCH   9  12
ENDBRANCH   7  10
ENDBRANCH   1   7
BRANCH   4  22
ATOM     22  C   UNL     1      43.478   4.152  10.839  0.00  0.00    +0.000 C 
BRANCH  22  23
ATOM     23  N   UNL     1      43.842   3.745   9.482  0.00  0.00    +0.000 NA
ATOM     24  H   UNL     1      44.446   4.455   9.069  0.00  0.00    +0.000 HD
BRANCH  23  25
ATOM     25  C   UNL     1      44.554   2.466   9.480  0.00  0.00    +0.000 C 
BRANCH  25  26
ATOM     26  C   UNL     1      45.594   2.426   8.383  0.00  0.00    +0.000 A 
ATOM     27  C   UNL     1      46.315   1.252   8.118  0.00  0.00    +0.000 A 
ATOM     28  C   UNL     1      47.268   1.221   7.097  0.00  0.00    +0.000 A 
ATOM     29  C   UNL     1      47.505   2.359   6.326  0.00  0.00    +0.000 A 
ATOM     30  C   UNL     1      46.796   3.530   6.579  0.00  0.00    +0.000 A 
ATOM     31  C   UNL     1      45.846   3.564   7.601  0.00  0.00    +0.000 A 
ENDBRANCH  25  26
ENDBRANCH  23  25
ENDBRANCH  22  23
ENDBRANCH   4  22
TORSDOF 7
ENDMDL
MODEL 7
REMARK VINA RESULT:    -7.439      4.241      6.634
REMARK INTER + INTRA:         -11.351
REMARK INTER:                 -10.413
REMARK INTRA:                  -0.939
REMARK UNBOUND:                -0.868
REMARK  Name = 
REMARK  7 active torsions:
REMARK  status: ('A' for Active; 'I' for Inactive)
REMARK    1  A    between atoms: C_2  and  C_20
REMARK    2  A    between atoms: N_3  and  C_4
REMARK    3  A    between atoms: C_4  and  C_5
REMARK    4  A    between atoms: C_8  and  C_9
REMARK    5  A    between atoms: C_9  and  N_10
REMARK    6  A    between atoms: N_10  and  C_11
REMARK    7  A    between atoms: C_11  and  C_12
REMARK                            x       y       z     vdW  Elec       q    Type
REMARK                         _______ _______ _______ _____ _____    ______ ____
ROOT
ATOM      1  C   UNL     1      46.733   6.645  12.896  0.00  0.00    +0.000 A 
ATOM      2  C   UNL     1      46.597   5.382  13.488  0.00  0.00    +0.000 A 
ATOM      3  C   UNL     1      45.741   4.422  12.936  0.00  0.00    +0.000 A 
ATOM      4  C   UNL     1      45.004   4.698  11.776  0.00  0.00    +0.000 A 
ATOM      5  C   UNL     1      45.162   5.953  11.172  0.00  0.00    +0.000 A 
ATOM      6  C   UNL     1      46.017   6.912  11.719  0.00  0.00    +0.000 A 
ENDROOT
BRANCH   1   7
ATOM      7  C   UNL     1      47.592   7.699  13.536  0.00  0.00    +0.000 C 
BRANCH   7  10
ATOM      8  O   UNL     1      50.334   7.722  13.633  0.00  0.00    +0.000 OA
ATOM      9  C   UNL     1      49.794   8.361  12.733  0.00  0.00    +0.000 C 
ATOM     10  N   UNL     1      48.423   8.406  12.594  0.00  0.00    +0.000 N 
ATOM     11  H   UNL     1      48.002   8.836  11.785  0.00  0.00    +0.000 HD
BRANCH   9  12
ATOM     12  C   UNL     1      50.567   9.130  11.758  0.00  0.00    +0.000 A 
ATOM     13  C   UNL     1      50.623  10.511  11.617  0.00  0.00    +0.000 A 
ATOM     14  N   UNL     1      51.518  10.812  10.621  0.00  0.00    +0.000 N 
ATOM     15  C   UNL     1      52.033   9.665  10.094  0.00  0.00    +0.000 A 
ATOM     16  N   UNL     1      52.943   9.629   9.104  0.00  0.00    +0.000 NA
ATOM     17  C   UNL     1      53.295   8.369   8.758  0.00  0.00    +0.000 A 
ATOM     18  C   UNL     1      52.797   7.205   9.327  0.00  0.00    +0.000 A 
ATOM     19  C   UNL     1      51.857   7.304  10.354  0.00  0.00    +0.000 A 
ATOM     20  C   UNL     1      51.456   8.590  10.763  0.00  0.00    +0.000 A 
ATOM     21  H   UNL     1      51.788  11.734  10.309  0.00  0.00    +0.000 HD
ENDBRANCH   9  12
ENDBRANCH   7  10
ENDBRANCH   1   7
BRANCH   4  22
ATOM     22  C   UNL     1      44.080   3.664  11.171  0.00  0.00    +0.000 C 
BRANCH  22  23
ATOM     23  N   UNL     1      44.817   2.496  10.692  0.00  0.00    +0.000 NA
ATOM     24  H   UNL     1      44.646   1.709  11.318  0.00  0.00    +0.000 HD
BRANCH  23  25
ATOM     25  C   UNL     1      44.398   2.117   9.342  0.00  0.00    +0.000 C 
BRANCH  25  26
ATOM     26  C   UNL     1      45.541   2.251   8.360  0.00  0.00    +0.000 A 
ATOM     27  C   UNL     1      46.343   1.147   8.033  0.00  0.00    +0.000 A 
ATOM     28  C   UNL     1      47.391   1.278   7.120  0.00  0.00    +0.000 A 
ATOM     29  C   UNL     1      47.646   2.510   6.519  0.00  0.00    +0.000 A 
ATOM     30  C   UNL     1      46.858   3.614   6.835  0.00  0.00    +0.000 A 
ATOM     31  C   UNL     1      45.812   3.485   7.750  0.00  0.00    +0.000 A 
ENDBRANCH  25  26
ENDBRANCH  23  25
ENDBRANCH  22  23
ENDBRANCH   4  22
TORSDOF 7
ENDMDL
MODEL 8
REMARK VINA RESULT:    -7.132      4.866      7.288
REMARK INTER + INTRA:         -10.918
REMARK INTER:                  -9.939
REMARK INTRA:                  -0.979
REMARK UNBOUND:                -0.868
REMARK  Name = 
REMARK  7 active torsions:
REMARK  status: ('A' for Active; 'I' for Inactive)
REMARK    1  A    between atoms: C_2  and  C_20
REMARK    2  A    between atoms: N_3  and  C_4
REMARK    3  A    between atoms: C_4  and  C_5
REMARK    4  A    between atoms: C_8  and  C_9
REMARK    5  A    between atoms: C_9  and  N_10
REMARK    6  A    between atoms: N_10  and  C_11
REMARK    7  A    between atoms: C_11  and  C_12
REMARK                            x       y       z     vdW  Elec       q    Type
REMARK                         _______ _______ _______ _____ _____    ______ ____
ROOT
ATOM      1  C   UNL     1      47.959   6.585  12.706  0.00  0.00    +0.000 A 
ATOM      2  C   UNL     1      47.617   5.639  13.681  0.00  0.00    +0.000 A 
ATOM      3  C   UNL     1      46.470   4.848  13.539  0.00  0.00    +0.000 A 
ATOM      4  C   UNL     1      45.640   4.980  12.417  0.00  0.00    +0.000 A 
ATOM      5  C   UNL     1      45.999   5.909  11.431  0.00  0.00    +0.000 A 
ATOM      6  C   UNL     1      47.143   6.699  11.569  0.00  0.00    +0.000 A 
ENDROOT
BRANCH   1   7
ATOM      7  C   UNL     1      49.146   7.487  12.900  0.00  0.00    +0.000 C 
BRANCH   7  10
ATOM      8  O   UNL     1      51.342   9.118  12.693  0.00  0.00    +0.000 OA
ATOM      9  C   UNL     1      51.161   8.296  11.798  0.00  0.00    +0.000 C 
ATOM     10  N   UNL     1      50.091   7.425  11.814  0.00  0.00    +0.000 N 
ATOM     11  H   UNL     1      50.022   6.682  11.137  0.00  0.00    +0.000 HD
BRANCH   9  12
ATOM     12  C   UNL     1      52.058   8.193  10.647  0.00  0.00    +0.000 A 
ATOM     13  C   UNL     1      52.722   7.063  10.185  0.00  0.00    +0.000 A 
ATOM     14  N   UNL     1      53.407   7.396   9.043  0.00  0.00    +0.000 N 
ATOM     15  C   UNL     1      53.226   8.718   8.759  0.00  0.00    +0.000 A 
ATOM     16  N   UNL     1      53.765   9.343   7.697  0.00  0.00    +0.000 NA
ATOM     17  C   UNL     1      53.436  10.654   7.636  0.00  0.00    +0.000 A 
ATOM     18  C   UNL     1      52.637  11.331   8.548  0.00  0.00    +0.000 A 
ATOM     19  C   UNL     1      52.102  10.629   9.628  0.00  0.00    +0.000 A 
ATOM     20  C   UNL     1      52.404   9.258   9.742  0.00  0.00    +0.000 A 
ATOM     21  H   UNL     1      53.961   6.778   8.469  0.00  0.00    +0.000 HD
ENDBRANCH   9  12
ENDBRANCH   7  10
ENDBRANCH   1   7
BRANCH   4  22
ATOM     22  C   UNL     1      44.402   4.126  12.255  0.00  0.00    +0.000 C 
BRANCH  22  23
ATOM     23  N   UNL     1      44.650   2.973  11.391  0.00  0.00    +0.000 NA
ATOM     24  H   UNL     1      44.228   2.143  11.806  0.00  0.00    +0.000 HD
BRANCH  23  25
ATOM     25  C   UNL     1      44.078   3.172  10.058  0.00  0.00    +0.000 C 
BRANCH  25  26
ATOM     26  C   UNL     1      45.121   2.966   8.983  0.00  0.00    +0.000 A 
ATOM     27  C   UNL     1      45.593   4.047   8.222  0.00  0.00    +0.000 A 
ATOM     28  C   UNL     1      46.563   3.850   7.237  0.00  0.00    +0.000 A 
ATOM     29  C   UNL     1      47.077   2.574   7.005  0.00  0.00    +0.000 A 
ATOM     30  C   UNL     1      46.616   1.493   7.754  0.00  0.00    +0.000 A 
ATOM     31  C   UNL     1      45.644   1.688   8.737  0.00  0.00    +0.000 A 
ENDBRANCH  25  26
ENDBRANCH  23  25
ENDBRANCH  22  23
ENDBRANCH   4  22
TORSDOF 7
ENDMDL
MODEL 9
REMARK VINA RESULT:    -7.069      2.595      8.966
REMARK INTER + INTRA:         -10.830
REMARK INTER:                  -9.303
REMARK INTRA:                  -1.527
REMARK UNBOUND:                -0.868
REMARK  Name = 
REMARK  7 active torsions:
REMARK  status: ('A' for Active; 'I' for Inactive)
REMARK    1  A    between atoms: C_2  and  C_20
REMARK    2  A    between atoms: N_3  and  C_4
REMARK    3  A    between atoms: C_4  and  C_5
REMARK    4  A    between atoms: C_8  and  C_9
REMARK    5  A    between atoms: C_9  and  N_10
REMARK    6  A    between atoms: N_10  and  C_11
REMARK    7  A    between atoms: C_11  and  C_12
REMARK                            x       y       z     vdW  Elec       q    Type
REMARK                         _______ _______ _______ _____ _____    ______ ____
ROOT
ATOM      1  C   UNL     1      48.101   7.998  13.428  0.00  0.00    +0.000 A 
ATOM      2  C   UNL     1      49.291   7.266  13.532  0.00  0.00    +0.000 A 
ATOM      3  C   UNL     1      50.083   7.349  14.684  0.00  0.00    +0.000 A 
ATOM      4  C   UNL     1      49.702   8.161  15.761  0.00  0.00    +0.000 A 
ATOM      5  C   UNL     1      48.497   8.871  15.664  0.00  0.00    +0.000 A 
ATOM      6  C   UNL     1      47.705   8.789  14.517  0.00  0.00    +0.000 A 
ENDROOT
BRANCH   1   7
ATOM      7  C   UNL     1      47.295   7.968  12.159  0.00  0.00    +0.000 C 
BRANCH   7  10
ATOM      8  O   UNL     1      44.771   7.037  12.694  0.00  0.00    +0.000 OA
ATOM      9  C   UNL     1      45.547   6.272  12.127  0.00  0.00    +0.000 C 
ATOM     10  N   UNL     1      46.835   6.648  11.807  0.00  0.00    +0.000 N 
ATOM     11  H   UNL     1      47.419   6.054  11.239  0.00  0.00    +0.000 HD
BRANCH   9  12
ATOM     12  C   UNL     1      45.166   4.907  11.766  0.00  0.00    +0.000 A 
ATOM     13  C   UNL     1      44.723   3.897  12.611  0.00  0.00    +0.000 A 
ATOM     14  N   UNL     1      44.414   2.797  11.851  0.00  0.00    +0.000 N 
ATOM     15  C   UNL     1      44.663   3.054  10.535  0.00  0.00    +0.000 A 
ATOM     16  N   UNL     1      44.454   2.173   9.540  0.00  0.00    +0.000 NA
ATOM     17  C   UNL     1      44.778   2.668   8.323  0.00  0.00    +0.000 A 
ATOM     18  C   UNL     1      45.282   3.937   8.073  0.00  0.00    +0.000 A 
ATOM     19  C   UNL     1      45.475   4.810   9.146  0.00  0.00    +0.000 A 
ATOM     20  C   UNL     1      45.148   4.354  10.437  0.00  0.00    +0.000 A 
ATOM     21  H   UNL     1      44.044   1.918  12.183  0.00  0.00    +0.000 HD
ENDBRANCH   9  12
ENDBRANCH   7  10
ENDBRANCH   1   7
BRANCH   4  22
ATOM     22  C   UNL     1      50.550   8.251  17.011  0.00  0.00    +0.000 C 
BRANCH  22  23
ATOM     23  N   UNL     1      50.794   6.933  17.595  0.00  0.00    +0.000 NA
ATOM     24  H   UNL     1      51.537   7.005  18.289  0.00  0.00    +0.000 HD
BRANCH  23  25
ATOM     25  C   UNL     1      49.593   6.409  18.248  0.00  0.00    +0.000 C 
BRANCH  25  26
ATOM     26  C   UNL     1      49.195   5.073  17.661  0.00  0.00    +0.000 A 
ATOM     27  C   UNL     1      49.971   3.927  17.889  0.00  0.00    +0.000 A 
ATOM     28  C   UNL     1      49.592   2.695  17.350  0.00  0.00    +0.000 A 
ATOM     29  C   UNL     1      48.431   2.594  16.583  0.00  0.00    +0.000 A 
ATOM     30  C   UNL     1      47.652   3.725  16.349  0.00  0.00    +0.000 A 
ATOM     31  C   UNL     1      48.032   4.957  16.885  0.00  0.00    +0.000 A 
ENDBRANCH  25  26
ENDBRANCH  23  25
ENDBRANCH  22  23
ENDBRANCH   4  22
TORSDOF 7
ENDMDL
