MODEL 1
REMARK VINA RESULT:    -7.338      0.000      0.000
REMARK INTER + INTRA:         -10.020
REMARK INTER:                  -9.483
REMARK INTRA:                  -0.536
REMARK UNBOUND:                -0.536
REMARK  Name = 
REMARK  5 active torsions:
REMARK  status: ('A' for Active; 'I' for Inactive)
REMARK    1  A    between atoms: C_2  and  C_4
REMARK    2  A    between atoms: C_8  and  C_9
REMARK    3  A    between atoms: C_9  and  O_10
REMARK    4  A    between atoms: O_10  and  C_11
REMARK    5  A    between atoms: C_15  and  C_16
REMARK                            x       y       z     vdW  Elec       q    Type
REMARK                         _______ _______ _______ _____ _____    ______ ____
ROOT
ATOM      1  O   UNL     1      44.463   5.085  11.024  0.00  0.00    +0.000 OA
ENDROOT
BRANCH   1   2
ATOM      2  C   UNL     1      45.435   5.212  11.975  0.00  0.00    +0.000 A 
ATOM      3  C   UNL     1      45.301   4.464  13.132  0.00  0.00    +0.000 A 
ATOM      4  N   UNL     1      46.174   4.504  14.167  0.00  0.00    +0.000 NA
ATOM      5  C   UNL     1      47.225   5.346  14.039  0.00  0.00    +0.000 A 
ATOM      6  C   UNL     1      47.469   6.153  12.928  0.00  0.00    +0.000 A 
ATOM      7  C   UNL     1      46.518   6.083  11.899  0.00  0.00    +0.000 A 
BRANCH   6   8
ATOM      8  C   UNL     1      48.662   7.100  12.903  0.00  0.00    +0.000 C 
ATOM      9  C   UNL     1      49.117   7.653  14.271  0.00  0.00    +0.000 C 
ATOM     10  C   UNL     1      48.189   8.753  14.797  0.00  0.00    +0.000 C 
ATOM     11  N   UNL     1      48.022   9.845  13.844  0.00  0.00    +0.000 NA
ATOM     12  C   UNL     1      47.555   9.370  12.542  0.00  0.00    +0.000 C 
ATOM     13  C   UNL     1      48.469   8.297  11.949  0.00  0.00    +0.000 C 
ATOM     14  H   UNL     1      48.916  10.326  13.723  0.00  0.00    +0.000 HD
ENDBRANCH   6   8
ENDBRANCH   1   2
BRANCH   1  15
ATOM     15  C   UNL     1      44.890   5.311   9.675  0.00  0.00    +0.000 C 
BRANCH  15  20
ATOM     16  C   UNL     1      46.477   2.754   7.379  0.00  0.00    +0.000 A 
ATOM     17  C   UNL     1      45.987   1.575   7.939  0.00  0.00    +0.000 A 
ATOM     18  C   UNL     1      45.156   1.683   9.037  0.00  0.00    +0.000 A 
ATOM     19  N   UNL     1      44.791   2.862   9.585  0.00  0.00    +0.000 NA
ATOM     20  C   UNL     1      45.300   4.000   9.045  0.00  0.00    +0.000 A 
ATOM     21  C   UNL     1      46.147   3.984   7.945  0.00  0.00    +0.000 A 
BRANCH  16  23
ATOM     22  N   UNL     1      48.688   2.484   6.407  0.00  0.00    +0.000 N 
ATOM     23  C   UNL     1      47.365   2.744   6.190  0.00  0.00    +0.000 C 
ATOM     24  O   UNL     1      46.927   2.914   5.061  0.00  0.00    +0.000 OA
ATOM     25  H   UNL     1      49.252   2.353   5.576  0.00  0.00    +0.000 HD
ATOM     26  H   UNL     1      49.025   2.077   7.266  0.00  0.00    +0.000 HD
ENDBRANCH  16  23
ENDBRANCH  15  20
ENDBRANCH   1  15
TORSDOF 5
ENDMDL
MODEL 2
REMARK VINA RESULT:    -6.876      4.186      8.215
REMARK INTER + INTRA:          -9.422
REMARK INTER:                  -9.226
REMARK INTRA:                  -0.196
REMARK UNBOUND:                -0.536
REMARK  Name = 
REMARK  5 active torsions:
REMARK  status: ('A' for Active; 'I' for Inactive)
REMARK    1  A    between atoms: C_2  and  C_4
REMARK    2  A    between atoms: C_8  and  C_9
REMARK    3  A    between atoms: C_9  and  O_10
REMARK    4  A    between atoms: O_10  and  C_11
REMARK    5  A    between atoms: C_15  and  C_16
REMARK                            x       y       z     vdW  Elec       q    Type
REMARK                         _______ _______ _______ _____ _____    ______ ____
ROOT
ATOM      1  O   UNL     1      47.324   3.554  14.961  0.00  0.00    +0.000 OA
ENDROOT
BRANCH   1   2
ATOM      2  C   UNL     1      46.906   4.424  13.995  0.00  0.00    +0.000 A 
ATOM      3  C   UNL     1      47.559   5.642  13.902  0.00  0.00    +0.000 A 
ATOM      4  N   UNL     1      47.238   6.608  13.010  0.00  0.00    +0.000 NA
ATOM      5  C   UNL     1      46.204   6.345  12.178  0.00  0.00    +0.000 A 
ATOM      6  C   UNL     1      45.466   5.161  12.175  0.00  0.00    +0.000 A 
ATOM      7  C   UNL     1      45.831   4.209  13.137  0.00  0.00    +0.000 A 
BRANCH   6   8
ATOM      8  C   UNL     1      44.290   4.983  11.224  0.00  0.00    +0.000 C 
ATOM      9  C   UNL     1      43.096   4.169  11.767  0.00  0.00    +0.000 C 
ATOM     10  C   UNL     1      43.374   2.662  11.789  0.00  0.00    +0.000 C 
ATOM     11  N   UNL     1      43.778   2.151  10.482  0.00  0.00    +0.000 NA
ATOM     12  C   UNL     1      44.932   2.871   9.945  0.00  0.00    +0.000 C 
ATOM     13  C   UNL     1      44.693   4.379   9.863  0.00  0.00    +0.000 C 
ATOM     14  H   UNL     1      42.995   2.240   9.830  0.00  0.00    +0.000 HD
ENDBRANCH   6   8
ENDBRANCH   1   2
BRANCH   1  15
ATOM     15  C   UNL     1      47.140   3.997  16.311  0.00  0.00    +0.000 C 
BRANCH  15  20
ATOM     16  C   UNL     1      50.574   3.128  17.648  0.00  0.00    +0.000 A 
ATOM     17  C   UNL     1      50.896   4.314  18.304  0.00  0.00    +0.000 A 
ATOM     18  C   UNL     1      49.965   5.335  18.279  0.00  0.00    +0.000 A 
ATOM     19  N   UNL     1      48.767   5.239  17.663  0.00  0.00    +0.000 NA
ATOM     20  C   UNL     1      48.481   4.086  17.004  0.00  0.00    +0.000 A 
ATOM     21  C   UNL     1      49.361   3.012  16.972  0.00  0.00    +0.000 A 
BRANCH  16  23
ATOM     22  N   UNL     1      52.578   2.024  18.465  0.00  0.00    +0.000 N 
ATOM     23  C   UNL     1      51.500   1.969  17.629  0.00  0.00    +0.000 C 
ATOM     24  O   UNL     1      51.284   0.986  16.934  0.00  0.00    +0.000 OA
ATOM     25  H   UNL     1      53.124   1.174  18.535  0.00  0.00    +0.000 HD
ATOM     26  H   UNL     1      52.635   2.677  19.233  0.00  0.00    +0.000 HD
ENDBRANCH  16  23
ENDBRANCH  15  20
ENDBRANCH   1  15
TORSDOF 5
ENDMDL
MODEL 3
REMARK VINA RESULT:    -6.844      4.307      8.399
REMARK INTER + INTRA:          -9.380
REMARK INTER:                  -9.241
REMARK INTRA:                  -0.139
REMARK UNBOUND:                -0.536
REMARK  Name = 
REMARK  5 active torsions:
REMARK  status: ('A' for Active; 'I' for Inactive)
REMARK    1  A    between atoms: C_2  and  C_4
REMARK    2  A    between atoms: C_8  and  C_9
REMARK    3  A    between atoms: C_9  and  O_10
REMARK    4  A    between atoms: O_10  and  C_11
REMARK    5  A    between atoms: C_15  and  C_16
REMARK                            x       y       z     vdW  Elec       q    Type
REMARK                         _______ _______ _______ _____ _____    ______ ____
ROOT
ATOM      1  O   UNL     1      47.423   3.256  14.622  0.00  0.00    +0.000 OA
ENDROOT
BRANCH   1   2
ATOM      2  C   UNL     1      46.920   4.245  13.825  0.00  0.00    +0.000 A 
ATOM      3  C   UNL     1      47.401   5.529  14.016  0.00  0.00    +0.000 A 
ATOM      4  N   UNL     1      46.980   6.608  13.316  0.00  0.00    +0.000 NA
ATOM      5  C   UNL     1      46.019   6.391  12.388  0.00  0.00    +0.000 A 
ATOM      6  C   UNL     1      45.453   5.148  12.105  0.00  0.00    +0.000 A 
ATOM      7  C   UNL     1      45.914   4.074  12.878  0.00  0.00    +0.000 A 
BRANCH   6   8
ATOM      8  C   UNL     1      44.344   5.019  11.068  0.00  0.00    +0.000 C 
ATOM      9  C   UNL     1      43.090   4.234  11.511  0.00  0.00    +0.000 C 
ATOM     10  C   UNL     1      43.322   2.719  11.528  0.00  0.00    +0.000 C 
ATOM     11  N   UNL     1      43.804   2.215  10.245  0.00  0.00    +0.000 NA
ATOM     12  C   UNL     1      45.015   2.907   9.805  0.00  0.00    +0.000 C 
ATOM     13  C   UNL     1      44.827   4.422   9.730  0.00  0.00    +0.000 C 
ATOM     14  H   UNL     1      43.074   2.337   9.540  0.00  0.00    +0.000 HD
ENDBRANCH   6   8
ENDBRANCH   1   2
BRANCH   1  15
ATOM     15  C   UNL     1      47.385   3.520  16.030  0.00  0.00    +0.000 C 
BRANCH  15  20
ATOM     16  C   UNL     1      50.562   3.695  18.081  0.00  0.00    +0.000 A 
ATOM     17  C   UNL     1      51.164   2.493  17.715  0.00  0.00    +0.000 A 
ATOM     18  C   UNL     1      50.498   1.691  16.809  0.00  0.00    +0.000 A 
ATOM     19  N   UNL     1      49.307   2.014  16.259  0.00  0.00    +0.000 NA
ATOM     20  C   UNL     1      48.721   3.177  16.647  0.00  0.00    +0.000 A 
ATOM     21  C   UNL     1      49.317   4.039  17.558  0.00  0.00    +0.000 A 
BRANCH  16  23
ATOM     22  N   UNL     1      52.171   4.118  19.851  0.00  0.00    +0.000 N 
ATOM     23  C   UNL     1      51.204   4.632  19.036  0.00  0.00    +0.000 C 
ATOM     24  O   UNL     1      50.916   5.820  19.061  0.00  0.00    +0.000 OA
ATOM     25  H   UNL     1      52.687   4.795  20.402  0.00  0.00    +0.000 HD
ATOM     26  H   UNL     1      52.617   3.231  19.671  0.00  0.00    +0.000 HD
ENDBRANCH  16  23
ENDBRANCH  15  20
ENDBRANCH   1  15
TORSDOF 5
ENDMDL
MODEL 4
REMARK VINA RESULT:    -6.715      3.730      8.083
REMARK INTER + INTRA:          -9.214
REMARK INTER:                  -8.561
REMARK INTRA:                  -0.653
REMARK UNBOUND:                -0.536
REMARK  Name = 
REMARK  5 active torsions:
REMARK  status: ('A' for Active; 'I' for Inactive)
REMARK    1  A    between atoms: C_2  and  C_4
REMARK    2  A    between atoms: C_8  and  C_9
REMARK    3  A    between atoms: C_9  and  O_10
REMARK    4  A    between atoms: O_10  and  C_11
REMARK    5  A    between atoms: C_15  and  C_16
REMARK                            x       y       z     vdW  Elec       q    Type
REMARK                         _______ _______ _______ _____ _____    ______ ____
ROOT
ATOM      1  O   UNL     1      48.487   6.075  13.821  0.00  0.00    +0.000 OA
ENDROOT
BRANCH   1   2
ATOM      2  C   UNL     1      47.326   6.493  13.237  0.00  0.00    +0.000 A 
ATOM      3  C   UNL     1      47.322   7.741  12.637  0.00  0.00    +0.000 A 
ATOM      4  N   UNL     1      46.239   8.293  12.040  0.00  0.00    +0.000 NA
ATOM      5  C   UNL     1      45.101   7.561  12.055  0.00  0.00    +0.000 A 
ATOM      6  C   UNL     1      44.976   6.296  12.629  0.00  0.00    +0.000 A 
ATOM      7  C   UNL     1      46.125   5.788  13.252  0.00  0.00    +0.000 A 
BRANCH   6   8
ATOM      8  C   UNL     1      43.634   5.574  12.630  0.00  0.00    +0.000 C 
ATOM      9  C   UNL     1      43.650   4.114  13.132  0.00  0.00    +0.000 C 
ATOM     10  C   UNL     1      44.230   3.144  12.098  0.00  0.00    +0.000 C 
ATOM     11  N   UNL     1      43.544   3.225  10.812  0.00  0.00    +0.000 NA
ATOM     12  C   UNL     1      43.538   4.587  10.280  0.00  0.00    +0.000 C 
ATOM     13  C   UNL     1      42.931   5.594  11.257  0.00  0.00    +0.000 C 
ATOM     14  H   UNL     1      42.580   2.906  10.924  0.00  0.00    +0.000 HD
ENDBRANCH   6   8
ENDBRANCH   1   2
BRANCH   1  15
ATOM     15  C   UNL     1      49.091   7.008  14.726  0.00  0.00    +0.000 C 
BRANCH  15  20
ATOM     16  C   UNL     1      48.079   4.985  17.762  0.00  0.00    +0.000 A 
ATOM     17  C   UNL     1      48.241   5.940  18.765  0.00  0.00    +0.000 A 
ATOM     18  C   UNL     1      48.667   7.199  18.390  0.00  0.00    +0.000 A 
ATOM     19  N   UNL     1      48.925   7.551  17.112  0.00  0.00    +0.000 NA
ATOM     20  C   UNL     1      48.790   6.601  16.150  0.00  0.00    +0.000 A 
ATOM     21  C   UNL     1      48.373   5.308  16.438  0.00  0.00    +0.000 A 
BRANCH  16  23
ATOM     22  N   UNL     1      48.170   2.986  19.140  0.00  0.00    +0.000 N 
ATOM     23  C   UNL     1      47.612   3.609  18.061  0.00  0.00    +0.000 C 
ATOM     24  O   UNL     1      46.733   3.073  17.401  0.00  0.00    +0.000 OA
ATOM     25  H   UNL     1      47.749   2.105  19.405  0.00  0.00    +0.000 HD
ATOM     26  H   UNL     1      48.681   3.489  19.851  0.00  0.00    +0.000 HD
ENDBRANCH  16  23
ENDBRANCH  15  20
ENDBRANCH   1  15
TORSDOF 5
ENDMDL
MODEL 5
REMARK VINA RESULT:    -6.622      4.212      8.890
REMARK INTER + INTRA:          -9.093
REMARK INTER:                  -8.669
REMARK INTRA:                  -0.425
REMARK UNBOUND:                -0.536
REMARK  Name = 
REMARK  5 active torsions:
REMARK  status: ('A' for Active; 'I' for Inactive)
REMARK    1  A    between atoms: C_2  and  C_4
REMARK    2  A    between atoms: C_8  and  C_9
REMARK    3  A    between atoms: C_9  and  O_10
REMARK    4  A    between atoms: O_10  and  C_11
REMARK    5  A    between atoms: C_15  and  C_16
REMARK                            x       y       z     vdW  Elec       q    Type
REMARK                         _______ _______ _______ _____ _____    ______ ____
ROOT
ATOM      1  O   UNL     1      48.033   5.262  14.749  0.00  0.00    +0.000 OA
ENDROOT
BRANCH   1   2
ATOM      2  C   UNL     1      47.300   5.633  13.658  0.00  0.00    +0.000 A 
ATOM      3  C   UNL     1      47.897   6.484  12.744  0.00  0.00    +0.000 A 
ATOM      4  N   UNL     1      47.285   6.952  11.631  0.00  0.00    +0.000 NA
ATOM      5  C   UNL     1      46.007   6.555  11.431  0.00  0.00    +0.000 A 
ATOM      6  C   UNL     1      45.296   5.705  12.278  0.00  0.00    +0.000 A 
ATOM      7  C   UNL     1      45.976   5.273  13.425  0.00  0.00    +0.000 A 
BRANCH   6   8
ATOM      8  C   UNL     1      43.842   5.354  11.983  0.00  0.00    +0.000 C 
ATOM      9  C   UNL     1      43.202   4.291  12.901  0.00  0.00    +0.000 C 
ATOM     10  C   UNL     1      43.667   2.869  12.567  0.00  0.00    +0.000 C 
ATOM     11  N   UNL     1      43.443   2.525  11.167  0.00  0.00    +0.000 NA
ATOM     12  C   UNL     1      44.066   3.487  10.259  0.00  0.00    +0.000 C 
ATOM     13  C   UNL     1      43.605   4.920  10.522  0.00  0.00    +0.000 C 
ATOM     14  H   UNL     1      42.438   2.495  10.985  0.00  0.00    +0.000 HD
ENDBRANCH   6   8
ENDBRANCH   1   2
BRANCH   1  15
ATOM     15  C   UNL     1      47.317   4.528  15.750  0.00  0.00    +0.000 C 
BRANCH  15  20
ATOM     16  C   UNL     1      48.238   5.275  19.346  0.00  0.00    +0.000 A 
ATOM     17  C   UNL     1      49.501   4.689  19.408  0.00  0.00    +0.000 A 
ATOM     18  C   UNL     1      49.986   4.085  18.265  0.00  0.00    +0.000 A 
ATOM     19  N   UNL     1      49.309   4.041  17.098  0.00  0.00    +0.000 NA
ATOM     20  C   UNL     1      48.067   4.592  17.061  0.00  0.00    +0.000 A 
ATOM     21  C   UNL     1      47.499   5.214  18.165  0.00  0.00    +0.000 A 
BRANCH  16  23
ATOM     22  N   UNL     1      47.319   5.182  21.593  0.00  0.00    +0.000 N 
ATOM     23  C   UNL     1      47.636   5.960  20.515  0.00  0.00    +0.000 C 
ATOM     24  O   UNL     1      47.473   7.171  20.536  0.00  0.00    +0.000 OA
ATOM     25  H   UNL     1      47.031   5.682  22.426  0.00  0.00    +0.000 HD
ATOM     26  H   UNL     1      47.685   4.250  21.714  0.00  0.00    +0.000 HD
ENDBRANCH  16  23
ENDBRANCH  15  20
ENDBRANCH   1  15
TORSDOF 5
ENDMDL
MODEL 6
REMARK VINA RESULT:    -6.594      3.078      4.902
REMARK INTER + INTRA:          -9.058
REMARK INTER:                  -8.520
REMARK INTRA:                  -0.538
REMARK UNBOUND:                -0.536
REMARK  Name = 
REMARK  5 active torsions:
REMARK  status: ('A' for Active; 'I' for Inactive)
REMARK    1  A    between atoms: C_2  and  C_4
REMARK    2  A    between atoms: C_8  and  C_9
REMARK    3  A    between atoms: C_9  and  O_10
REMARK    4  A    between atoms: O_10  and  C_11
REMARK    5  A    between atoms: C_15  and  C_16
REMARK                            x       y       z     vdW  Elec       q    Type
REMARK                         _______ _______ _______ _____ _____    ______ ____
ROOT
ATOM      1  O   UNL     1      47.112   5.874  12.751  0.00  0.00    +0.000 OA
ENDROOT
BRANCH   1   2
ATOM      2  C   UNL     1      47.692   5.992  13.982  0.00  0.00    +0.000 A 
ATOM      3  C   UNL     1      48.601   7.020  14.167  0.00  0.00    +0.000 A 
ATOM      4  N   UNL     1      49.267   7.244  15.324  0.00  0.00    +0.000 NA
ATOM      5  C   UNL     1      49.018   6.387  16.342  0.00  0.00    +0.000 A 
ATOM      6  C   UNL     1      48.131   5.314  16.279  0.00  0.00    +0.000 A 
ATOM      7  C   UNL     1      47.489   5.120  15.048  0.00  0.00    +0.000 A 
BRANCH   6   8
ATOM      8  C   UNL     1      47.956   4.380  17.471  0.00  0.00    +0.000 C 
ATOM      9  C   UNL     1      49.048   4.461  18.560  0.00  0.00    +0.000 C 
ATOM     10  C   UNL     1      50.348   3.768  18.141  0.00  0.00    +0.000 C 
ATOM     11  N   UNL     1      50.136   2.380  17.744  0.00  0.00    +0.000 NA
ATOM     12  C   UNL     1      49.136   2.259  16.685  0.00  0.00    +0.000 C 
ATOM     13  C   UNL     1      47.801   2.900  17.067  0.00  0.00    +0.000 C 
ATOM     14  H   UNL     1      49.830   1.840  18.557  0.00  0.00    +0.000 HD
ENDBRANCH   6   8
ENDBRANCH   1   2
BRANCH   1  15
ATOM     15  C   UNL     1      45.707   6.146  12.704  0.00  0.00    +0.000 C 
BRANCH  15  20
ATOM     16  C   UNL     1      44.391   3.311  10.568  0.00  0.00    +0.000 A 
ATOM     17  C   UNL     1      43.567   2.665  11.488  0.00  0.00    +0.000 A 
ATOM     18  C   UNL     1      43.481   3.199  12.759  0.00  0.00    +0.000 A 
ATOM     19  N   UNL     1      44.143   4.309  13.150  0.00  0.00    +0.000 NA
ATOM     20  C   UNL     1      44.965   4.911  12.250  0.00  0.00    +0.000 A 
ATOM     21  C   UNL     1      45.116   4.438  10.953  0.00  0.00    +0.000 A 
BRANCH  16  23
ATOM     22  N   UNL     1      44.304   3.725   8.176  0.00  0.00    +0.000 N 
ATOM     23  C   UNL     1      44.539   2.824   9.175  0.00  0.00    +0.000 C 
ATOM     24  O   UNL     1      44.902   1.682   8.929  0.00  0.00    +0.000 OA
ATOM     25  H   UNL     1      44.535   3.414   7.240  0.00  0.00    +0.000 HD
ATOM     26  H   UNL     1      44.275   4.720   8.340  0.00  0.00    +0.000 HD
ENDBRANCH  16  23
ENDBRANCH  15  20
ENDBRANCH   1  15
TORSDOF 5
ENDMDL
MODEL 7
REMARK VINA RESULT:    -6.574      3.795      7.830
REMARK INTER + INTRA:          -9.032
REMARK INTER:                  -8.779
REMARK INTRA:                  -0.253
REMARK UNBOUND:                -0.536
REMARK  Name = 
REMARK  5 active torsions:
REMARK  status: ('A' for Active; 'I' for Inactive)
REMARK    1  A    between atoms: C_2  and  C_4
REMARK    2  A    between atoms: C_8  and  C_9
REMARK    3  A    between atoms: C_9  and  O_10
REMARK    4  A    between atoms: O_10  and  C_11
REMARK    5  A    between atoms: C_15  and  C_16
REMARK                            x       y       z     vdW  Elec       q    Type
REMARK                         _______ _______ _______ _____ _____    ______ ____
ROOT
ATOM      1  O   UNL     1      49.002   6.570  14.702  0.00  0.00    +0.000 OA
ENDROOT
BRANCH   1   2
ATOM      2  C   UNL     1      47.816   6.675  14.033  0.00  0.00    +0.000 A 
ATOM      3  C   UNL     1      47.412   7.940  13.639  0.00  0.00    +0.000 A 
ATOM      4  N   UNL     1      46.253   8.197  12.989  0.00  0.00    +0.000 NA
ATOM      5  C   UNL     1      45.454   7.136  12.731  0.00  0.00    +0.000 A 
ATOM      6  C   UNL     1      45.747   5.817  13.079  0.00  0.00    +0.000 A 
ATOM      7  C   UNL     1      46.950   5.618  13.770  0.00  0.00    +0.000 A 
BRANCH   6   8
ATOM      8  C   UNL     1      44.756   4.699  12.781  0.00  0.00    +0.000 C 
ATOM      9  C   UNL     1      45.025   3.878  11.500  0.00  0.00    +0.000 C 
ATOM     10  C   UNL     1      44.635   4.634  10.226  0.00  0.00    +0.000 C 
ATOM     11  N   UNL     1      43.248   5.088  10.250  0.00  0.00    +0.000 NA
ATOM     12  C   UNL     1      42.958   5.902  11.430  0.00  0.00    +0.000 C 
ATOM     13  C   UNL     1      43.291   5.179  12.735  0.00  0.00    +0.000 C 
ATOM     14  H   UNL     1      42.628   4.275  10.244  0.00  0.00    +0.000 HD
ENDBRANCH   6   8
ENDBRANCH   1   2
BRANCH   1  15
ATOM     15  C   UNL     1      48.982   7.017  16.063  0.00  0.00    +0.000 C 
BRANCH  15  20
ATOM     16  C   UNL     1      49.381   3.534  17.492  0.00  0.00    +0.000 A 
ATOM     17  C   UNL     1      48.740   3.691  18.719  0.00  0.00    +0.000 A 
ATOM     18  C   UNL     1      48.204   4.930  19.009  0.00  0.00    +0.000 A 
ATOM     19  N   UNL     1      48.263   5.986  18.169  0.00  0.00    +0.000 NA
ATOM     20  C   UNL     1      48.916   5.825  16.989  0.00  0.00    +0.000 A 
ATOM     21  C   UNL     1      49.490   4.615  16.619  0.00  0.00    +0.000 A 
BRANCH  16  23
ATOM     22  N   UNL     1      50.907   1.692  17.917  0.00  0.00    +0.000 N 
ATOM     23  C   UNL     1      49.976   2.239  17.081  0.00  0.00    +0.000 C 
ATOM     24  O   UNL     1      49.617   1.661  16.064  0.00  0.00    +0.000 OA
ATOM     25  H   UNL     1      51.204   0.751  17.688  0.00  0.00    +0.000 HD
ATOM     26  H   UNL     1      51.020   1.995  18.873  0.00  0.00    +0.000 HD
ENDBRANCH  16  23
ENDBRANCH  15  20
ENDBRANCH   1  15
TORSDOF 5
ENDMDL
MODEL 8
REMARK VINA RESULT:    -6.565      2.708      7.403
REMARK INTER + INTRA:          -9.021
REMARK INTER:                  -8.446
REMARK INTRA:                  -0.575
REMARK UNBOUND:                -0.536
REMARK  Name = 
REMARK  5 active torsions:
REMARK  status: ('A' for Active; 'I' for Inactive)
REMARK    1  A    between atoms: C_2  and  C_4
REMARK    2  A    between atoms: C_8  and  C_9
REMARK    3  A    between atoms: C_9  and  O_10
REMARK    4  A    between atoms: O_10  and  C_11
REMARK    5  A    between atoms: C_15  and  C_16
REMARK                            x       y       z     vdW  Elec       q    Type
REMARK                         _______ _______ _______ _____ _____    ______ ____
ROOT
ATOM      1  O   UNL     1      47.054   6.802  12.263  0.00  0.00    +0.000 OA
ENDROOT
BRANCH   1   2
ATOM      2  C   UNL     1      46.317   5.663  12.105  0.00  0.00    +0.000 A 
ATOM      3  C   UNL     1      46.220   4.806  13.188  0.00  0.00    +0.000 A 
ATOM      4  N   UNL     1      45.543   3.634  13.170  0.00  0.00    +0.000 NA
ATOM      5  C   UNL     1      44.943   3.299  12.004  0.00  0.00    +0.000 A 
ATOM      6  C   UNL     1      44.970   4.073  10.844  0.00  0.00    +0.000 A 
ATOM      7  C   UNL     1      45.706   5.264  10.919  0.00  0.00    +0.000 A 
BRANCH   6   8
ATOM      8  C   UNL     1      44.297   3.583   9.568  0.00  0.00    +0.000 C 
ATOM      9  C   UNL     1      44.418   2.071   9.276  0.00  0.00    +0.000 C 
ATOM     10  C   UNL     1      45.806   1.683   8.756  0.00  0.00    +0.000 C 
ATOM     11  N   UNL     1      46.196   2.454   7.580  0.00  0.00    +0.000 NA
ATOM     12  C   UNL     1      46.133   3.894   7.824  0.00  0.00    +0.000 C 
ATOM     13  C   UNL     1      44.754   4.345   8.307  0.00  0.00    +0.000 C 
ATOM     14  H   UNL     1      45.576   2.219   6.803  0.00  0.00    +0.000 HD
ENDBRANCH   6   8
ENDBRANCH   1   2
BRANCH   1  15
ATOM     15  C   UNL     1      46.552   7.730  13.232  0.00  0.00    +0.000 C 
BRANCH  15  20
ATOM     16  C   UNL     1      44.468  10.407  11.552  0.00  0.00    +0.000 A 
ATOM     17  C   UNL     1      45.453  11.352  11.269  0.00  0.00    +0.000 A 
ATOM     18  C   UNL     1      46.751  11.057  11.638  0.00  0.00    +0.000 A 
ATOM     19  N   UNL     1      47.111   9.907  12.248  0.00  0.00    +0.000 NA
ATOM     20  C   UNL     1      46.135   9.008  12.542  0.00  0.00    +0.000 A 
ATOM     21  C   UNL     1      44.804   9.226  12.212  0.00  0.00    +0.000 A 
BRANCH  16  23
ATOM     22  N   UNL     1      42.209  11.054  12.170  0.00  0.00    +0.000 N 
ATOM     23  C   UNL     1      43.048  10.624  11.182  0.00  0.00    +0.000 C 
ATOM     24  O   UNL     1      42.653  10.471  10.034  0.00  0.00    +0.000 OA
ATOM     25  H   UNL     1      41.279  11.320  11.871  0.00  0.00    +0.000 HD
ATOM     26  H   UNL     1      42.549  11.446  13.035  0.00  0.00    +0.000 HD
ENDBRANCH  16  23
ENDBRANCH  15  20
ENDBRANCH   1  15
TORSDOF 5
ENDMDL
MODEL 9
REMARK VINA RESULT:    -6.525      3.574      6.933
REMARK INTER + INTRA:          -8.968
REMARK INTER:                  -8.277
REMARK INTRA:                  -0.691
REMARK UNBOUND:                -0.536
REMARK  Name = 
REMARK  5 active torsions:
REMARK  status: ('A' for Active; 'I' for Inactive)
REMARK    1  A    between atoms: C_2  and  C_4
REMARK    2  A    between atoms: C_8  and  C_9
REMARK    3  A    between atoms: C_9  and  O_10
REMARK    4  A    between atoms: O_10  and  C_11
REMARK    5  A    between atoms: C_15  and  C_16
REMARK                            x       y       z     vdW  Elec       q    Type
REMARK                         _______ _______ _______ _____ _____    ______ ____
ROOT
ATOM      1  O   UNL     1      47.570   8.021  11.956  0.00  0.00    +0.000 OA
ENDROOT
BRANCH   1   2
ATOM      2  C   UNL     1      47.253   6.843  12.570  0.00  0.00    +0.000 A 
ATOM      3  C   UNL     1      48.002   6.474  13.675  0.00  0.00    +0.000 A 
ATOM      4  N   UNL     1      47.816   5.326  14.368  0.00  0.00    +0.000 NA
ATOM      5  C   UNL     1      46.839   4.502  13.923  0.00  0.00    +0.000 A 
ATOM      6  C   UNL     1      46.021   4.758  12.823  0.00  0.00    +0.000 A 
ATOM      7  C   UNL     1      46.277   5.952  12.133  0.00  0.00    +0.000 A 
BRANCH   6   8
ATOM      8  C   UNL     1      44.977   3.741  12.379  0.00  0.00    +0.000 C 
ATOM      9  C   UNL     1      44.581   3.784  10.887  0.00  0.00    +0.000 C 
ATOM     10  C   UNL     1      43.652   4.958  10.560  0.00  0.00    +0.000 C 
ATOM     11  N   UNL     1      42.457   4.973  11.398  0.00  0.00    +0.000 NA
ATOM     12  C   UNL     1      42.787   4.971  12.823  0.00  0.00    +0.000 C 
ATOM     13  C   UNL     1      43.681   3.794  13.214  0.00  0.00    +0.000 C 
ATOM     14  H   UNL     1      41.887   4.151  11.186  0.00  0.00    +0.000 HD
ENDBRANCH   6   8
ENDBRANCH   1   2
BRANCH   1  15
ATOM     15  C   UNL     1      47.311   9.204  12.724  0.00  0.00    +0.000 C 
BRANCH  15  20
ATOM     16  C   UNL     1      44.057  10.233  11.086  0.00  0.00    +0.000 A 
ATOM     17  C   UNL     1      44.330  11.569  10.802  0.00  0.00    +0.000 A 
ATOM     18  C   UNL     1      45.571  12.060  11.157  0.00  0.00    +0.000 A 
ATOM     19  N   UNL     1      46.527  11.316  11.753  0.00  0.00    +0.000 NA
ATOM     20  C   UNL     1      46.235  10.022  12.049  0.00  0.00    +0.000 A 
ATOM     21  C   UNL     1      45.010   9.448  11.733  0.00  0.00    +0.000 A 
BRANCH  16  23
ATOM     22  N   UNL     1      42.624   8.273  10.986  0.00  0.00    +0.000 N 
ATOM     23  C   UNL     1      42.759   9.608  10.731  0.00  0.00    +0.000 C 
ATOM     24  O   UNL     1      41.834  10.265  10.276  0.00  0.00    +0.000 OA
ATOM     25  H   UNL     1      41.694   7.893  10.860  0.00  0.00    +0.000 HD
ATOM     26  H   UNL     1      43.250   7.773  11.600  0.00  0.00    +0.000 HD
ENDBRANCH  16  23
ENDBRANCH  15  20
ENDBRANCH   1  15
TORSDOF 5
ENDMDL
