MODEL 1
REMARK VINA RESULT:    -7.560      0.000      0.000
REMARK INTER + INTRA:         -10.227
REMARK INTER:                  -9.327
REMARK INTRA:                  -0.899
REMARK UNBOUND:                -0.899
REMARK  Name = 
REMARK  4 active torsions:
REMARK  status: ('A' for Active; 'I' for Inactive)
REMARK    1  A    between atoms: C_4  and  O_5
REMARK    2  A    between atoms: O_5  and  C_6
REMARK    3  A    between atoms: C_6  and  C_7
REMARK    4  A    between atoms: C_11  and  C_12
REMARK                            x       y       z     vdW  Elec       q    Type
REMARK                         _______ _______ _______ _____ _____    ______ ____
ROOT
ATOM      1  C   UNL     1      45.070   4.672  12.090  0.00  0.00    +0.000 A 
ATOM      2  C   UNL     1      45.400   3.569  12.874  0.00  0.00    +0.000 A 
ATOM      3  N   UNL     1      46.501   3.471  13.657  0.00  0.00    +0.000 NA
ATOM      4  C   UNL     1      47.350   4.525  13.643  0.00  0.00    +0.000 A 
ATOM      5  C   UNL     1      47.172   5.684  12.890  0.00  0.00    +0.000 A 
ATOM      6  C   UNL     1      46.000   5.724  12.116  0.00  0.00    +0.000 A 
ENDROOT
BRANCH   5   7
ATOM      7  C   UNL     1      48.131   6.809  12.904  0.00  0.00    +0.000 A 
ATOM      8  C   UNL     1      48.898   7.101  14.042  0.00  0.00    +0.000 A 
ATOM      9  C   UNL     1      49.808   8.147  14.006  0.00  0.00    +0.000 A 
ATOM     10  N   UNL     1      50.007   8.930  12.928  0.00  0.00    +0.000 NA
ATOM     11  C   UNL     1      49.261   8.653  11.840  0.00  0.00    +0.000 A 
ATOM     12  C   UNL     1      48.331   7.623  11.781  0.00  0.00    +0.000 A 
ENDBRANCH   5   7
BRANCH   1  13
ATOM     13  C   UNL     1      43.783   4.755  11.287  0.00  0.00    +0.000 C 
ATOM     14  C   UNL     1      42.519   5.180  12.025  0.00  0.00    +0.000 C 
ATOM     15  C   UNL     1      43.143   6.109  11.039  0.00  0.00    +0.000 C 
BRANCH  13  16
ATOM     16  O   UNL     1      43.520   3.705  10.318  0.00  0.00    +0.000 OA
BRANCH  16  20
ATOM     17  C   UNL     1      46.460   2.577   7.583  0.00  0.00    +0.000 A 
ATOM     18  C   UNL     1      45.819   1.638   8.390  0.00  0.00    +0.000 A 
ATOM     19  C   UNL     1      44.839   2.051   9.297  0.00  0.00    +0.000 A 
ATOM     20  C   UNL     1      44.506   3.402   9.410  0.00  0.00    +0.000 A 
ATOM     21  C   UNL     1      45.127   4.330   8.572  0.00  0.00    +0.000 A 
ATOM     22  C   UNL     1      46.109   3.921   7.670  0.00  0.00    +0.000 A 
ENDBRANCH  16  20
ENDBRANCH  13  16
ENDBRANCH   1  13
TORSDOF 4
ENDMDL
MODEL 2
REMARK VINA RESULT:    -6.940      2.723      6.518
REMARK INTER + INTRA:          -9.462
REMARK INTER:                  -8.733
REMARK INTRA:                  -0.728
REMARK UNBOUND:                -0.899
REMARK  Name = 
REMARK  4 active torsions:
REMARK  status: ('A' for Active; 'I' for Inactive)
REMARK    1  A    between atoms: C_4  and  O_5
REMARK    2  A    between atoms: O_5  and  C_6
REMARK    3  A    between atoms: C_6  and  C_7
REMARK    4  A    between atoms: C_11  and  C_12
REMARK                            x       y       z     vdW  Elec       q    Type
REMARK                         _______ _______ _______ _____ _____    ______ ____
ROOT
ATOM      1  C   UNL     1      45.022   5.039  11.173  0.00  0.00    +0.000 A 
ATOM      2  C   UNL     1      43.853   4.393  11.573  0.00  0.00    +0.000 A 
ATOM      3  N   UNL     1      43.345   3.277  10.997  0.00  0.00    +0.000 NA
ATOM      4  C   UNL     1      44.023   2.779   9.936  0.00  0.00    +0.000 A 
ATOM      5  C   UNL     1      45.187   3.329   9.403  0.00  0.00    +0.000 A 
ATOM      6  C   UNL     1      45.667   4.474  10.061  0.00  0.00    +0.000 A 
ENDROOT
BRANCH   5   7
ATOM      7  C   UNL     1      45.890   2.751   8.238  0.00  0.00    +0.000 A 
ATOM      8  C   UNL     1      46.197   3.529   7.111  0.00  0.00    +0.000 A 
ATOM      9  C   UNL     1      46.883   2.958   6.050  0.00  0.00    +0.000 A 
ATOM     10  N   UNL     1      47.278   1.670   6.020  0.00  0.00    +0.000 NA
ATOM     11  C   UNL     1      46.971   0.924   7.100  0.00  0.00    +0.000 A 
ATOM     12  C   UNL     1      46.295   1.410   8.210  0.00  0.00    +0.000 A 
ENDBRANCH   5   7
BRANCH   1  13
ATOM     13  C   UNL     1      45.584   6.247  11.902  0.00  0.00    +0.000 C 
ATOM     14  C   UNL     1      45.126   7.625  11.439  0.00  0.00    +0.000 C 
ATOM     15  C   UNL     1      44.663   7.100  12.757  0.00  0.00    +0.000 C 
BRANCH  13  16
ATOM     16  O   UNL     1      46.994   6.231  12.252  0.00  0.00    +0.000 OA
BRANCH  16  20
ATOM     17  C   UNL     1      48.131   5.217  16.134  0.00  0.00    +0.000 A 
ATOM     18  C   UNL     1      48.589   6.384  15.524  0.00  0.00    +0.000 A 
ATOM     19  C   UNL     1      48.189   6.692  14.220  0.00  0.00    +0.000 A 
ATOM     20  C   UNL     1      47.342   5.832  13.520  0.00  0.00    +0.000 A 
ATOM     21  C   UNL     1      46.860   4.685  14.152  0.00  0.00    +0.000 A 
ATOM     22  C   UNL     1      47.262   4.372  15.451  0.00  0.00    +0.000 A 
ENDBRANCH  16  20
ENDBRANCH  13  16
ENDBRANCH   1  13
TORSDOF 4
ENDMDL
MODEL 3
REMARK VINA RESULT:    -6.723      2.039      3.222
REMARK INTER + INTRA:          -9.194
REMARK INTER:                  -8.911
REMARK INTRA:                  -0.283
REMARK UNBOUND:                -0.899
REMARK  Name = 
REMARK  4 active torsions:
REMARK  status: ('A' for Active; 'I' for Inactive)
REMARK    1  A    between atoms: C_4  and  O_5
REMARK    2  A    between atoms: O_5  and  C_6
REMARK    3  A    between atoms: C_6  and  C_7
REMARK    4  A    between atoms: C_11  and  C_12
REMARK                            x       y       z     vdW  Elec       q    Type
REMARK                         _______ _______ _______ _____ _____    ______ ____
ROOT
ATOM      1  C   UNL     1      45.415   5.400  12.423  0.00  0.00    +0.000 A 
ATOM      2  C   UNL     1      46.176   6.407  11.834  0.00  0.00    +0.000 A 
ATOM      3  N   UNL     1      47.347   6.884  12.320  0.00  0.00    +0.000 NA
ATOM      4  C   UNL     1      47.784   6.347  13.483  0.00  0.00    +0.000 A 
ATOM      5  C   UNL     1      47.120   5.356  14.204  0.00  0.00    +0.000 A 
ATOM      6  C   UNL     1      45.922   4.896  13.633  0.00  0.00    +0.000 A 
ENDROOT
BRANCH   5   7
ATOM      7  C   UNL     1      47.635   4.804  15.476  0.00  0.00    +0.000 A 
ATOM      8  C   UNL     1      48.451   5.566  16.326  0.00  0.00    +0.000 A 
ATOM      9  C   UNL     1      48.890   5.022  17.524  0.00  0.00    +0.000 A 
ATOM     10  N   UNL     1      48.588   3.775  17.935  0.00  0.00    +0.000 NA
ATOM     11  C   UNL     1      47.813   3.043  17.111  0.00  0.00    +0.000 A 
ATOM     12  C   UNL     1      47.321   3.505  15.897  0.00  0.00    +0.000 A 
ENDBRANCH   5   7
BRANCH   1  13
ATOM     13  C   UNL     1      44.144   4.854  11.794  0.00  0.00    +0.000 C 
ATOM     14  C   UNL     1      42.840   5.052  12.557  0.00  0.00    +0.000 C 
ATOM     15  C   UNL     1      43.081   5.819  11.301  0.00  0.00    +0.000 C 
BRANCH  13  16
ATOM     16  O   UNL     1      44.210   3.551  11.157  0.00  0.00    +0.000 OA
BRANCH  16  20
ATOM     17  C   UNL     1      46.186   3.030   7.521  0.00  0.00    +0.000 A 
ATOM     18  C   UNL     1      45.784   1.941   8.293  0.00  0.00    +0.000 A 
ATOM     19  C   UNL     1      45.125   2.152   9.507  0.00  0.00    +0.000 A 
ATOM     20  C   UNL     1      44.877   3.448   9.960  0.00  0.00    +0.000 A 
ATOM     21  C   UNL     1      45.250   4.532   9.163  0.00  0.00    +0.000 A 
ATOM     22  C   UNL     1      45.913   4.325   7.953  0.00  0.00    +0.000 A 
ENDBRANCH  16  20
ENDBRANCH  13  16
ENDBRANCH   1  13
TORSDOF 4
ENDMDL
MODEL 4
REMARK VINA RESULT:    -6.715      3.256      6.641
REMARK INTER + INTRA:          -9.184
REMARK INTER:                  -8.543
REMARK INTRA:                  -0.641
REMARK UNBOUND:                -0.899
REMARK  Name = 
REMARK  4 active torsions:
REMARK  status: ('A' for Active; 'I' for Inactive)
REMARK    1  A    between atoms: C_4  and  O_5
REMARK    2  A    between atoms: O_5  and  C_6
REMARK    3  A    between atoms: C_6  and  C_7
REMARK    4  A    between atoms: C_11  and  C_12
REMARK                            x       y       z     vdW  Elec       q    Type
REMARK                         _______ _______ _______ _____ _____    ______ ____
ROOT
ATOM      1  C   UNL     1      45.095   6.251  11.432  0.00  0.00    +0.000 A 
ATOM      2  C   UNL     1      43.736   6.054  11.667  0.00  0.00    +0.000 A 
ATOM      3  N   UNL     1      42.976   5.097  11.083  0.00  0.00    +0.000 NA
ATOM      4  C   UNL     1      43.595   4.296  10.184  0.00  0.00    +0.000 A 
ATOM      5  C   UNL     1      44.938   4.389   9.823  0.00  0.00    +0.000 A 
ATOM      6  C   UNL     1      45.670   5.392  10.481  0.00  0.00    +0.000 A 
ENDROOT
BRANCH   5   7
ATOM      7  C   UNL     1      45.569   3.493   8.831  0.00  0.00    +0.000 A 
ATOM      8  C   UNL     1      46.217   4.003   7.695  0.00  0.00    +0.000 A 
ATOM      9  C   UNL     1      46.822   3.131   6.802  0.00  0.00    +0.000 A 
ATOM     10  N   UNL     1      46.823   1.791   6.947  0.00  0.00    +0.000 NA
ATOM     11  C   UNL     1      46.191   1.306   8.034  0.00  0.00    +0.000 A 
ATOM     12  C   UNL     1      45.564   2.100   8.984  0.00  0.00    +0.000 A 
ENDBRANCH   5   7
BRANCH   1  13
ATOM     13  C   UNL     1      45.914   7.296  12.172  0.00  0.00    +0.000 C 
ATOM     14  C   UNL     1      46.937   6.799  13.187  0.00  0.00    +0.000 C 
ATOM     15  C   UNL     1      47.405   7.403  11.905  0.00  0.00    +0.000 C 
BRANCH  13  16
ATOM     16  O   UNL     1      45.230   8.492  12.630  0.00  0.00    +0.000 OA
BRANCH  16  20
ATOM     17  C   UNL     1      44.833  11.701   9.995  0.00  0.00    +0.000 A 
ATOM     18  C   UNL     1      43.893  10.671  10.033  0.00  0.00    +0.000 A 
ATOM     19  C   UNL     1      44.059   9.610  10.929  0.00  0.00    +0.000 A 
ATOM     20  C   UNL     1      45.166   9.568  11.776  0.00  0.00    +0.000 A 
ATOM     21  C   UNL     1      46.082  10.621  11.756  0.00  0.00    +0.000 A 
ATOM     22  C   UNL     1      45.923  11.678  10.860  0.00  0.00    +0.000 A 
ENDBRANCH  16  20
ENDBRANCH  13  16
ENDBRANCH   1  13
TORSDOF 4
ENDMDL
MODEL 5
REMARK VINA RESULT:    -6.190      1.864      2.331
REMARK INTER + INTRA:          -8.537
REMARK INTER:                  -7.816
REMARK INTRA:                  -0.721
REMARK UNBOUND:                -0.899
REMARK  Name = 
REMARK  4 active torsions:
REMARK  status: ('A' for Active; 'I' for Inactive)
REMARK    1  A    between atoms: C_4  and  O_5
REMARK    2  A    between atoms: O_5  and  C_6
REMARK    3  A    between atoms: C_6  and  C_7
REMARK    4  A    between atoms: C_11  and  C_12
REMARK                            x       y       z     vdW  Elec       q    Type
REMARK                         _______ _______ _______ _____ _____    ______ ____
ROOT
ATOM      1  C   UNL     1      44.859   6.631  12.117  0.00  0.00    +0.000 A 
ATOM      2  C   UNL     1      44.410   7.851  11.614  0.00  0.00    +0.000 A 
ATOM      3  N   UNL     1      45.111   9.010  11.644  0.00  0.00    +0.000 NA
ATOM      4  C   UNL     1      46.328   8.968  12.235  0.00  0.00    +0.000 A 
ATOM      5  C   UNL     1      46.899   7.833  12.807  0.00  0.00    +0.000 A 
ATOM      6  C   UNL     1      46.125   6.663  12.725  0.00  0.00    +0.000 A 
ENDROOT
BRANCH   5   7
ATOM      7  C   UNL     1      48.232   7.838  13.447  0.00  0.00    +0.000 A 
ATOM      8  C   UNL     1      48.480   7.110  14.621  0.00  0.00    +0.000 A 
ATOM      9  C   UNL     1      49.752   7.117  15.175  0.00  0.00    +0.000 A 
ATOM     10  N   UNL     1      50.791   7.799  14.657  0.00  0.00    +0.000 NA
ATOM     11  C   UNL     1      50.545   8.505  13.535  0.00  0.00    +0.000 A 
ATOM     12  C   UNL     1      49.308   8.553  12.906  0.00  0.00    +0.000 A 
ENDBRANCH   5   7
BRANCH   1  13
ATOM     13  C   UNL     1      44.059   5.346  11.991  0.00  0.00    +0.000 C 
ATOM     14  C   UNL     1      42.925   5.122  12.985  0.00  0.00    +0.000 C 
ATOM     15  C   UNL     1      42.606   5.410  11.557  0.00  0.00    +0.000 C 
BRANCH  13  16
ATOM     16  O   UNL     1      44.786   4.121  11.710  0.00  0.00    +0.000 OA
BRANCH  16  20
ATOM     17  C   UNL     1      45.626   3.076   7.761  0.00  0.00    +0.000 A 
ATOM     18  C   UNL     1      45.132   2.142   8.671  0.00  0.00    +0.000 A 
ATOM     19  C   UNL     1      44.862   2.527   9.988  0.00  0.00    +0.000 A 
ATOM     20  C   UNL     1      45.097   3.838  10.402  0.00  0.00    +0.000 A 
ATOM     21  C   UNL     1      45.558   4.774   9.475  0.00  0.00    +0.000 A 
ATOM     22  C   UNL     1      45.834   4.392   8.162  0.00  0.00    +0.000 A 
ENDBRANCH  16  20
ENDBRANCH  13  16
ENDBRANCH   1  13
TORSDOF 4
ENDMDL
MODEL 6
REMARK VINA RESULT:    -5.874      2.933      6.925
REMARK INTER + INTRA:          -8.147
REMARK INTER:                  -7.558
REMARK INTRA:                  -0.589
REMARK UNBOUND:                -0.899
REMARK  Name = 
REMARK  4 active torsions:
REMARK  status: ('A' for Active; 'I' for Inactive)
REMARK    1  A    between atoms: C_4  and  O_5
REMARK    2  A    between atoms: O_5  and  C_6
REMARK    3  A    between atoms: C_6  and  C_7
REMARK    4  A    between atoms: C_11  and  C_12
REMARK                            x       y       z     vdW  Elec       q    Type
REMARK                         _______ _______ _______ _____ _____    ______ ____
ROOT
ATOM      1  C   UNL     1      46.991   7.407  12.974  0.00  0.00    +0.000 A 
ATOM      2  C   UNL     1      46.072   8.453  12.912  0.00  0.00    +0.000 A 
ATOM      3  N   UNL     1      44.937   8.449  12.172  0.00  0.00    +0.000 NA
ATOM      4  C   UNL     1      44.707   7.347  11.420  0.00  0.00    +0.000 A 
ATOM      5  C   UNL     1      45.546   6.235  11.355  0.00  0.00    +0.000 A 
ATOM      6  C   UNL     1      46.694   6.300  12.162  0.00  0.00    +0.000 A 
ENDROOT
BRANCH   5   7
ATOM      7  C   UNL     1      45.254   5.055  10.514  0.00  0.00    +0.000 A 
ATOM      8  C   UNL     1      44.607   3.926  11.040  0.00  0.00    +0.000 A 
ATOM      9  C   UNL     1      44.325   2.850  10.211  0.00  0.00    +0.000 A 
ATOM     10  N   UNL     1      44.647   2.807   8.903  0.00  0.00    +0.000 NA
ATOM     11  C   UNL     1      45.278   3.890   8.405  0.00  0.00    +0.000 A 
ATOM     12  C   UNL     1      45.594   5.014   9.155  0.00  0.00    +0.000 A 
ENDBRANCH   5   7
BRANCH   1  13
ATOM     13  C   UNL     1      48.211   7.438  13.879  0.00  0.00    +0.000 C 
ATOM     14  C   UNL     1      49.310   8.441  13.546  0.00  0.00    +0.000 C 
ATOM     15  C   UNL     1      48.462   8.651  14.755  0.00  0.00    +0.000 C 
BRANCH  13  16
ATOM     16  O   UNL     1      48.753   6.167  14.328  0.00  0.00    +0.000 OA
BRANCH  16  20
ATOM     17  C   UNL     1      47.368   4.497  17.890  0.00  0.00    +0.000 A 
ATOM     18  C   UNL     1      46.934   4.028  16.650  0.00  0.00    +0.000 A 
ATOM     19  C   UNL     1      47.418   4.613  15.476  0.00  0.00    +0.000 A 
ATOM     20  C   UNL     1      48.325   5.672  15.536  0.00  0.00    +0.000 A 
ATOM     21  C   UNL     1      48.781   6.109  16.780  0.00  0.00    +0.000 A 
ATOM     22  C   UNL     1      48.295   5.532  17.954  0.00  0.00    +0.000 A 
ENDBRANCH  16  20
ENDBRANCH  13  16
ENDBRANCH   1  13
TORSDOF 4
ENDMDL
MODEL 7
REMARK VINA RESULT:    -5.626      4.246      8.369
REMARK INTER + INTRA:          -7.840
REMARK INTER:                  -7.149
REMARK INTRA:                  -0.691
REMARK UNBOUND:                -0.899
REMARK  Name = 
REMARK  4 active torsions:
REMARK  status: ('A' for Active; 'I' for Inactive)
REMARK    1  A    between atoms: C_4  and  O_5
REMARK    2  A    between atoms: O_5  and  C_6
REMARK    3  A    between atoms: C_6  and  C_7
REMARK    4  A    between atoms: C_11  and  C_12
REMARK                            x       y       z     vdW  Elec       q    Type
REMARK                         _______ _______ _______ _____ _____    ______ ____
ROOT
ATOM      1  C   UNL     1      47.689   5.026  15.742  0.00  0.00    +0.000 A 
ATOM      2  C   UNL     1      48.559   5.905  15.100  0.00  0.00    +0.000 A 
ATOM      3  N   UNL     1      48.379   6.409  13.856  0.00  0.00    +0.000 NA
ATOM      4  C   UNL     1      47.276   5.995  13.187  0.00  0.00    +0.000 A 
ATOM      5  C   UNL     1      46.331   5.098  13.684  0.00  0.00    +0.000 A 
ATOM      6  C   UNL     1      46.572   4.630  14.987  0.00  0.00    +0.000 A 
ENDROOT
BRANCH   5   7
ATOM      7  C   UNL     1      45.144   4.671  12.913  0.00  0.00    +0.000 A 
ATOM      8  C   UNL     1      43.962   5.427  12.914  0.00  0.00    +0.000 A 
ATOM      9  C   UNL     1      42.880   5.008  12.154  0.00  0.00    +0.000 A 
ATOM     10  N   UNL     1      42.880   3.889  11.404  0.00  0.00    +0.000 NA
ATOM     11  C   UNL     1      44.013   3.160  11.416  0.00  0.00    +0.000 A 
ATOM     12  C   UNL     1      45.148   3.504  12.138  0.00  0.00    +0.000 A 
ENDBRANCH   5   7
BRANCH   1  13
ATOM     13  C   UNL     1      47.905   4.550  17.168  0.00  0.00    +0.000 C 
ATOM     14  C   UNL     1      48.315   3.096  17.370  0.00  0.00    +0.000 C 
ATOM     15  C   UNL     1      49.304   4.183  17.629  0.00  0.00    +0.000 C 
BRANCH  13  16
ATOM     16  O   UNL     1      46.964   4.995  18.181  0.00  0.00    +0.000 OA
BRANCH  16  20
ATOM     17  C   UNL     1      48.099   8.034  20.803  0.00  0.00    +0.000 A 
ATOM     18  C   UNL     1      47.733   6.771  21.268  0.00  0.00    +0.000 A 
ATOM     19  C   UNL     1      47.356   5.777  20.360  0.00  0.00    +0.000 A 
ATOM     20  C   UNL     1      47.333   6.043  18.991  0.00  0.00    +0.000 A 
ATOM     21  C   UNL     1      47.736   7.297  18.532  0.00  0.00    +0.000 A 
ATOM     22  C   UNL     1      48.106   8.294  19.436  0.00  0.00    +0.000 A 
ENDBRANCH  16  20
ENDBRANCH  13  16
ENDBRANCH   1  13
TORSDOF 4
ENDMDL
MODEL 8
REMARK VINA RESULT:    -5.431      3.392      5.095
REMARK INTER + INTRA:          -7.600
REMARK INTER:                  -7.211
REMARK INTRA:                  -0.390
REMARK UNBOUND:                -0.899
REMARK  Name = 
REMARK  4 active torsions:
REMARK  status: ('A' for Active; 'I' for Inactive)
REMARK    1  A    between atoms: C_4  and  O_5
REMARK    2  A    between atoms: O_5  and  C_6
REMARK    3  A    between atoms: C_6  and  C_7
REMARK    4  A    between atoms: C_11  and  C_12
REMARK                            x       y       z     vdW  Elec       q    Type
REMARK                         _______ _______ _______ _____ _____    ______ ____
ROOT
ATOM      1  C   UNL     1      47.353   5.538  14.057  0.00  0.00    +0.000 A 
ATOM      2  C   UNL     1      47.229   4.207  13.664  0.00  0.00    +0.000 A 
ATOM      3  N   UNL     1      47.363   3.138  14.485  0.00  0.00    +0.000 NA
ATOM      4  C   UNL     1      47.669   3.400  15.778  0.00  0.00    +0.000 A 
ATOM      5  C   UNL     1      47.854   4.674  16.311  0.00  0.00    +0.000 A 
ATOM      6  C   UNL     1      47.681   5.736  15.408  0.00  0.00    +0.000 A 
ENDROOT
BRANCH   5   7
ATOM      7  C   UNL     1      48.193   4.910  17.731  0.00  0.00    +0.000 A 
ATOM      8  C   UNL     1      49.399   4.448  18.281  0.00  0.00    +0.000 A 
ATOM      9  C   UNL     1      49.693   4.716  19.610  0.00  0.00    +0.000 A 
ATOM     10  N   UNL     1      48.876   5.398  20.435  0.00  0.00    +0.000 NA
ATOM     11  C   UNL     1      47.714   5.830  19.906  0.00  0.00    +0.000 A 
ATOM     12  C   UNL     1      47.337   5.617  18.587  0.00  0.00    +0.000 A 
ENDBRANCH   5   7
BRANCH   1  13
ATOM     13  C   UNL     1      47.120   6.701  13.107  0.00  0.00    +0.000 C 
ATOM     14  C   UNL     1      48.018   7.923  13.256  0.00  0.00    +0.000 C 
ATOM     15  C   UNL     1      48.171   7.037  12.065  0.00  0.00    +0.000 C 
BRANCH  13  16
ATOM     16  O   UNL     1      45.746   7.068  12.811  0.00  0.00    +0.000 OA
BRANCH  16  20
ATOM     17  C   UNL     1      43.150   4.242  11.177  0.00  0.00    +0.000 A 
ATOM     18  C   UNL     1      42.968   4.735  12.469  0.00  0.00    +0.000 A 
ATOM     19  C   UNL     1      43.859   5.681  12.985  0.00  0.00    +0.000 A 
ATOM     20  C   UNL     1      44.937   6.126  12.220  0.00  0.00    +0.000 A 
ATOM     21  C   UNL     1      45.090   5.654  10.916  0.00  0.00    +0.000 A 
ATOM     22  C   UNL     1      44.206   4.706  10.400  0.00  0.00    +0.000 A 
ENDBRANCH  16  20
ENDBRANCH  13  16
ENDBRANCH   1  13
TORSDOF 4
ENDMDL
MODEL 9
REMARK VINA RESULT:    -5.334      2.979      7.086
REMARK INTER + INTRA:          -7.481
REMARK INTER:                  -6.881
REMARK INTRA:                  -0.600
REMARK UNBOUND:                -0.899
REMARK  Name = 
REMARK  4 active torsions:
REMARK  status: ('A' for Active; 'I' for Inactive)
REMARK    1  A    between atoms: C_4  and  O_5
REMARK    2  A    between atoms: O_5  and  C_6
REMARK    3  A    between atoms: C_6  and  C_7
REMARK    4  A    between atoms: C_11  and  C_12
REMARK                            x       y       z     vdW  Elec       q    Type
REMARK                         _______ _______ _______ _____ _____    ______ ____
ROOT
ATOM      1  C   UNL     1      46.892   7.618  12.233  0.00  0.00    +0.000 A 
ATOM      2  C   UNL     1      45.764   8.399  12.475  0.00  0.00    +0.000 A 
ATOM      3  N   UNL     1      44.508   8.103  12.063  0.00  0.00    +0.000 NA
ATOM      4  C   UNL     1      44.360   6.969  11.338  0.00  0.00    +0.000 A 
ATOM      5  C   UNL     1      45.395   6.102  10.991  0.00  0.00    +0.000 A 
ATOM      6  C   UNL     1      46.667   6.463  11.467  0.00  0.00    +0.000 A 
ENDROOT
BRANCH   5   7
ATOM      7  C   UNL     1      45.185   4.877  10.191  0.00  0.00    +0.000 A 
ATOM      8  C   UNL     1      44.544   3.752  10.733  0.00  0.00    +0.000 A 
ATOM      9  C   UNL     1      44.339   2.631   9.941  0.00  0.00    +0.000 A 
ATOM     10  N   UNL     1      44.733   2.541   8.656  0.00  0.00    +0.000 NA
ATOM     11  C   UNL     1      45.357   3.619   8.143  0.00  0.00    +0.000 A 
ATOM     12  C   UNL     1      45.599   4.786   8.855  0.00  0.00    +0.000 A 
ENDBRANCH   5   7
BRANCH   1  13
ATOM     13  C   UNL     1      48.265   7.964  12.783  0.00  0.00    +0.000 C 
ATOM     14  C   UNL     1      48.824   7.078  13.891  0.00  0.00    +0.000 C 
ATOM     15  C   UNL     1      49.431   7.025  12.529  0.00  0.00    +0.000 C 
BRANCH  13  16
ATOM     16  O   UNL     1      48.573   9.367  13.000  0.00  0.00    +0.000 OA
BRANCH  16  20
ATOM     17  C   UNL     1      49.767  11.707   9.761  0.00  0.00    +0.000 A 
ATOM     18  C   UNL     1      48.442  11.688  10.195  0.00  0.00    +0.000 A 
ATOM     19  C   UNL     1      48.077  10.891  11.284  0.00  0.00    +0.000 A 
ATOM     20  C   UNL     1      49.028  10.102  11.932  0.00  0.00    +0.000 A 
ATOM     21  C   UNL     1      50.359  10.156  11.514  0.00  0.00    +0.000 A 
ATOM     22  C   UNL     1      50.725  10.946  10.424  0.00  0.00    +0.000 A 
ENDBRANCH  16  20
ENDBRANCH  13  16
ENDBRANCH   1  13
TORSDOF 4
ENDMDL
