MODEL 1
REMARK VINA RESULT:    -7.462      0.000      0.000
REMARK INTER + INTRA:          -9.292
REMARK INTER:                  -8.771
REMARK INTRA:                  -0.521
REMARK UNBOUND:                -0.521
REMARK  Name = 
REMARK  3 active torsions:
REMARK  status: ('A' for Active; 'I' for Inactive)
REMARK    1  A    between atoms: C_6  and  C_7
REMARK    2  A    between atoms: C_7  and  N_8
REMARK    3  A    between atoms: C_13  and  C_14
REMARK                            x       y       z     vdW  Elec       q    Type
REMARK                         _______ _______ _______ _____ _____    ______ ____
ROOT
ATOM      1  N   UNL     1      45.580   4.917   9.177  0.00  0.00    +0.000 N 
ATOM      2  C   UNL     1      45.435   5.469  10.432  0.00  0.00    +0.000 A 
ATOM      3  N   UNL     1      45.182   4.684  11.484  0.00  0.00    +0.000 NA
ATOM      4  C   UNL     1      44.907   5.292  12.645  0.00  0.00    +0.000 A 
ATOM      5  C   UNL     1      44.858   6.655  12.788  0.00  0.00    +0.000 A 
ATOM      6  C   UNL     1      45.190   7.409  11.675  0.00  0.00    +0.000 A 
ATOM      7  N   UNL     1      45.471   6.805  10.498  0.00  0.00    +0.000 NA
ATOM      8  H   UNL     1      45.453   5.633   8.473  0.00  0.00    +0.000 HD
ENDROOT
BRANCH   6   9
ATOM      9  C   UNL     1      45.331   8.890  11.734  0.00  0.00    +0.000 A 
ATOM     10  C   UNL     1      46.545   9.447  12.215  0.00  0.00    +0.000 A 
ATOM     11  C   UNL     1      46.778  10.825  12.258  0.00  0.00    +0.000 A 
ATOM     12  C   UNL     1      45.809  11.700  11.801  0.00  0.00    +0.000 A 
ATOM     13  C   UNL     1      44.598  11.198  11.333  0.00  0.00    +0.000 A 
ATOM     14  C   UNL     1      44.350   9.813  11.308  0.00  0.00    +0.000 A 
ATOM     15 CL   UNL     1      42.762   9.352  10.783  0.00  0.00    +0.000 Cl
ENDBRANCH   6   9
BRANCH   1  16
ATOM     16  C   UNL     1      44.956   3.626   8.927  0.00  0.00    +0.000 C 
BRANCH  16  22
ATOM     17  N   UNL     1      48.651   2.751   6.049  0.00  0.00    +0.000 N 
ATOM     18  C   UNL     1      47.658   2.244   6.861  0.00  0.00    +0.000 A 
ATOM     19  N   UNL     1      47.629   0.922   7.026  0.00  0.00    +0.000 NA
ATOM     20  C   UNL     1      46.642   0.446   7.802  0.00  0.00    +0.000 A 
ATOM     21  C   UNL     1      45.700   1.241   8.413  0.00  0.00    +0.000 A 
ATOM     22  C   UNL     1      45.810   2.600   8.193  0.00  0.00    +0.000 A 
ATOM     23  N   UNL     1      46.785   3.102   7.394  0.00  0.00    +0.000 NA
ATOM     24  H   UNL     1      49.004   2.008   5.461  0.00  0.00    +0.000 HD
ATOM     25  H   UNL     1      48.319   3.586   5.589  0.00  0.00    +0.000 HD
ENDBRANCH  16  22
ENDBRANCH   1  16
TORSDOF 3
ENDMDL
MODEL 2
REMARK VINA RESULT:    -7.242      2.999      4.493
REMARK INTER + INTRA:          -9.033
REMARK INTER:                  -8.809
REMARK INTRA:                  -0.225
REMARK UNBOUND:                -0.521
REMARK  Name = 
REMARK  3 active torsions:
REMARK  status: ('A' for Active; 'I' for Inactive)
REMARK    1  A    between atoms: C_6  and  C_7
REMARK    2  A    between atoms: C_7  and  N_8
REMARK    3  A    between atoms: C_13  and  C_14
REMARK                            x       y       z     vdW  Elec       q    Type
REMARK                         _______ _______ _______ _____ _____    ______ ____
ROOT
ATOM      1  N   UNL     1      44.504   2.780  11.561  0.00  0.00    +0.000 N 
ATOM      2  C   UNL     1      44.801   4.028  12.068  0.00  0.00    +0.000 A 
ATOM      3  N   UNL     1      44.254   5.119  11.525  0.00  0.00    +0.000 NA
ATOM      4  C   UNL     1      44.694   6.305  11.966  0.00  0.00    +0.000 A 
ATOM      5  C   UNL     1      45.673   6.437  12.918  0.00  0.00    +0.000 A 
ATOM      6  C   UNL     1      46.152   5.268  13.483  0.00  0.00    +0.000 A 
ATOM      7  N   UNL     1      45.714   4.066  13.047  0.00  0.00    +0.000 NA
ATOM      8  H   UNL     1      45.209   2.116  11.855  0.00  0.00    +0.000 HD
ENDROOT
BRANCH   6   9
ATOM      9  C   UNL     1      47.097   5.274  14.634  0.00  0.00    +0.000 A 
ATOM     10  C   UNL     1      47.006   4.242  15.604  0.00  0.00    +0.000 A 
ATOM     11  C   UNL     1      47.885   4.145  16.688  0.00  0.00    +0.000 A 
ATOM     12  C   UNL     1      48.903   5.071  16.832  0.00  0.00    +0.000 A 
ATOM     13  C   UNL     1      49.021   6.108  15.911  0.00  0.00    +0.000 A 
ATOM     14  C   UNL     1      48.126   6.222  14.831  0.00  0.00    +0.000 A 
ATOM     15 CL   UNL     1      48.349   7.618  13.825  0.00  0.00    +0.000 Cl
ENDBRANCH   6   9
BRANCH   1  16
ATOM     16  C   UNL     1      44.056   2.699  10.178  0.00  0.00    +0.000 C 
BRANCH  16  22
ATOM     17  N   UNL     1      47.137   0.287   7.460  0.00  0.00    +0.000 N 
ATOM     18  C   UNL     1      46.559   1.499   7.777  0.00  0.00    +0.000 A 
ATOM     19  N   UNL     1      46.916   2.549   7.037  0.00  0.00    +0.000 NA
ATOM     20  C   UNL     1      46.359   3.724   7.375  0.00  0.00    +0.000 A 
ATOM     21  C   UNL     1      45.466   3.876   8.409  0.00  0.00    +0.000 A 
ATOM     22  C   UNL     1      45.148   2.734   9.118  0.00  0.00    +0.000 A 
ATOM     23  N   UNL     1      45.716   1.541   8.811  0.00  0.00    +0.000 NA
ATOM     24  H   UNL     1      47.975   0.455   6.919  0.00  0.00    +0.000 HD
ATOM     25  H   UNL     1      47.233  -0.270   8.296  0.00  0.00    +0.000 HD
ENDBRANCH  16  22
ENDBRANCH   1  16
TORSDOF 3
ENDMDL
MODEL 3
REMARK VINA RESULT:    -6.976      4.192      7.618
REMARK INTER + INTRA:          -8.721
REMARK INTER:                  -8.113
REMARK INTRA:                  -0.608
REMARK UNBOUND:                -0.521
REMARK  Name = 
REMARK  3 active torsions:
REMARK  status: ('A' for Active; 'I' for Inactive)
REMARK    1  A    between atoms: C_6  and  C_7
REMARK    2  A    between atoms: C_7  and  N_8
REMARK    3  A    between atoms: C_13  and  C_14
REMARK                            x       y       z     vdW  Elec       q    Type
REMARK                         _______ _______ _______ _____ _____    ______ ____
ROOT
ATOM      1  N   UNL     1      48.443   6.470  13.631  0.00  0.00    +0.000 N 
ATOM      2  C   UNL     1      47.256   6.700  12.969  0.00  0.00    +0.000 A 
ATOM      3  N   UNL     1      46.536   7.791  13.245  0.00  0.00    +0.000 NA
ATOM      4  C   UNL     1      45.327   7.882  12.677  0.00  0.00    +0.000 A 
ATOM      5  C   UNL     1      44.805   6.914  11.857  0.00  0.00    +0.000 A 
ATOM      6  C   UNL     1      45.627   5.840  11.564  0.00  0.00    +0.000 A 
ATOM      7  N   UNL     1      46.851   5.739  12.130  0.00  0.00    +0.000 NA
ATOM      8  H   UNL     1      48.696   5.493  13.549  0.00  0.00    +0.000 HD
ENDROOT
BRANCH   6   9
ATOM      9  C   UNL     1      45.248   4.801  10.566  0.00  0.00    +0.000 A 
ATOM     10  C   UNL     1      45.644   4.969   9.214  0.00  0.00    +0.000 A 
ATOM     11  C   UNL     1      45.373   4.019   8.224  0.00  0.00    +0.000 A 
ATOM     12  C   UNL     1      44.708   2.852   8.557  0.00  0.00    +0.000 A 
ATOM     13  C   UNL     1      44.289   2.652   9.869  0.00  0.00    +0.000 A 
ATOM     14  C   UNL     1      44.542   3.615  10.863  0.00  0.00    +0.000 A 
ATOM     15 CL   UNL     1      43.877   3.259  12.426  0.00  0.00    +0.000 Cl
ENDBRANCH   6   9
BRANCH   1  16
ATOM     16  C   UNL     1      48.625   7.092  14.935  0.00  0.00    +0.000 C 
BRANCH  16  22
ATOM     17  N   UNL     1      47.082   3.172  17.160  0.00  0.00    +0.000 N 
ATOM     18  C   UNL     1      48.007   4.193  17.100  0.00  0.00    +0.000 A 
ATOM     19  N   UNL     1      48.991   4.170  18.000  0.00  0.00    +0.000 NA
ATOM     20  C   UNL     1      49.869   5.183  17.939  0.00  0.00    +0.000 A 
ATOM     21  C   UNL     1      49.799   6.201  17.016  0.00  0.00    +0.000 A 
ATOM     22  C   UNL     1      48.751   6.142  16.118  0.00  0.00    +0.000 A 
ATOM     23  N   UNL     1      47.838   5.140  16.175  0.00  0.00    +0.000 NA
ATOM     24  H   UNL     1      47.124   2.745  18.076  0.00  0.00    +0.000 HD
ATOM     25  H   UNL     1      46.183   3.512  16.851  0.00  0.00    +0.000 HD
ENDBRANCH  16  22
ENDBRANCH   1  16
TORSDOF 3
ENDMDL
MODEL 4
REMARK VINA RESULT:    -6.753      5.600      7.282
REMARK INTER + INTRA:          -8.458
REMARK INTER:                  -7.984
REMARK INTRA:                  -0.475
REMARK UNBOUND:                -0.521
REMARK  Name = 
REMARK  3 active torsions:
REMARK  status: ('A' for Active; 'I' for Inactive)
REMARK    1  A    between atoms: C_6  and  C_7
REMARK    2  A    between atoms: C_7  and  N_8
REMARK    3  A    between atoms: C_13  and  C_14
REMARK                            x       y       z     vdW  Elec       q    Type
REMARK                         _______ _______ _______ _____ _____    ______ ____
ROOT
ATOM      1  N   UNL     1      46.746   4.785  14.077  0.00  0.00    +0.000 N 
ATOM      2  C   UNL     1      47.400   4.278  15.180  0.00  0.00    +0.000 A 
ATOM      3  N   UNL     1      47.761   2.992  15.211  0.00  0.00    +0.000 NA
ATOM      4  C   UNL     1      48.259   2.528  16.365  0.00  0.00    +0.000 A 
ATOM      5  C   UNL     1      48.391   3.299  17.492  0.00  0.00    +0.000 A 
ATOM      6  C   UNL     1      48.055   4.636  17.373  0.00  0.00    +0.000 A 
ATOM      7  N   UNL     1      47.554   5.116  16.213  0.00  0.00    +0.000 NA
ATOM      8  H   UNL     1      46.277   5.647  14.324  0.00  0.00    +0.000 HD
ENDROOT
BRANCH   6   9
ATOM      9  C   UNL     1      48.299   5.615  18.469  0.00  0.00    +0.000 A 
ATOM     10  C   UNL     1      47.289   5.820  19.445  0.00  0.00    +0.000 A 
ATOM     11  C   UNL     1      47.456   6.683  20.533  0.00  0.00    +0.000 A 
ATOM     12  C   UNL     1      48.651   7.361  20.695  0.00  0.00    +0.000 A 
ATOM     13  C   UNL     1      49.664   7.199  19.753  0.00  0.00    +0.000 A 
ATOM     14  C   UNL     1      49.493   6.348  18.646  0.00  0.00    +0.000 A 
ATOM     15 CL   UNL     1      50.810   6.324  17.517  0.00  0.00    +0.000 Cl
ENDBRANCH   6   9
BRANCH   1  16
ATOM     16  C   UNL     1      46.013   3.852  13.234  0.00  0.00    +0.000 C 
BRANCH  16  22
ATOM     17  N   UNL     1      44.007   4.416   8.949  0.00  0.00    +0.000 N 
ATOM     18  C   UNL     1      43.925   4.614  10.312  0.00  0.00    +0.000 A 
ATOM     19  N   UNL     1      42.812   5.183  10.773  0.00  0.00    +0.000 NA
ATOM     20  C   UNL     1      42.760   5.386  12.100  0.00  0.00    +0.000 A 
ATOM     21  C   UNL     1      43.770   5.037  12.966  0.00  0.00    +0.000 A 
ATOM     22  C   UNL     1      44.884   4.447  12.402  0.00  0.00    +0.000 A 
ATOM     23  N   UNL     1      44.969   4.253  11.062  0.00  0.00    +0.000 NA
ATOM     24  H   UNL     1      43.340   5.022   8.490  0.00  0.00    +0.000 HD
ATOM     25  H   UNL     1      44.970   4.484   8.655  0.00  0.00    +0.000 HD
ENDBRANCH  16  22
ENDBRANCH   1  16
TORSDOF 3
ENDMDL
MODEL 5
REMARK VINA RESULT:    -6.662      1.364      2.102
REMARK INTER + INTRA:          -8.352
REMARK INTER:                  -7.864
REMARK INTRA:                  -0.488
REMARK UNBOUND:                -0.521
REMARK  Name = 
REMARK  3 active torsions:
REMARK  status: ('A' for Active; 'I' for Inactive)
REMARK    1  A    between atoms: C_6  and  C_7
REMARK    2  A    between atoms: C_7  and  N_8
REMARK    3  A    between atoms: C_13  and  C_14
REMARK                            x       y       z     vdW  Elec       q    Type
REMARK                         _______ _______ _______ _____ _____    ______ ____
ROOT
ATOM      1  N   UNL     1      45.595   4.982   9.121  0.00  0.00    +0.000 N 
ATOM      2  C   UNL     1      45.451   5.590  10.351  0.00  0.00    +0.000 A 
ATOM      3  N   UNL     1      45.491   4.860  11.468  0.00  0.00    +0.000 NA
ATOM      4  C   UNL     1      45.199   5.485  12.616  0.00  0.00    +0.000 A 
ATOM      5  C   UNL     1      44.851   6.811  12.683  0.00  0.00    +0.000 A 
ATOM      6  C   UNL     1      44.888   7.523  11.497  0.00  0.00    +0.000 A 
ATOM      7  N   UNL     1      45.184   6.902  10.333  0.00  0.00    +0.000 NA
ATOM      8  H   UNL     1      45.238   5.590   8.396  0.00  0.00    +0.000 HD
ENDROOT
BRANCH   6   9
ATOM      9  C   UNL     1      44.689   8.999  11.453  0.00  0.00    +0.000 A 
ATOM     10  C   UNL     1      43.440   9.511  11.016  0.00  0.00    +0.000 A 
ATOM     11  C   UNL     1      43.152  10.880  10.992  0.00  0.00    +0.000 A 
ATOM     12  C   UNL     1      44.103  11.789  11.422  0.00  0.00    +0.000 A 
ATOM     13  C   UNL     1      45.347  11.330  11.846  0.00  0.00    +0.000 A 
ATOM     14  C   UNL     1      45.648   9.956  11.852  0.00  0.00    +0.000 A 
ATOM     15 CL   UNL     1      47.269   9.553  12.321  0.00  0.00    +0.000 Cl
ENDBRANCH   6   9
BRANCH   1  16
ATOM     16  C   UNL     1      45.264   3.568   9.021  0.00  0.00    +0.000 C 
BRANCH  16  22
ATOM     17  N   UNL     1      46.718  -0.775   7.707  0.00  0.00    +0.000 N 
ATOM     18  C   UNL     1      46.805   0.590   7.527  0.00  0.00    +0.000 A 
ATOM     19  N   UNL     1      47.599   1.020   6.546  0.00  0.00    +0.000 NA
ATOM     20  C   UNL     1      47.687   2.352   6.401  0.00  0.00    +0.000 A 
ATOM     21  C   UNL     1      47.011   3.253   7.189  0.00  0.00    +0.000 A 
ATOM     22  C   UNL     1      46.205   2.719   8.176  0.00  0.00    +0.000 A 
ATOM     23  N   UNL     1      46.118   1.378   8.358  0.00  0.00    +0.000 NA
ATOM     24  H   UNL     1      47.515  -1.215   7.267  0.00  0.00    +0.000 HD
ATOM     25  H   UNL     1      46.559  -0.977   8.683  0.00  0.00    +0.000 HD
ENDBRANCH  16  22
ENDBRANCH   1  16
TORSDOF 3
ENDMDL
MODEL 6
REMARK VINA RESULT:    -6.552      1.574      1.906
REMARK INTER + INTRA:          -8.222
REMARK INTER:                  -7.707
REMARK INTRA:                  -0.516
REMARK UNBOUND:                -0.521
REMARK  Name = 
REMARK  3 active torsions:
REMARK  status: ('A' for Active; 'I' for Inactive)
REMARK    1  A    between atoms: C_6  and  C_7
REMARK    2  A    between atoms: C_7  and  N_8
REMARK    3  A    between atoms: C_13  and  C_14
REMARK                            x       y       z     vdW  Elec       q    Type
REMARK                         _______ _______ _______ _____ _____    ______ ____
ROOT
ATOM      1  N   UNL     1      45.899   5.404   9.221  0.00  0.00    +0.000 N 
ATOM      2  C   UNL     1      45.850   5.907  10.504  0.00  0.00    +0.000 A 
ATOM      3  N   UNL     1      45.466   5.124  11.516  0.00  0.00    +0.000 NA
ATOM      4  C   UNL     1      45.300   5.709  12.710  0.00  0.00    +0.000 A 
ATOM      5  C   UNL     1      45.486   7.052  12.922  0.00  0.00    +0.000 A 
ATOM      6  C   UNL     1      45.942   7.793  11.846  0.00  0.00    +0.000 A 
ATOM      7  N   UNL     1      46.115   7.212  10.637  0.00  0.00    +0.000 NA
ATOM      8  H   UNL     1      45.896   6.166   8.555  0.00  0.00    +0.000 HD
ENDROOT
BRANCH   6   9
ATOM      9  C   UNL     1      46.335   9.224  11.979  0.00  0.00    +0.000 A 
ATOM     10  C   UNL     1      45.398  10.231  11.630  0.00  0.00    +0.000 A 
ATOM     11  C   UNL     1      45.668  11.596  11.771  0.00  0.00    +0.000 A 
ATOM     12  C   UNL     1      46.885  12.004  12.287  0.00  0.00    +0.000 A 
ATOM     13  C   UNL     1      47.839  11.051  12.631  0.00  0.00    +0.000 A 
ATOM     14  C   UNL     1      47.579   9.677  12.470  0.00  0.00    +0.000 A 
ATOM     15 CL   UNL     1      48.900   8.621  12.857  0.00  0.00    +0.000 Cl
ENDBRANCH   6   9
BRANCH   1  16
ATOM     16  C   UNL     1      45.062   4.253   8.911  0.00  0.00    +0.000 C 
BRANCH  16  22
ATOM     17  N   UNL     1      47.963   2.874   5.393  0.00  0.00    +0.000 N 
ATOM     18  C   UNL     1      47.217   2.520   6.497  0.00  0.00    +0.000 A 
ATOM     19  N   UNL     1      47.272   1.244   6.880  0.00  0.00    +0.000 NA
ATOM     20  C   UNL     1      46.522   0.914   7.944  0.00  0.00    +0.000 A 
ATOM     21  C   UNL     1      45.735   1.809   8.630  0.00  0.00    +0.000 A 
ATOM     22  C   UNL     1      45.743   3.111   8.168  0.00  0.00    +0.000 A 
ATOM     23  N   UNL     1      46.474   3.463   7.081  0.00  0.00    +0.000 NA
ATOM     24  H   UNL     1      48.185   2.039   4.866  0.00  0.00    +0.000 HD
ATOM     25  H   UNL     1      47.501   3.622   4.898  0.00  0.00    +0.000 HD
ENDBRANCH  16  22
ENDBRANCH   1  16
TORSDOF 3
ENDMDL
MODEL 7
REMARK VINA RESULT:    -6.317      5.107      6.666
REMARK INTER + INTRA:          -7.946
REMARK INTER:                  -7.498
REMARK INTRA:                  -0.448
REMARK UNBOUND:                -0.521
REMARK  Name = 
REMARK  3 active torsions:
REMARK  status: ('A' for Active; 'I' for Inactive)
REMARK    1  A    between atoms: C_6  and  C_7
REMARK    2  A    between atoms: C_7  and  N_8
REMARK    3  A    between atoms: C_13  and  C_14
REMARK                            x       y       z     vdW  Elec       q    Type
REMARK                         _______ _______ _______ _____ _____    ______ ____
ROOT
ATOM      1  N   UNL     1      46.770   4.449  13.589  0.00  0.00    +0.000 N 
ATOM      2  C   UNL     1      47.467   4.203  14.753  0.00  0.00    +0.000 A 
ATOM      3  N   UNL     1      47.700   2.946  15.141  0.00  0.00    +0.000 NA
ATOM      4  C   UNL     1      48.253   2.775  16.349  0.00  0.00    +0.000 A 
ATOM      5  C   UNL     1      48.564   3.814  17.189  0.00  0.00    +0.000 A 
ATOM      6  C   UNL     1      48.354   5.092  16.700  0.00  0.00    +0.000 A 
ATOM      7  N   UNL     1      47.799   5.276  15.481  0.00  0.00    +0.000 NA
ATOM      8  H   UNL     1      46.413   5.396  13.599  0.00  0.00    +0.000 HD
ENDROOT
BRANCH   6   9
ATOM      9  C   UNL     1      48.794   6.306  17.442  0.00  0.00    +0.000 A 
ATOM     10  C   UNL     1      49.873   7.072  16.928  0.00  0.00    +0.000 A 
ATOM     11  C   UNL     1      50.316   8.252  17.534  0.00  0.00    +0.000 A 
ATOM     12  C   UNL     1      49.682   8.720  18.671  0.00  0.00    +0.000 A 
ATOM     13  C   UNL     1      48.628   7.993  19.217  0.00  0.00    +0.000 A 
ATOM     14  C   UNL     1      48.192   6.794  18.622  0.00  0.00    +0.000 A 
ATOM     15 CL   UNL     1      46.931   5.960  19.472  0.00  0.00    +0.000 Cl
ENDBRANCH   6   9
BRANCH   1  16
ATOM     16  C   UNL     1      45.872   3.411  13.104  0.00  0.00    +0.000 C 
BRANCH  16  22
ATOM     17  N   UNL     1      42.180   6.121  11.792  0.00  0.00    +0.000 N 
ATOM     18  C   UNL     1      43.159   5.223  11.422  0.00  0.00    +0.000 A 
ATOM     19  N   UNL     1      43.235   4.913  10.128  0.00  0.00    +0.000 NA
ATOM     20  C   UNL     1      44.180   4.020   9.790  0.00  0.00    +0.000 A 
ATOM     21  C   UNL     1      45.041   3.442  10.693  0.00  0.00    +0.000 A 
ATOM     22  C   UNL     1      44.896   3.826  12.012  0.00  0.00    +0.000 A 
ATOM     23  N   UNL     1      43.933   4.708  12.380  0.00  0.00    +0.000 NA
ATOM     24  H   UNL     1      41.478   6.158  11.065  0.00  0.00    +0.000 HD
ATOM     25  H   UNL     1      41.865   5.911  12.728  0.00  0.00    +0.000 HD
ENDBRANCH  16  22
ENDBRANCH   1  16
TORSDOF 3
ENDMDL
MODEL 8
REMARK VINA RESULT:    -6.313      5.796      7.605
REMARK INTER + INTRA:          -7.941
REMARK INTER:                  -7.404
REMARK INTRA:                  -0.537
REMARK UNBOUND:                -0.521
REMARK  Name = 
REMARK  3 active torsions:
REMARK  status: ('A' for Active; 'I' for Inactive)
REMARK    1  A    between atoms: C_6  and  C_7
REMARK    2  A    between atoms: C_7  and  N_8
REMARK    3  A    between atoms: C_13  and  C_14
REMARK                            x       y       z     vdW  Elec       q    Type
REMARK                         _______ _______ _______ _____ _____    ______ ____
ROOT
ATOM      1  N   UNL     1      46.646   3.985  14.636  0.00  0.00    +0.000 N 
ATOM      2  C   UNL     1      47.512   4.956  15.092  0.00  0.00    +0.000 A 
ATOM      3  N   UNL     1      47.847   5.979  14.301  0.00  0.00    +0.000 NA
ATOM      4  C   UNL     1      48.802   6.807  14.747  0.00  0.00    +0.000 A 
ATOM      5  C   UNL     1      49.444   6.636  15.947  0.00  0.00    +0.000 A 
ATOM      6  C   UNL     1      49.007   5.592  16.743  0.00  0.00    +0.000 A 
ATOM      7  N   UNL     1      48.043   4.753  16.304  0.00  0.00    +0.000 NA
ATOM      8  H   UNL     1      46.739   3.151  15.202  0.00  0.00    +0.000 HD
ENDROOT
BRANCH   6   9
ATOM      9  C   UNL     1      49.507   5.392  18.132  0.00  0.00    +0.000 A 
ATOM     10  C   UNL     1      50.836   4.931  18.324  0.00  0.00    +0.000 A 
ATOM     11  C   UNL     1      51.400   4.763  19.593  0.00  0.00    +0.000 A 
ATOM     12  C   UNL     1      50.658   5.070  20.720  0.00  0.00    +0.000 A 
ATOM     13  C   UNL     1      49.346   5.512  20.578  0.00  0.00    +0.000 A 
ATOM     14  C   UNL     1      48.768   5.662  19.304  0.00  0.00    +0.000 A 
ATOM     15 CL   UNL     1      47.098   6.135  19.298  0.00  0.00    +0.000 Cl
ENDBRANCH   6   9
BRANCH   1  16
ATOM     16  C   UNL     1      46.536   3.796  13.196  0.00  0.00    +0.000 C 
BRANCH  16  22
ATOM     17  N   UNL     1      43.567   7.047  11.376  0.00  0.00    +0.000 N 
ATOM     18  C   UNL     1      43.822   5.718  11.642  0.00  0.00    +0.000 A 
ATOM     19  N   UNL     1      42.919   4.834  11.218  0.00  0.00    +0.000 NA
ATOM     20  C   UNL     1      43.175   3.547  11.506  0.00  0.00    +0.000 A 
ATOM     21  C   UNL     1      44.292   3.124  12.188  0.00  0.00    +0.000 A 
ATOM     22  C   UNL     1      45.177   4.108  12.583  0.00  0.00    +0.000 A 
ATOM     23  N   UNL     1      44.929   5.416  12.325  0.00  0.00    +0.000 NA
ATOM     24  H   UNL     1      42.581   7.158  11.178  0.00  0.00    +0.000 HD
ATOM     25  H   UNL     1      43.957   7.620  12.110  0.00  0.00    +0.000 HD
ENDBRANCH  16  22
ENDBRANCH   1  16
TORSDOF 3
ENDMDL
MODEL 9
REMARK VINA RESULT:    -5.994      5.692      7.532
REMARK INTER + INTRA:          -7.566
REMARK INTER:                  -7.085
REMARK INTRA:                  -0.480
REMARK UNBOUND:                -0.521
REMARK  Name = 
REMARK  3 active torsions:
REMARK  status: ('A' for Active; 'I' for Inactive)
REMARK    1  A    between atoms: C_6  and  C_7
REMARK    2  A    between atoms: C_7  and  N_8
REMARK    3  A    between atoms: C_13  and  C_14
REMARK                            x       y       z     vdW  Elec       q    Type
REMARK                         _______ _______ _______ _____ _____    ______ ____
ROOT
ATOM      1  N   UNL     1      46.943   5.978  13.935  0.00  0.00    +0.000 N 
ATOM      2  C   UNL     1      48.118   6.522  14.408  0.00  0.00    +0.000 A 
ATOM      3  N   UNL     1      48.788   7.413  13.671  0.00  0.00    +0.000 NA
ATOM      4  C   UNL     1      49.992   7.793  14.120  0.00  0.00    +0.000 A 
ATOM      5  C   UNL     1      50.556   7.300  15.268  0.00  0.00    +0.000 A 
ATOM      6  C   UNL     1      49.784   6.427  16.015  0.00  0.00    +0.000 A 
ATOM      7  N   UNL     1      48.567   6.040  15.573  0.00  0.00    +0.000 NA
ATOM      8  H   UNL     1      46.736   5.125  14.438  0.00  0.00    +0.000 HD
ENDROOT
BRANCH   6   9
ATOM      9  C   UNL     1      50.210   5.943  17.358  0.00  0.00    +0.000 A 
ATOM     10  C   UNL     1      51.018   4.780  17.445  0.00  0.00    +0.000 A 
ATOM     11  C   UNL     1      51.502   4.287  18.661  0.00  0.00    +0.000 A 
ATOM     12  C   UNL     1      51.209   4.953  19.838  0.00  0.00    +0.000 A 
ATOM     13  C   UNL     1      50.407   6.091  19.800  0.00  0.00    +0.000 A 
ATOM     14  C   UNL     1      49.901   6.578  18.581  0.00  0.00    +0.000 A 
ATOM     15 CL   UNL     1      48.847   7.950  18.711  0.00  0.00    +0.000 Cl
ENDBRANCH   6   9
BRANCH   1  16
ATOM     16  C   UNL     1      46.734   5.963  12.494  0.00  0.00    +0.000 C 
BRANCH  16  22
ATOM     17  N   UNL     1      43.707   2.284  12.452  0.00  0.00    +0.000 N 
ATOM     18  C   UNL     1      43.956   3.595  12.103  0.00  0.00    +0.000 A 
ATOM     19  N   UNL     1      42.968   4.258  11.504  0.00  0.00    +0.000 NA
ATOM     20  C   UNL     1      43.238   5.526  11.152  0.00  0.00    +0.000 A 
ATOM     21  C   UNL     1      44.445   6.143  11.384  0.00  0.00    +0.000 A 
ATOM     22  C   UNL     1      45.409   5.382  12.016  0.00  0.00    +0.000 A 
ATOM     23  N   UNL     1      45.168   4.092  12.359  0.00  0.00    +0.000 NA
ATOM     24  H   UNL     1      42.920   1.946  11.913  0.00  0.00    +0.000 HD
ATOM     25  H   UNL     1      44.563   1.752  12.402  0.00  0.00    +0.000 HD
ENDBRANCH  16  22
ENDBRANCH   1  16
TORSDOF 3
ENDMDL
