MODEL 1
REMARK VINA RESULT:    -6.938      0.000      0.000
REMARK INTER + INTRA:         -10.350
REMARK INTER:                  -8.966
REMARK INTRA:                  -1.384
REMARK UNBOUND:                -1.384
REMARK  Name = 
REMARK  5 active torsions:
REMARK  status: ('A' for Active; 'I' for Inactive)
REMARK    1  A    between atoms: C_2  and  C_4
REMARK    2  A    between atoms: C_10  and  O_11
REMARK    3  A    between atoms: O_11  and  C_12
REMARK    4  A    between atoms: C_12  and  C_13
REMARK    5  A    between atoms: C_17  and  N_18
REMARK                            x       y       z     vdW  Elec       q    Type
REMARK                         _______ _______ _______ _____ _____    ______ ____
ROOT
ATOM      1  O   UNL     1      45.158   6.896  13.084  0.00  0.00    +0.000 OA
ENDROOT
BRANCH   1   8
ATOM      2  C   UNL     1      47.452   6.408  13.185  0.00  0.00    +0.000 A 
ATOM      3  C   UNL     1      48.811   6.707  12.969  0.00  0.00    +0.000 A 
ATOM      4  C   UNL     1      49.191   7.921  12.415  0.00  0.00    +0.000 A 
ATOM      5  C   UNL     1      48.213   8.834  12.056  0.00  0.00    +0.000 A 
ATOM      6  C   UNL     1      46.846   8.553  12.246  0.00  0.00    +0.000 A 
ATOM      7 CL   UNL     1      45.805   9.825  11.700  0.00  0.00    +0.000 Cl
ATOM      8  C   UNL     1      46.436   7.332  12.824  0.00  0.00    +0.000 A 
BRANCH   2  10
ATOM      9  N   UNL     1      46.704   5.034  15.074  0.00  0.00    +0.000 N 
ATOM     10  C   UNL     1      47.198   5.070  13.803  0.00  0.00    +0.000 C 
ATOM     11  O   UNL     1      47.452   4.030  13.206  0.00  0.00    +0.000 OA
ATOM     12  H   UNL     1      46.412   4.132  15.426  0.00  0.00    +0.000 HD
ATOM     13  H   UNL     1      46.283   5.862  15.475  0.00  0.00    +0.000 HD
ENDBRANCH   2  10
ENDBRANCH   1   8
BRANCH   1  14
ATOM     14  C   UNL     1      44.240   6.621  12.034  0.00  0.00    +0.000 C 
BRANCH  14  15
ATOM     15  C   UNL     1      44.191   5.136  11.753  0.00  0.00    +0.000 A 
ATOM     16  C   UNL     1      43.625   4.250  12.675  0.00  0.00    +0.000 A 
ATOM     17  C   UNL     1      43.479   2.907  12.345  0.00  0.00    +0.000 A 
ATOM     18  C   UNL     1      43.878   2.447  11.085  0.00  0.00    +0.000 A 
ATOM     19  C   UNL     1      44.443   3.301  10.126  0.00  0.00    +0.000 A 
ATOM     20  C   UNL     1      44.606   4.642  10.500  0.00  0.00    +0.000 A 
BRANCH  19  21
ATOM     21  N   UNL     1      44.800   2.840   8.876  0.00  0.00    +0.000 N 
ATOM     22  C   UNL     1      45.122   1.435   8.582  0.00  0.00    +0.000 C 
ATOM     23  C   UNL     1      46.540   1.329   8.000  0.00  0.00    +0.000 C 
ATOM     24  O   UNL     1      46.700   2.172   6.846  0.00  0.00    +0.000 OA
ATOM     25  C   UNL     1      46.458   3.545   7.196  0.00  0.00    +0.000 C 
ATOM     26  C   UNL     1      45.036   3.756   7.748  0.00  0.00    +0.000 C 
ENDBRANCH  19  21
ENDBRANCH  14  15
ENDBRANCH   1  14
TORSDOF 5
ENDMDL
MODEL 2
REMARK VINA RESULT:    -6.401      1.655      2.060
REMARK INTER + INTRA:          -9.656
REMARK INTER:                  -8.811
REMARK INTRA:                  -0.845
REMARK UNBOUND:                -1.384
REMARK  Name = 
REMARK  5 active torsions:
REMARK  status: ('A' for Active; 'I' for Inactive)
REMARK    1  A    between atoms: C_2  and  C_4
REMARK    2  A    between atoms: C_10  and  O_11
REMARK    3  A    between atoms: O_11  and  C_12
REMARK    4  A    between atoms: C_12  and  C_13
REMARK    5  A    between atoms: C_17  and  N_18
REMARK                            x       y       z     vdW  Elec       q    Type
REMARK                         _______ _______ _______ _____ _____    ______ ____
ROOT
ATOM      1  O   UNL     1      47.592   4.917  13.364  0.00  0.00    +0.000 OA
ENDROOT
BRANCH   1   8
ATOM      2  C   UNL     1      48.166   6.926  14.434  0.00  0.00    +0.000 A 
ATOM      3  C   UNL     1      48.258   8.329  14.507  0.00  0.00    +0.000 A 
ATOM      4  C   UNL     1      47.782   9.126  13.476  0.00  0.00    +0.000 A 
ATOM      5  C   UNL     1      47.229   8.523  12.358  0.00  0.00    +0.000 A 
ATOM      6  C   UNL     1      47.141   7.121  12.252  0.00  0.00    +0.000 A 
ATOM      7 CL   UNL     1      46.442   6.591  10.759  0.00  0.00    +0.000 Cl
ATOM      8  C   UNL     1      47.603   6.290  13.296  0.00  0.00    +0.000 A 
BRANCH   2  10
ATOM      9  N   UNL     1      47.816   5.658  16.503  0.00  0.00    +0.000 N 
ATOM     10  C   UNL     1      48.706   6.203  15.626  0.00  0.00    +0.000 C 
ATOM     11  O   UNL     1      49.912   6.122  15.834  0.00  0.00    +0.000 OA
ATOM     12  H   UNL     1      48.193   5.060  17.227  0.00  0.00    +0.000 HD
ATOM     13  H   UNL     1      46.854   5.520  16.225  0.00  0.00    +0.000 HD
ENDBRANCH   2  10
ENDBRANCH   1   8
BRANCH   1  14
ATOM     14  C   UNL     1      46.494   4.210  13.925  0.00  0.00    +0.000 C 
BRANCH  14  15
ATOM     15  C   UNL     1      45.322   4.213  12.970  0.00  0.00    +0.000 A 
ATOM     16  C   UNL     1      44.133   4.872  13.296  0.00  0.00    +0.000 A 
ATOM     17  C   UNL     1      43.112   4.966  12.355  0.00  0.00    +0.000 A 
ATOM     18  C   UNL     1      43.285   4.422  11.077  0.00  0.00    +0.000 A 
ATOM     19  C   UNL     1      44.462   3.759  10.704  0.00  0.00    +0.000 A 
ATOM     20  C   UNL     1      45.460   3.653  11.684  0.00  0.00    +0.000 A 
BRANCH  19  21
ATOM     21  N   UNL     1      44.631   3.258   9.430  0.00  0.00    +0.000 N 
ATOM     22  C   UNL     1      44.702   1.823   9.116  0.00  0.00    +0.000 C 
ATOM     23  C   UNL     1      46.029   1.499   8.414  0.00  0.00    +0.000 C 
ATOM     24  O   UNL     1      46.218   2.316   7.245  0.00  0.00    +0.000 OA
ATOM     25  C   UNL     1      46.226   3.708   7.607  0.00  0.00    +0.000 C 
ATOM     26  C   UNL     1      44.909   4.135   8.281  0.00  0.00    +0.000 C 
ENDBRANCH  19  21
ENDBRANCH  14  15
ENDBRANCH   1  14
TORSDOF 5
ENDMDL
MODEL 3
REMARK VINA RESULT:    -6.380      3.222      4.920
REMARK INTER + INTRA:          -9.629
REMARK INTER:                  -8.564
REMARK INTRA:                  -1.065
REMARK UNBOUND:                -1.384
REMARK  Name = 
REMARK  5 active torsions:
REMARK  status: ('A' for Active; 'I' for Inactive)
REMARK    1  A    between atoms: C_2  and  C_4
REMARK    2  A    between atoms: C_10  and  O_11
REMARK    3  A    between atoms: O_11  and  C_12
REMARK    4  A    between atoms: C_12  and  C_13
REMARK    5  A    between atoms: C_17  and  N_18
REMARK                            x       y       z     vdW  Elec       q    Type
REMARK                         _______ _______ _______ _____ _____    ______ ____
ROOT
ATOM      1  O   UNL     1      49.223   6.146  15.214  0.00  0.00    +0.000 OA
ENDROOT
BRANCH   1   8
ATOM      2  C   UNL     1      48.137   5.216  17.075  0.00  0.00    +0.000 A 
ATOM      3  C   UNL     1      47.602   5.273  18.376  0.00  0.00    +0.000 A 
ATOM      4  C   UNL     1      47.628   6.454  19.103  0.00  0.00    +0.000 A 
ATOM      5  C   UNL     1      48.207   7.580  18.539  0.00  0.00    +0.000 A 
ATOM      6  C   UNL     1      48.765   7.545  17.247  0.00  0.00    +0.000 A 
ATOM      7 CL   UNL     1      49.457   9.056  16.760  0.00  0.00    +0.000 Cl
ATOM      8  C   UNL     1      48.734   6.358  16.481  0.00  0.00    +0.000 A 
BRANCH   2  10
ATOM      9  N   UNL     1      46.968   3.670  15.572  0.00  0.00    +0.000 N 
ATOM     10  C   UNL     1      48.022   3.880  16.412  0.00  0.00    +0.000 C 
ATOM     11  O   UNL     1      48.829   2.984  16.633  0.00  0.00    +0.000 OA
ATOM     12  H   UNL     1      46.979   2.816  15.030  0.00  0.00    +0.000 HD
ATOM     13  H   UNL     1      46.446   4.457  15.212  0.00  0.00    +0.000 HD
ENDBRANCH   2  10
ENDBRANCH   1   8
BRANCH   1  14
ATOM     14  C   UNL     1      49.124   7.143  14.205  0.00  0.00    +0.000 C 
BRANCH  14  15
ATOM     15  C   UNL     1      47.727   7.171  13.627  0.00  0.00    +0.000 A 
ATOM     16  C   UNL     1      46.996   8.361  13.574  0.00  0.00    +0.000 A 
ATOM     17  C   UNL     1      45.764   8.391  12.929  0.00  0.00    +0.000 A 
ATOM     18  C   UNL     1      45.267   7.235  12.316  0.00  0.00    +0.000 A 
ATOM     19  C   UNL     1      45.968   6.021  12.337  0.00  0.00    +0.000 A 
ATOM     20  C   UNL     1      47.192   6.016  13.021  0.00  0.00    +0.000 A 
BRANCH  19  21
ATOM     21  N   UNL     1      45.481   4.900  11.697  0.00  0.00    +0.000 N 
ATOM     22  C   UNL     1      45.099   4.868  10.277  0.00  0.00    +0.000 C 
ATOM     23  C   UNL     1      43.629   4.445  10.135  0.00  0.00    +0.000 C 
ATOM     24  O   UNL     1      43.377   3.189  10.790  0.00  0.00    +0.000 OA
ATOM     25  C   UNL     1      43.685   3.288  12.190  0.00  0.00    +0.000 C 
ATOM     26  C   UNL     1      45.158   3.666  12.431  0.00  0.00    +0.000 C 
ENDBRANCH  19  21
ENDBRANCH  14  15
ENDBRANCH   1  14
TORSDOF 5
ENDMDL
MODEL 4
REMARK VINA RESULT:    -6.250      3.216      4.751
REMARK INTER + INTRA:          -9.461
REMARK INTER:                  -8.492
REMARK INTRA:                  -0.969
REMARK UNBOUND:                -1.384
REMARK  Name = 
REMARK  5 active torsions:
REMARK  status: ('A' for Active; 'I' for Inactive)
REMARK    1  A    between atoms: C_2  and  C_4
REMARK    2  A    between atoms: C_10  and  O_11
REMARK    3  A    between atoms: O_11  and  C_12
REMARK    4  A    between atoms: C_12  and  C_13
REMARK    5  A    between atoms: C_17  and  N_18
REMARK                            x       y       z     vdW  Elec       q    Type
REMARK                         _______ _______ _______ _____ _____    ______ ____
ROOT
ATOM      1  O   UNL     1      47.986   6.247  15.386  0.00  0.00    +0.000 OA
ENDROOT
BRANCH   1   8
ATOM      2  C   UNL     1      48.621   4.449  16.754  0.00  0.00    +0.000 A 
ATOM      3  C   UNL     1      49.498   3.790  17.637  0.00  0.00    +0.000 A 
ATOM      4  C   UNL     1      50.678   4.394  18.047  0.00  0.00    +0.000 A 
ATOM      5  C   UNL     1      50.996   5.651  17.560  0.00  0.00    +0.000 A 
ATOM      6  C   UNL     1      50.145   6.324  16.663  0.00  0.00    +0.000 A 
ATOM      7 CL   UNL     1      50.757   7.867  16.167  0.00  0.00    +0.000 Cl
ATOM      8  C   UNL     1      48.930   5.737  16.245  0.00  0.00    +0.000 A 
BRANCH   2  10
ATOM      9  N   UNL     1      47.125   3.427  15.101  0.00  0.00    +0.000 N 
ATOM     10  C   UNL     1      47.383   3.680  16.416  0.00  0.00    +0.000 C 
ATOM     11  O   UNL     1      46.602   3.311  17.285  0.00  0.00    +0.000 OA
ATOM     12  H   UNL     1      46.362   2.794  14.898  0.00  0.00    +0.000 HD
ATOM     13  H   UNL     1      47.862   3.520  14.415  0.00  0.00    +0.000 HD
ENDBRANCH   2  10
ENDBRANCH   1   8
BRANCH   1  14
ATOM     14  C   UNL     1      48.299   6.542  14.031  0.00  0.00    +0.000 C 
BRANCH  14  15
ATOM     15  C   UNL     1      47.055   6.965  13.283  0.00  0.00    +0.000 A 
ATOM     16  C   UNL     1      46.720   8.317  13.155  0.00  0.00    +0.000 A 
ATOM     17  C   UNL     1      45.640   8.691  12.360  0.00  0.00    +0.000 A 
ATOM     18  C   UNL     1      44.904   7.718  11.675  0.00  0.00    +0.000 A 
ATOM     19  C   UNL     1      45.208   6.352  11.769  0.00  0.00    +0.000 A 
ATOM     20  C   UNL     1      46.281   6.004  12.601  0.00  0.00    +0.000 A 
BRANCH  19  21
ATOM     21  N   UNL     1      44.494   5.408  11.060  0.00  0.00    +0.000 N 
ATOM     22  C   UNL     1      43.190   4.877  11.485  0.00  0.00    +0.000 C 
ATOM     23  C   UNL     1      43.264   3.350  11.637  0.00  0.00    +0.000 C 
ATOM     24  O   UNL     1      43.734   2.724  10.430  0.00  0.00    +0.000 OA
ATOM     25  C   UNL     1      45.046   3.209  10.096  0.00  0.00    +0.000 C 
ATOM     26  C   UNL     1      45.058   4.733   9.880  0.00  0.00    +0.000 C 
ENDBRANCH  19  21
ENDBRANCH  14  15
ENDBRANCH   1  14
TORSDOF 5
ENDMDL
MODEL 5
REMARK VINA RESULT:    -6.031      1.926      2.478
REMARK INTER + INTRA:          -9.178
REMARK INTER:                  -7.916
REMARK INTRA:                  -1.262
REMARK UNBOUND:                -1.384
REMARK  Name = 
REMARK  5 active torsions:
REMARK  status: ('A' for Active; 'I' for Inactive)
REMARK    1  A    between atoms: C_2  and  C_4
REMARK    2  A    between atoms: C_10  and  O_11
REMARK    3  A    between atoms: O_11  and  C_12
REMARK    4  A    between atoms: C_12  and  C_13
REMARK    5  A    between atoms: C_17  and  N_18
REMARK                            x       y       z     vdW  Elec       q    Type
REMARK                         _______ _______ _______ _____ _____    ______ ____
ROOT
ATOM      1  O   UNL     1      46.658   6.058  14.113  0.00  0.00    +0.000 OA
ENDROOT
BRANCH   1   8
ATOM      2  C   UNL     1      47.144   7.685  12.493  0.00  0.00    +0.000 A 
ATOM      3  C   UNL     1      47.984   8.630  11.874  0.00  0.00    +0.000 A 
ATOM      4  C   UNL     1      49.279   8.836  12.330  0.00  0.00    +0.000 A 
ATOM      5  C   UNL     1      49.732   8.110  13.420  0.00  0.00    +0.000 A 
ATOM      6  C   UNL     1      48.907   7.171  14.067  0.00  0.00    +0.000 A 
ATOM      7 CL   UNL     1      49.672   6.404  15.418  0.00  0.00    +0.000 Cl
ATOM      8  C   UNL     1      47.592   6.932  13.610  0.00  0.00    +0.000 A 
BRANCH   2  10
ATOM      9  N   UNL     1      44.719   8.036  12.589  0.00  0.00    +0.000 N 
ATOM     10  C   UNL     1      45.785   7.564  11.881  0.00  0.00    +0.000 C 
ATOM     11  O   UNL     1      45.619   7.030  10.790  0.00  0.00    +0.000 OA
ATOM     12  H   UNL     1      43.830   8.070  12.108  0.00  0.00    +0.000 HD
ATOM     13  H   UNL     1      44.868   8.671  13.362  0.00  0.00    +0.000 HD
ENDBRANCH   2  10
ENDBRANCH   1   8
BRANCH   1  14
ATOM     14  C   UNL     1      46.669   4.679  13.767  0.00  0.00    +0.000 C 
BRANCH  14  15
ATOM     15  C   UNL     1      45.441   4.329  12.957  0.00  0.00    +0.000 A 
ATOM     16  C   UNL     1      44.160   4.606  13.441  0.00  0.00    +0.000 A 
ATOM     17  C   UNL     1      43.050   4.389  12.630  0.00  0.00    +0.000 A 
ATOM     18  C   UNL     1      43.219   3.915  11.325  0.00  0.00    +0.000 A 
ATOM     19  C   UNL     1      44.485   3.630  10.794  0.00  0.00    +0.000 A 
ATOM     20  C   UNL     1      45.581   3.829  11.646  0.00  0.00    +0.000 A 
BRANCH  19  21
ATOM     21  N   UNL     1      44.638   3.196   9.494  0.00  0.00    +0.000 N 
ATOM     22  C   UNL     1      44.748   1.781   9.110  0.00  0.00    +0.000 C 
ATOM     23  C   UNL     1      46.067   1.537   8.361  0.00  0.00    +0.000 C 
ATOM     24  O   UNL     1      46.199   2.414   7.229  0.00  0.00    +0.000 OA
ATOM     25  C   UNL     1      46.170   3.786   7.657  0.00  0.00    +0.000 C 
ATOM     26  C   UNL     1      44.857   4.135   8.382  0.00  0.00    +0.000 C 
ENDBRANCH  19  21
ENDBRANCH  14  15
ENDBRANCH   1  14
TORSDOF 5
ENDMDL
MODEL 6
REMARK VINA RESULT:    -5.974      2.547      6.642
REMARK INTER + INTRA:          -9.105
REMARK INTER:                  -8.332
REMARK INTRA:                  -0.773
REMARK UNBOUND:                -1.384
REMARK  Name = 
REMARK  5 active torsions:
REMARK  status: ('A' for Active; 'I' for Inactive)
REMARK    1  A    between atoms: C_2  and  C_4
REMARK    2  A    between atoms: C_10  and  O_11
REMARK    3  A    between atoms: O_11  and  C_12
REMARK    4  A    between atoms: C_12  and  C_13
REMARK    5  A    between atoms: C_17  and  N_18
REMARK                            x       y       z     vdW  Elec       q    Type
REMARK                         _______ _______ _______ _____ _____    ______ ____
ROOT
ATOM      1  O   UNL     1      45.040   6.101  11.408  0.00  0.00    +0.000 OA
ENDROOT
BRANCH   1   8
ATOM      2  C   UNL     1      43.965   4.022  11.580  0.00  0.00    +0.000 A 
ATOM      3  C   UNL     1      43.630   2.738  11.110  0.00  0.00    +0.000 A 
ATOM      4  C   UNL     1      44.138   2.267   9.908  0.00  0.00    +0.000 A 
ATOM      5  C   UNL     1      44.968   3.087   9.160  0.00  0.00    +0.000 A 
ATOM      6  C   UNL     1      45.304   4.382   9.599  0.00  0.00    +0.000 A 
ATOM      7 CL   UNL     1      46.329   5.234   8.493  0.00  0.00    +0.000 Cl
ATOM      8  C   UNL     1      44.814   4.876  10.828  0.00  0.00    +0.000 A 
BRANCH   2  10
ATOM      9  N   UNL     1      42.758   5.604  13.014  0.00  0.00    +0.000 N 
ATOM     10  C   UNL     1      43.354   4.383  12.897  0.00  0.00    +0.000 C 
ATOM     11  O   UNL     1      43.410   3.624  13.858  0.00  0.00    +0.000 OA
ATOM     12  H   UNL     1      42.234   5.778  13.862  0.00  0.00    +0.000 HD
ATOM     13  H   UNL     1      42.508   6.125  12.184  0.00  0.00    +0.000 HD
ENDBRANCH   2  10
ENDBRANCH   1   8
BRANCH   1  14
ATOM     14  C   UNL     1      46.107   6.939  10.980  0.00  0.00    +0.000 C 
BRANCH  14  15
ATOM     15  C   UNL     1      47.252   6.879  11.966  0.00  0.00    +0.000 A 
ATOM     16  C   UNL     1      48.430   7.596  11.740  0.00  0.00    +0.000 A 
ATOM     17  C   UNL     1      49.421   7.625  12.717  0.00  0.00    +0.000 A 
ATOM     18  C   UNL     1      49.229   6.956  13.930  0.00  0.00    +0.000 A 
ATOM     19  C   UNL     1      48.061   6.231  14.203  0.00  0.00    +0.000 A 
ATOM     20  C   UNL     1      47.094   6.194  13.188  0.00  0.00    +0.000 A 
BRANCH  19  21
ATOM     21  N   UNL     1      47.871   5.605  15.418  0.00  0.00    +0.000 N 
ATOM     22  C   UNL     1      48.561   5.996  16.657  0.00  0.00    +0.000 C 
ATOM     23  C   UNL     1      49.350   4.805  17.221  0.00  0.00    +0.000 C 
ATOM     24  O   UNL     1      48.504   3.658  17.414  0.00  0.00    +0.000 OA
ATOM     25  C   UNL     1      47.916   3.258  16.165  0.00  0.00    +0.000 C 
ATOM     26  C   UNL     1      47.064   4.381  15.545  0.00  0.00    +0.000 C 
ENDBRANCH  19  21
ENDBRANCH  14  15
ENDBRANCH   1  14
TORSDOF 5
ENDMDL
MODEL 7
REMARK VINA RESULT:    -5.703      3.716      5.698
REMARK INTER + INTRA:          -8.754
REMARK INTER:                  -7.790
REMARK INTRA:                  -0.964
REMARK UNBOUND:                -1.384
REMARK  Name = 
REMARK  5 active torsions:
REMARK  status: ('A' for Active; 'I' for Inactive)
REMARK    1  A    between atoms: C_2  and  C_4
REMARK    2  A    between atoms: C_10  and  O_11
REMARK    3  A    between atoms: O_11  and  C_12
REMARK    4  A    between atoms: C_12  and  C_13
REMARK    5  A    between atoms: C_17  and  N_18
REMARK                            x       y       z     vdW  Elec       q    Type
REMARK                         _______ _______ _______ _____ _____    ______ ____
ROOT
ATOM      1  O   UNL     1      49.527   5.912  15.880  0.00  0.00    +0.000 OA
ENDROOT
BRANCH   1   8
ATOM      2  C   UNL     1      48.679   4.312  17.373  0.00  0.00    +0.000 A 
ATOM      3  C   UNL     1      48.547   3.728  18.648  0.00  0.00    +0.000 A 
ATOM      4  C   UNL     1      49.187   4.276  19.750  0.00  0.00    +0.000 A 
ATOM      5  C   UNL     1      49.979   5.401  19.578  0.00  0.00    +0.000 A 
ATOM      6  C   UNL     1      50.142   5.994  18.312  0.00  0.00    +0.000 A 
ATOM      7 CL   UNL     1      51.196   7.368  18.331  0.00  0.00    +0.000 Cl
ATOM      8  C   UNL     1      49.486   5.464  17.179  0.00  0.00    +0.000 A 
BRANCH   2  10
ATOM      9  N   UNL     1      46.675   4.086  15.978  0.00  0.00    +0.000 N 
ATOM     10  C   UNL     1      47.918   3.619  16.288  0.00  0.00    +0.000 C 
ATOM     11  O   UNL     1      48.377   2.641  15.709  0.00  0.00    +0.000 OA
ATOM     12  H   UNL     1      46.232   3.697  15.156  0.00  0.00    +0.000 HD
ATOM     13  H   UNL     1      46.394   5.010  16.278  0.00  0.00    +0.000 HD
ENDBRANCH   2  10
ENDBRANCH   1   8
BRANCH   1  14
ATOM     14  C   UNL     1      49.054   7.204  15.526  0.00  0.00    +0.000 C 
BRANCH  14  15
ATOM     15  C   UNL     1      48.605   7.224  14.081  0.00  0.00    +0.000 A 
ATOM     16  C   UNL     1      49.422   7.766  13.085  0.00  0.00    +0.000 A 
ATOM     17  C   UNL     1      49.045   7.663  11.749  0.00  0.00    +0.000 A 
ATOM     18  C   UNL     1      47.862   7.001  11.403  0.00  0.00    +0.000 A 
ATOM     19  C   UNL     1      47.016   6.437  12.369  0.00  0.00    +0.000 A 
ATOM     20  C   UNL     1      47.407   6.583  13.707  0.00  0.00    +0.000 A 
BRANCH  19  21
ATOM     21  N   UNL     1      45.871   5.756  12.010  0.00  0.00    +0.000 N 
ATOM     22  C   UNL     1      45.216   4.750  12.859  0.00  0.00    +0.000 C 
ATOM     23  C   UNL     1      45.127   3.408  12.116  0.00  0.00    +0.000 C 
ATOM     24  O   UNL     1      44.469   3.552  10.846  0.00  0.00    +0.000 OA
ATOM     25  C   UNL     1      45.187   4.481  10.016  0.00  0.00    +0.000 C 
ATOM     26  C   UNL     1      45.286   5.874  10.664  0.00  0.00    +0.000 C 
ENDBRANCH  19  21
ENDBRANCH  14  15
ENDBRANCH   1  14
TORSDOF 5
ENDMDL
MODEL 8
REMARK VINA RESULT:    -5.632      4.364      8.113
REMARK INTER + INTRA:          -8.663
REMARK INTER:                  -7.575
REMARK INTRA:                  -1.088
REMARK UNBOUND:                -1.384
REMARK  Name = 
REMARK  5 active torsions:
REMARK  status: ('A' for Active; 'I' for Inactive)
REMARK    1  A    between atoms: C_2  and  C_4
REMARK    2  A    between atoms: C_10  and  O_11
REMARK    3  A    between atoms: O_11  and  C_12
REMARK    4  A    between atoms: C_12  and  C_13
REMARK    5  A    between atoms: C_17  and  N_18
REMARK                            x       y       z     vdW  Elec       q    Type
REMARK                         _______ _______ _______ _____ _____    ______ ____
ROOT
ATOM      1  O   UNL     1      47.295   4.167  14.487  0.00  0.00    +0.000 OA
ENDROOT
BRANCH   1   8
ATOM      2  C   UNL     1      45.736   5.143  13.029  0.00  0.00    +0.000 A 
ATOM      3  C   UNL     1      45.234   6.206  12.255  0.00  0.00    +0.000 A 
ATOM      4  C   UNL     1      45.913   7.415  12.184  0.00  0.00    +0.000 A 
ATOM      5  C   UNL     1      47.087   7.571  12.903  0.00  0.00    +0.000 A 
ATOM      6  C   UNL     1      47.601   6.529  13.698  0.00  0.00    +0.000 A 
ATOM      7 CL   UNL     1      49.060   6.958  14.527  0.00  0.00    +0.000 Cl
ATOM      8  C   UNL     1      46.938   5.285  13.772  0.00  0.00    +0.000 A 
BRANCH   2  10
ATOM      9  N   UNL     1      45.485   2.753  12.538  0.00  0.00    +0.000 N 
ATOM     10  C   UNL     1      44.905   3.900  12.994  0.00  0.00    +0.000 C 
ATOM     11  O   UNL     1      43.727   3.908  13.335  0.00  0.00    +0.000 OA
ATOM     12  H   UNL     1      44.956   1.898  12.648  0.00  0.00    +0.000 HD
ATOM     13  H   UNL     1      46.492   2.686  12.480  0.00  0.00    +0.000 HD
ENDBRANCH   2  10
ENDBRANCH   1   8
BRANCH   1  14
ATOM     14  C   UNL     1      47.069   4.080  15.888  0.00  0.00    +0.000 C 
BRANCH  14  15
ATOM     15  C   UNL     1      48.349   3.715  16.606  0.00  0.00    +0.000 A 
ATOM     16  C   UNL     1      48.859   2.415  16.548  0.00  0.00    +0.000 A 
ATOM     17  C   UNL     1      50.099   2.130  17.112  0.00  0.00    +0.000 A 
ATOM     18  C   UNL     1      50.843   3.148  17.718  0.00  0.00    +0.000 A 
ATOM     19  C   UNL     1      50.375   4.468  17.794  0.00  0.00    +0.000 A 
ATOM     20  C   UNL     1      49.109   4.716  17.244  0.00  0.00    +0.000 A 
BRANCH  19  21
ATOM     21  N   UNL     1      51.135   5.467  18.364  0.00  0.00    +0.000 N 
ATOM     22  C   UNL     1      50.851   6.066  19.677  0.00  0.00    +0.000 C 
ATOM     23  C   UNL     1      50.649   7.582  19.535  0.00  0.00    +0.000 C 
ATOM     24  O   UNL     1      51.774   8.205  18.891  0.00  0.00    +0.000 OA
ATOM     25  C   UNL     1      51.966   7.650  17.579  0.00  0.00    +0.000 C 
ATOM     26  C   UNL     1      52.222   6.132  17.628  0.00  0.00    +0.000 C 
ENDBRANCH  19  21
ENDBRANCH  14  15
ENDBRANCH   1  14
TORSDOF 5
ENDMDL
MODEL 9
REMARK VINA RESULT:    -5.555      3.203      7.299
REMARK INTER + INTRA:          -8.563
REMARK INTER:                  -7.418
REMARK INTRA:                  -1.145
REMARK UNBOUND:                -1.384
REMARK  Name = 
REMARK  5 active torsions:
REMARK  status: ('A' for Active; 'I' for Inactive)
REMARK    1  A    between atoms: C_2  and  C_4
REMARK    2  A    between atoms: C_10  and  O_11
REMARK    3  A    between atoms: O_11  and  C_12
REMARK    4  A    between atoms: C_12  and  C_13
REMARK    5  A    between atoms: C_17  and  N_18
REMARK                            x       y       z     vdW  Elec       q    Type
REMARK                         _______ _______ _______ _____ _____    ______ ____
ROOT
ATOM      1  O   UNL     1      46.574   6.776  12.999  0.00  0.00    +0.000 OA
ENDROOT
BRANCH   1   8
ATOM      2  C   UNL     1      45.269   4.826  13.027  0.00  0.00    +0.000 A 
ATOM      3  C   UNL     1      44.129   4.072  12.688  0.00  0.00    +0.000 A 
ATOM      4  C   UNL     1      43.130   4.614  11.892  0.00  0.00    +0.000 A 
ATOM      5  C   UNL     1      43.257   5.920  11.447  0.00  0.00    +0.000 A 
ATOM      6  C   UNL     1      44.379   6.701  11.785  0.00  0.00    +0.000 A 
ATOM      7 CL   UNL     1      44.312   8.308  11.143  0.00  0.00    +0.000 Cl
ATOM      8  C   UNL     1      45.417   6.165  12.579  0.00  0.00    +0.000 A 
BRANCH   2  10
ATOM      9  N   UNL     1      46.537   4.606  15.114  0.00  0.00    +0.000 N 
ATOM     10  C   UNL     1      46.265   4.103  13.876  0.00  0.00    +0.000 C 
ATOM     11  O   UNL     1      46.848   3.104  13.470  0.00  0.00    +0.000 OA
ATOM     12  H   UNL     1      47.107   4.035  15.725  0.00  0.00    +0.000 HD
ATOM     13  H   UNL     1      45.907   5.275  15.537  0.00  0.00    +0.000 HD
ENDBRANCH   2  10
ENDBRANCH   1   8
BRANCH   1  14
ATOM     14  C   UNL     1      47.641   7.043  12.098  0.00  0.00    +0.000 C 
BRANCH  14  15
ATOM     15  C   UNL     1      48.913   7.340  12.860  0.00  0.00    +0.000 A 
ATOM     16  C   UNL     1      49.913   8.141  12.302  0.00  0.00    +0.000 A 
ATOM     17  C   UNL     1      51.019   8.502  13.066  0.00  0.00    +0.000 A 
ATOM     18  C   UNL     1      51.119   8.080  14.396  0.00  0.00    +0.000 A 
ATOM     19  C   UNL     1      50.137   7.281  15.000  0.00  0.00    +0.000 A 
ATOM     20  C   UNL     1      49.051   6.909  14.196  0.00  0.00    +0.000 A 
BRANCH  19  21
ATOM     21  N   UNL     1      50.233   6.902  16.323  0.00  0.00    +0.000 N 
ATOM     22  C   UNL     1      51.317   6.065  16.859  0.00  0.00    +0.000 C 
ATOM     23  C   UNL     1      50.737   4.799  17.507  0.00  0.00    +0.000 C 
ATOM     24  O   UNL     1      49.759   5.123  18.511  0.00  0.00    +0.000 OA
ATOM     25  C   UNL     1      48.676   5.869  17.928  0.00  0.00    +0.000 C 
ATOM     26  C   UNL     1      49.161   7.184  17.291  0.00  0.00    +0.000 C 
ENDBRANCH  19  21
ENDBRANCH  14  15
ENDBRANCH   1  14
TORSDOF 5
ENDMDL
