MODEL 1
REMARK VINA RESULT:    -7.970      0.000      0.000
REMARK INTER + INTRA:         -12.667
REMARK INTER:                 -11.231
REMARK INTRA:                  -1.436
REMARK UNBOUND:                -1.436
REMARK  Name = 
REMARK  9 active torsions:
REMARK  status: ('A' for Active; 'I' for Inactive)
REMARK    1  A    between atoms: C_1  and  C_2
REMARK    2  A    between atoms: C_2  and  N_3
REMARK    3  A    between atoms: C_2  and  C_26
REMARK    4  A    between atoms: N_3  and  C_4
REMARK    5  A    between atoms: C_4  and  C_5
REMARK    6  A    between atoms: C_9  and  C_10
REMARK    7  A    between atoms: C_10  and  N_11
REMARK    8  A    between atoms: N_11  and  C_12
REMARK    9  A    between atoms: C_13  and  C_15
REMARK                            x       y       z     vdW  Elec       q    Type
REMARK                         _______ _______ _______ _____ _____    ______ ____
ROOT
ATOM      1  C   UNL     1      45.608   5.390  11.801  0.00  0.00    +0.000 A 
ATOM      2  C   UNL     1      45.851   4.250  12.581  0.00  0.00    +0.000 A 
ATOM      3  C   UNL     1      46.658   4.319  13.716  0.00  0.00    +0.000 A 
ATOM      4  C   UNL     1      47.261   5.521  14.073  0.00  0.00    +0.000 A 
ATOM      5  C   UNL     1      47.089   6.655  13.274  0.00  0.00    +0.000 A 
ATOM      6  C   UNL     1      46.249   6.587  12.147  0.00  0.00    +0.000 A 
ENDROOT
BRANCH   1   7
ATOM      7  C   UNL     1      44.609   5.326  10.664  0.00  0.00    +0.000 C 
BRANCH   7   8
ATOM      8  N   UNL     1      45.214   4.893   9.413  0.00  0.00    +0.000 NA
ATOM      9  H   UNL     1      45.079   5.620   8.708  0.00  0.00    +0.000 HD
BRANCH   8  11
ATOM     10  C   UNL     1      44.126   2.710   9.988  0.00  0.00    +0.000 C 
ATOM     11  C   UNL     1      44.626   3.650   8.881  0.00  0.00    +0.000 C 
BRANCH  11  12
ATOM     12  C   UNL     1      45.667   2.937   8.028  0.00  0.00    +0.000 A 
ATOM     13  C   UNL     1      46.064   1.625   8.325  0.00  0.00    +0.000 A 
ATOM     14  C   UNL     1      46.988   0.964   7.510  0.00  0.00    +0.000 A 
ATOM     15  C   UNL     1      47.525   1.605   6.395  0.00  0.00    +0.000 A 
ATOM     16  C   UNL     1      47.148   2.911   6.096  0.00  0.00    +0.000 A 
ATOM     17  C   UNL     1      46.226   3.572   6.906  0.00  0.00    +0.000 A 
ENDBRANCH  11  12
ENDBRANCH   8  11
ENDBRANCH   7   8
ENDBRANCH   1   7
BRANCH   5  18
ATOM     18  C   UNL     1      47.777   7.948  13.628  0.00  0.00    +0.000 C 
BRANCH  18  19
ATOM     19  N   UNL     1      49.246   7.981  13.592  0.00  0.00    +0.000 N 
ATOM     20  C   UNL     1      49.927   7.624  12.351  0.00  0.00    +0.000 C 
ATOM     21  C   UNL     1      50.041   8.354  14.699  0.00  0.00    +0.000 C 
ATOM     22  O   UNL     1      51.261   8.454  14.616  0.00  0.00    +0.000 OA
BRANCH  21  23
ATOM     23  C   UNL     1      49.363   8.601  15.984  0.00  0.00    +0.000 A 
ATOM     24  C   UNL     1      49.042   9.860  16.460  0.00  0.00    +0.000 A 
ATOM     25  S   UNL     1      48.029   9.827  17.834  0.00  0.00    +0.000 S 
ATOM     26  C   UNL     1      48.193   8.138  17.966  0.00  0.00    +0.000 A 
ATOM     27  N   UNL     1      47.577   7.459  18.969  0.00  0.00    +0.000 NA
ATOM     28  C   UNL     1      47.840   6.194  18.991  0.00  0.00    +0.000 A 
ATOM     29  N   UNL     1      48.667   5.550  18.102  0.00  0.00    +0.000 N 
ATOM     30  C   UNL     1      49.308   6.197  17.056  0.00  0.00    +0.000 A 
ATOM     31  O   UNL     1      50.062   5.575  16.318  0.00  0.00    +0.000 OA
ATOM     32  C   UNL     1      49.005   7.615  16.975  0.00  0.00    +0.000 A 
ATOM     33  H   UNL     1      48.868   4.569  18.199  0.00  0.00    +0.000 HD
ENDBRANCH  21  23
ENDBRANCH  18  19
ENDBRANCH   5  18
TORSDOF 7
ENDMDL
MODEL 2
REMARK VINA RESULT:    -7.877      2.404      3.536
REMARK INTER + INTRA:         -12.537
REMARK INTER:                 -10.873
REMARK INTRA:                  -1.664
REMARK UNBOUND:                -1.436
REMARK  Name = 
REMARK  9 active torsions:
REMARK  status: ('A' for Active; 'I' for Inactive)
REMARK    1  A    between atoms: C_1  and  C_2
REMARK    2  A    between atoms: C_2  and  N_3
REMARK    3  A    between atoms: C_2  and  C_26
REMARK    4  A    between atoms: N_3  and  C_4
REMARK    5  A    between atoms: C_4  and  C_5
REMARK    6  A    between atoms: C_9  and  C_10
REMARK    7  A    between atoms: C_10  and  N_11
REMARK    8  A    between atoms: N_11  and  C_12
REMARK    9  A    between atoms: C_13  and  C_15
REMARK                            x       y       z     vdW  Elec       q    Type
REMARK                         _______ _______ _______ _____ _____    ______ ____
ROOT
ATOM      1  C   UNL     1      46.460   5.954  12.807  0.00  0.00    +0.000 A 
ATOM      2  C   UNL     1      46.798   6.747  11.700  0.00  0.00    +0.000 A 
ATOM      3  C   UNL     1      47.990   7.469  11.675  0.00  0.00    +0.000 A 
ATOM      4  C   UNL     1      48.850   7.437  12.769  0.00  0.00    +0.000 A 
ATOM      5  C   UNL     1      48.504   6.708  13.911  0.00  0.00    +0.000 A 
ATOM      6  C   UNL     1      47.314   5.957  13.917  0.00  0.00    +0.000 A 
ENDROOT
BRANCH   1   7
ATOM      7  C   UNL     1      45.238   5.062  12.748  0.00  0.00    +0.000 C 
BRANCH   7   8
ATOM      8  N   UNL     1      44.394   5.345  11.596  0.00  0.00    +0.000 NA
ATOM      9  H   UNL     1      43.637   5.970  11.882  0.00  0.00    +0.000 HD
BRANCH   8  11
ATOM     10  C   UNL     1      43.573   3.022  12.053  0.00  0.00    +0.000 C 
ATOM     11  C   UNL     1      43.774   4.139  11.019  0.00  0.00    +0.000 C 
BRANCH  11  12
ATOM     12  C   UNL     1      44.645   3.635   9.875  0.00  0.00    +0.000 A 
ATOM     13  C   UNL     1      44.806   2.260   9.646  0.00  0.00    +0.000 A 
ATOM     14  C   UNL     1      45.573   1.808   8.568  0.00  0.00    +0.000 A 
ATOM     15  C   UNL     1      46.188   2.721   7.712  0.00  0.00    +0.000 A 
ATOM     16  C   UNL     1      46.045   4.088   7.936  0.00  0.00    +0.000 A 
ATOM     17  C   UNL     1      45.280   4.541   9.009  0.00  0.00    +0.000 A 
ENDBRANCH  11  12
ENDBRANCH   8  11
ENDBRANCH   7   8
ENDBRANCH   1   7
BRANCH   5  18
ATOM     18  C   UNL     1      49.407   6.705  15.116  0.00  0.00    +0.000 C 
BRANCH  18  19
ATOM     19  N   UNL     1      48.961   7.430  16.314  0.00  0.00    +0.000 N 
ATOM     20  C   UNL     1      49.029   8.888  16.320  0.00  0.00    +0.000 C 
ATOM     21  C   UNL     1      48.452   6.787  17.466  0.00  0.00    +0.000 C 
ATOM     22  O   UNL     1      48.007   7.421  18.418  0.00  0.00    +0.000 OA
BRANCH  21  23
ATOM     23  C   UNL     1      48.490   5.316  17.508  0.00  0.00    +0.000 A 
ATOM     24  C   UNL     1      47.364   4.512  17.506  0.00  0.00    +0.000 A 
ATOM     25  S   UNL     1      47.713   2.854  17.289  0.00  0.00    +0.000 S 
ATOM     26  C   UNL     1      49.383   3.145  17.434  0.00  0.00    +0.000 A 
ATOM     27  N   UNL     1      50.274   2.121  17.358  0.00  0.00    +0.000 NA
ATOM     28  C   UNL     1      51.502   2.473  17.551  0.00  0.00    +0.000 A 
ATOM     29  N   UNL     1      51.917   3.756  17.817  0.00  0.00    +0.000 N 
ATOM     30  C   UNL     1      51.050   4.835  17.892  0.00  0.00    +0.000 A 
ATOM     31  O   UNL     1      51.476   5.949  18.168  0.00  0.00    +0.000 OA
ATOM     32  C   UNL     1      49.663   4.485  17.641  0.00  0.00    +0.000 A 
ATOM     33  H   UNL     1      52.885   3.958  18.003  0.00  0.00    +0.000 HD
ENDBRANCH  21  23
ENDBRANCH  18  19
ENDBRANCH   5  18
TORSDOF 7
ENDMDL
MODEL 3
REMARK VINA RESULT:    -7.651      1.825      2.469
REMARK INTER + INTRA:         -12.217
REMARK INTER:                 -10.864
REMARK INTRA:                  -1.353
REMARK UNBOUND:                -1.436
REMARK  Name = 
REMARK  9 active torsions:
REMARK  status: ('A' for Active; 'I' for Inactive)
REMARK    1  A    between atoms: C_1  and  C_2
REMARK    2  A    between atoms: C_2  and  N_3
REMARK    3  A    between atoms: C_2  and  C_26
REMARK    4  A    between atoms: N_3  and  C_4
REMARK    5  A    between atoms: C_4  and  C_5
REMARK    6  A    between atoms: C_9  and  C_10
REMARK    7  A    between atoms: C_10  and  N_11
REMARK    8  A    between atoms: N_11  and  C_12
REMARK    9  A    between atoms: C_13  and  C_15
REMARK                            x       y       z     vdW  Elec       q    Type
REMARK                         _______ _______ _______ _____ _____    ______ ____
ROOT
ATOM      1  C   UNL     1      45.735   5.498  11.798  0.00  0.00    +0.000 A 
ATOM      2  C   UNL     1      45.485   4.696  12.920  0.00  0.00    +0.000 A 
ATOM      3  C   UNL     1      46.325   4.735  14.031  0.00  0.00    +0.000 A 
ATOM      4  C   UNL     1      47.451   5.554  14.027  0.00  0.00    +0.000 A 
ATOM      5  C   UNL     1      47.760   6.313  12.894  0.00  0.00    +0.000 A 
ATOM      6  C   UNL     1      46.890   6.292  11.789  0.00  0.00    +0.000 A 
ENDROOT
BRANCH   1   7
ATOM      7  C   UNL     1      44.728   5.552  10.669  0.00  0.00    +0.000 C 
BRANCH   7   8
ATOM      8  N   UNL     1      45.276   5.078   9.407  0.00  0.00    +0.000 NA
ATOM      9  H   UNL     1      45.154   5.803   8.697  0.00  0.00    +0.000 HD
BRANCH   8  11
ATOM     10  C   UNL     1      44.050   2.986  10.037  0.00  0.00    +0.000 C 
ATOM     11  C   UNL     1      44.617   3.857   8.908  0.00  0.00    +0.000 C 
BRANCH  11  12
ATOM     12  C   UNL     1      45.619   3.055   8.088  0.00  0.00    +0.000 A 
ATOM     13  C   UNL     1      45.950   1.739   8.445  0.00  0.00    +0.000 A 
ATOM     14  C   UNL     1      46.839   0.997   7.662  0.00  0.00    +0.000 A 
ATOM     15  C   UNL     1      47.406   1.559   6.520  0.00  0.00    +0.000 A 
ATOM     16  C   UNL     1      47.095   2.868   6.161  0.00  0.00    +0.000 A 
ATOM     17  C   UNL     1      46.209   3.610   6.939  0.00  0.00    +0.000 A 
ENDBRANCH  11  12
ENDBRANCH   8  11
ENDBRANCH   7   8
ENDBRANCH   1   7
BRANCH   5  18
ATOM     18  C   UNL     1      49.001   7.167  12.865  0.00  0.00    +0.000 C 
BRANCH  18  19
ATOM     19  N   UNL     1      48.866   8.592  13.195  0.00  0.00    +0.000 N 
ATOM     20  C   UNL     1      48.484   9.525  12.139  0.00  0.00    +0.000 C 
ATOM     21  C   UNL     1      49.073   9.111  14.493  0.00  0.00    +0.000 C 
ATOM     22  O   UNL     1      48.869  10.292  14.759  0.00  0.00    +0.000 OA
BRANCH  21  23
ATOM     23  C   UNL     1      49.569   8.193  15.532  0.00  0.00    +0.000 A 
ATOM     24  C   UNL     1      48.808   7.745  16.598  0.00  0.00    +0.000 A 
ATOM     25  S   UNL     1      49.554   6.490  17.484  0.00  0.00    +0.000 S 
ATOM     26  C   UNL     1      51.004   6.682  16.615  0.00  0.00    +0.000 A 
ATOM     27  N   UNL     1      52.086   5.908  16.894  0.00  0.00    +0.000 NA
ATOM     28  C   UNL     1      53.139   6.205  16.207  0.00  0.00    +0.000 A 
ATOM     29  N   UNL     1      53.207   7.207  15.269  0.00  0.00    +0.000 N 
ATOM     30  C   UNL     1      52.129   8.014  14.941  0.00  0.00    +0.000 A 
ATOM     31  O   UNL     1      52.261   8.915  14.123  0.00  0.00    +0.000 OA
ATOM     32  C   UNL     1      50.913   7.685  15.665  0.00  0.00    +0.000 A 
ATOM     33  H   UNL     1      54.071   7.418  14.799  0.00  0.00    +0.000 HD
ENDBRANCH  21  23
ENDBRANCH  18  19
ENDBRANCH   5  18
TORSDOF 7
ENDMDL
MODEL 4
REMARK VINA RESULT:    -7.559      2.283      3.304
REMARK INTER + INTRA:         -12.088
REMARK INTER:                 -11.691
REMARK INTRA:                  -0.397
REMARK UNBOUND:                -1.436
REMARK  Name = 
REMARK  9 active torsions:
REMARK  status: ('A' for Active; 'I' for Inactive)
REMARK    1  A    between atoms: C_1  and  C_2
REMARK    2  A    between atoms: C_2  and  N_3
REMARK    3  A    between atoms: C_2  and  C_26
REMARK    4  A    between atoms: N_3  and  C_4
REMARK    5  A    between atoms: C_4  and  C_5
REMARK    6  A    between atoms: C_9  and  C_10
REMARK    7  A    between atoms: C_10  and  N_11
REMARK    8  A    between atoms: N_11  and  C_12
REMARK    9  A    between atoms: C_13  and  C_15
REMARK                            x       y       z     vdW  Elec       q    Type
REMARK                         _______ _______ _______ _____ _____    ______ ____
ROOT
ATOM      1  C   UNL     1      46.310   6.350  11.957  0.00  0.00    +0.000 A 
ATOM      2  C   UNL     1      47.300   7.114  11.321  0.00  0.00    +0.000 A 
ATOM      3  C   UNL     1      48.522   7.364  11.944  0.00  0.00    +0.000 A 
ATOM      4  C   UNL     1      48.763   6.884  13.228  0.00  0.00    +0.000 A 
ATOM      5  C   UNL     1      47.767   6.178  13.909  0.00  0.00    +0.000 A 
ATOM      6  C   UNL     1      46.548   5.902  13.262  0.00  0.00    +0.000 A 
ENDROOT
BRANCH   1   7
ATOM      7  C   UNL     1      45.056   5.964  11.202  0.00  0.00    +0.000 C 
BRANCH   7   8
ATOM      8  N   UNL     1      45.339   5.489   9.855  0.00  0.00    +0.000 NA
ATOM      9  H   UNL     1      45.102   6.224   9.185  0.00  0.00    +0.000 HD
BRANCH   8  11
ATOM     10  C   UNL     1      44.057   3.512  10.708  0.00  0.00    +0.000 C 
ATOM     11  C   UNL     1      44.564   4.291   9.485  0.00  0.00    +0.000 C 
BRANCH  11  12
ATOM     12  C   UNL     1      45.433   3.388   8.619  0.00  0.00    +0.000 A 
ATOM     13  C   UNL     1      46.266   3.928   7.628  0.00  0.00    +0.000 A 
ATOM     14  C   UNL     1      47.092   3.095   6.868  0.00  0.00    +0.000 A 
ATOM     15  C   UNL     1      47.092   1.718   7.086  0.00  0.00    +0.000 A 
ATOM     16  C   UNL     1      46.261   1.169   8.058  0.00  0.00    +0.000 A 
ATOM     17  C   UNL     1      45.438   1.997   8.818  0.00  0.00    +0.000 A 
ENDBRANCH  11  12
ENDBRANCH   8  11
ENDBRANCH   7   8
ENDBRANCH   1   7
BRANCH   5  18
ATOM     18  C   UNL     1      48.003   5.694  15.317  0.00  0.00    +0.000 C 
BRANCH  18  19
ATOM     19  N   UNL     1      47.411   4.408  15.712  0.00  0.00    +0.000 N 
ATOM     20  C   UNL     1      46.896   3.522  14.673  0.00  0.00    +0.000 C 
ATOM     21  C   UNL     1      47.326   3.973  17.054  0.00  0.00    +0.000 C 
ATOM     22  O   UNL     1      46.905   2.859  17.349  0.00  0.00    +0.000 OA
BRANCH  21  23
ATOM     23  C   UNL     1      47.738   4.912  18.112  0.00  0.00    +0.000 A 
ATOM     24  C   UNL     1      46.877   5.792  18.744  0.00  0.00    +0.000 A 
ATOM     25  S   UNL     1      47.570   6.560  20.103  0.00  0.00    +0.000 S 
ATOM     26  C   UNL     1      49.102   5.919  19.736  0.00  0.00    +0.000 A 
ATOM     27  N   UNL     1      50.179   6.208  20.514  0.00  0.00    +0.000 NA
ATOM     28  C   UNL     1      51.291   5.712  20.084  0.00  0.00    +0.000 A 
ATOM     29  N   UNL     1      51.423   4.956  18.944  0.00  0.00    +0.000 N 
ATOM     30  C   UNL     1      50.355   4.624  18.125  0.00  0.00    +0.000 A 
ATOM     31  O   UNL     1      50.541   3.978  17.102  0.00  0.00    +0.000 OA
ATOM     32  C   UNL     1      49.079   5.132  18.598  0.00  0.00    +0.000 A 
ATOM     33  H   UNL     1      52.326   4.635  18.637  0.00  0.00    +0.000 HD
ENDBRANCH  21  23
ENDBRANCH  18  19
ENDBRANCH   5  18
TORSDOF 7
ENDMDL
MODEL 5
REMARK VINA RESULT:    -7.474      3.453      8.562
REMARK INTER + INTRA:         -11.968
REMARK INTER:                 -10.533
REMARK INTRA:                  -1.435
REMARK UNBOUND:                -1.436
REMARK  Name = 
REMARK  9 active torsions:
REMARK  status: ('A' for Active; 'I' for Inactive)
REMARK    1  A    between atoms: C_1  and  C_2
REMARK    2  A    between atoms: C_2  and  N_3
REMARK    3  A    between atoms: C_2  and  C_26
REMARK    4  A    between atoms: N_3  and  C_4
REMARK    5  A    between atoms: C_4  and  C_5
REMARK    6  A    between atoms: C_9  and  C_10
REMARK    7  A    between atoms: C_10  and  N_11
REMARK    8  A    between atoms: N_11  and  C_12
REMARK    9  A    between atoms: C_13  and  C_15
REMARK                            x       y       z     vdW  Elec       q    Type
REMARK                         _______ _______ _______ _____ _____    ______ ____
ROOT
ATOM      1  C   UNL     1      49.890   7.590  13.963  0.00  0.00    +0.000 A 
ATOM      2  C   UNL     1      50.468   8.069  12.778  0.00  0.00    +0.000 A 
ATOM      3  C   UNL     1      49.777   8.010  11.569  0.00  0.00    +0.000 A 
ATOM      4  C   UNL     1      48.509   7.440  11.516  0.00  0.00    +0.000 A 
ATOM      5  C   UNL     1      47.938   6.894  12.670  0.00  0.00    +0.000 A 
ATOM      6  C   UNL     1      48.628   6.986  13.893  0.00  0.00    +0.000 A 
ENDROOT
BRANCH   1   7
ATOM      7  C   UNL     1      50.595   7.804  15.285  0.00  0.00    +0.000 C 
BRANCH   7   8
ATOM      8  N   UNL     1      50.919   6.552  15.954  0.00  0.00    +0.000 NA
ATOM      9  H   UNL     1      50.615   5.772  15.369  0.00  0.00    +0.000 HD
BRANCH   8  11
ATOM     10  C   UNL     1      51.254   6.368  18.431  0.00  0.00    +0.000 C 
ATOM     11  C   UNL     1      50.257   6.404  17.264  0.00  0.00    +0.000 C 
BRANCH  11  12
ATOM     12  C   UNL     1      49.424   5.129  17.254  0.00  0.00    +0.000 A 
ATOM     13  C   UNL     1      50.022   3.878  17.473  0.00  0.00    +0.000 A 
ATOM     14  C   UNL     1      49.242   2.718  17.505  0.00  0.00    +0.000 A 
ATOM     15  C   UNL     1      47.863   2.794  17.316  0.00  0.00    +0.000 A 
ATOM     16  C   UNL     1      47.260   4.028  17.086  0.00  0.00    +0.000 A 
ATOM     17  C   UNL     1      48.034   5.186  17.055  0.00  0.00    +0.000 A 
ENDBRANCH  11  12
ENDBRANCH   8  11
ENDBRANCH   7   8
ENDBRANCH   1   7
BRANCH   5  18
ATOM     18  C   UNL     1      46.585   6.234  12.612  0.00  0.00    +0.000 C 
BRANCH  18  19
ATOM     19  N   UNL     1      45.431   7.060  12.230  0.00  0.00    +0.000 N 
ATOM     20  C   UNL     1      45.469   8.493  12.508  0.00  0.00    +0.000 C 
ATOM     21  C   UNL     1      44.282   6.541  11.592  0.00  0.00    +0.000 C 
ATOM     22  O   UNL     1      43.370   7.267  11.208  0.00  0.00    +0.000 OA
BRANCH  21  23
ATOM     23  C   UNL     1      44.190   5.082  11.416  0.00  0.00    +0.000 A 
ATOM     24  C   UNL     1      43.631   4.223  12.346  0.00  0.00    +0.000 A 
ATOM     25  S   UNL     1      43.419   2.633  11.761  0.00  0.00    +0.000 S 
ATOM     26  C   UNL     1      44.286   2.995  10.342  0.00  0.00    +0.000 A 
ATOM     27  N   UNL     1      44.494   2.043   9.395  0.00  0.00    +0.000 NA
ATOM     28  C   UNL     1      45.223   2.434   8.403  0.00  0.00    +0.000 A 
ATOM     29  N   UNL     1      45.766   3.690   8.277  0.00  0.00    +0.000 N 
ATOM     30  C   UNL     1      45.572   4.699   9.208  0.00  0.00    +0.000 A 
ATOM     31  O   UNL     1      46.112   5.787   9.058  0.00  0.00    +0.000 OA
ATOM     32  C   UNL     1      44.724   4.308  10.321  0.00  0.00    +0.000 A 
ATOM     33  H   UNL     1      46.363   3.920   7.500  0.00  0.00    +0.000 HD
ENDBRANCH  21  23
ENDBRANCH  18  19
ENDBRANCH   5  18
TORSDOF 7
ENDMDL
MODEL 6
REMARK VINA RESULT:    -7.404      1.700      2.519
REMARK INTER + INTRA:         -11.870
REMARK INTER:                 -10.449
REMARK INTRA:                  -1.421
REMARK UNBOUND:                -1.436
REMARK  Name = 
REMARK  9 active torsions:
REMARK  status: ('A' for Active; 'I' for Inactive)
REMARK    1  A    between atoms: C_1  and  C_2
REMARK    2  A    between atoms: C_2  and  N_3
REMARK    3  A    between atoms: C_2  and  C_26
REMARK    4  A    between atoms: N_3  and  C_4
REMARK    5  A    between atoms: C_4  and  C_5
REMARK    6  A    between atoms: C_9  and  C_10
REMARK    7  A    between atoms: C_10  and  N_11
REMARK    8  A    between atoms: N_11  and  C_12
REMARK    9  A    between atoms: C_13  and  C_15
REMARK                            x       y       z     vdW  Elec       q    Type
REMARK                         _______ _______ _______ _____ _____    ______ ____
ROOT
ATOM      1  C   UNL     1      45.614   6.706  11.765  0.00  0.00    +0.000 A 
ATOM      2  C   UNL     1      44.746   7.699  11.287  0.00  0.00    +0.000 A 
ATOM      3  C   UNL     1      44.814   9.004  11.771  0.00  0.00    +0.000 A 
ATOM      4  C   UNL     1      45.731   9.333  12.765  0.00  0.00    +0.000 A 
ATOM      5  C   UNL     1      46.562   8.347  13.306  0.00  0.00    +0.000 A 
ATOM      6  C   UNL     1      46.508   7.039  12.791  0.00  0.00    +0.000 A 
ENDROOT
BRANCH   1   7
ATOM      7  C   UNL     1      45.623   5.338  11.118  0.00  0.00    +0.000 C 
BRANCH   7   8
ATOM      8  N   UNL     1      45.054   5.349   9.778  0.00  0.00    +0.000 NA
ATOM      9  H   UNL     1      44.351   6.089   9.721  0.00  0.00    +0.000 HD
BRANCH   8  11
ATOM     10  C   UNL     1      43.953   3.271  10.644  0.00  0.00    +0.000 C 
ATOM     11  C   UNL     1      44.392   4.083   9.416  0.00  0.00    +0.000 C 
BRANCH  11  12
ATOM     12  C   UNL     1      45.342   3.256   8.561  0.00  0.00    +0.000 A 
ATOM     13  C   UNL     1      46.140   3.864   7.579  0.00  0.00    +0.000 A 
ATOM     14  C   UNL     1      47.040   3.102   6.828  0.00  0.00    +0.000 A 
ATOM     15  C   UNL     1      47.151   1.730   7.046  0.00  0.00    +0.000 A 
ATOM     16  C   UNL     1      46.356   1.113   8.009  0.00  0.00    +0.000 A 
ATOM     17  C   UNL     1      45.459   1.870   8.759  0.00  0.00    +0.000 A 
ENDBRANCH  11  12
ENDBRANCH   8  11
ENDBRANCH   7   8
ENDBRANCH   1   7
BRANCH   5  18
ATOM     18  C   UNL     1      47.524   8.686  14.415  0.00  0.00    +0.000 C 
BRANCH  18  19
ATOM     19  N   UNL     1      48.943   8.353  14.221  0.00  0.00    +0.000 N 
ATOM     20  C   UNL     1      49.690   9.043  13.174  0.00  0.00    +0.000 C 
ATOM     21  C   UNL     1      49.632   7.404  15.010  0.00  0.00    +0.000 C 
ATOM     22  O   UNL     1      50.837   7.208  14.883  0.00  0.00    +0.000 OA
BRANCH  21  23
ATOM     23  C   UNL     1      48.854   6.624  15.988  0.00  0.00    +0.000 A 
ATOM     24  C   UNL     1      48.182   5.452  15.686  0.00  0.00    +0.000 A 
ATOM     25  S   UNL     1      47.598   4.631  17.064  0.00  0.00    +0.000 S 
ATOM     26  C   UNL     1      48.017   5.936  18.071  0.00  0.00    +0.000 A 
ATOM     27  N   UNL     1      47.764   5.890  19.406  0.00  0.00    +0.000 NA
ATOM     28  C   UNL     1      48.070   6.974  20.039  0.00  0.00    +0.000 A 
ATOM     29  N   UNL     1      48.603   8.099  19.457  0.00  0.00    +0.000 N 
ATOM     30  C   UNL     1      48.889   8.190  18.103  0.00  0.00    +0.000 A 
ATOM     31  O   UNL     1      49.328   9.233  17.637  0.00  0.00    +0.000 OA
ATOM     32  C   UNL     1      48.595   6.976  17.363  0.00  0.00    +0.000 A 
ATOM     33  H   UNL     1      48.778   8.928  19.999  0.00  0.00    +0.000 HD
ENDBRANCH  21  23
ENDBRANCH  18  19
ENDBRANCH   5  18
TORSDOF 7
ENDMDL
MODEL 7
REMARK VINA RESULT:    -7.343      3.073      4.059
REMARK INTER + INTRA:         -11.785
REMARK INTER:                 -10.371
REMARK INTRA:                  -1.413
REMARK UNBOUND:                -1.436
REMARK  Name = 
REMARK  9 active torsions:
REMARK  status: ('A' for Active; 'I' for Inactive)
REMARK    1  A    between atoms: C_1  and  C_2
REMARK    2  A    between atoms: C_2  and  N_3
REMARK    3  A    between atoms: C_2  and  C_26
REMARK    4  A    between atoms: N_3  and  C_4
REMARK    5  A    between atoms: C_4  and  C_5
REMARK    6  A    between atoms: C_9  and  C_10
REMARK    7  A    between atoms: C_10  and  N_11
REMARK    8  A    between atoms: N_11  and  C_12
REMARK    9  A    between atoms: C_13  and  C_15
REMARK                            x       y       z     vdW  Elec       q    Type
REMARK                         _______ _______ _______ _____ _____    ______ ____
ROOT
ATOM      1  C   UNL     1      45.883   5.586  11.925  0.00  0.00    +0.000 A 
ATOM      2  C   UNL     1      46.138   5.075  13.206  0.00  0.00    +0.000 A 
ATOM      3  C   UNL     1      47.220   5.531  13.957  0.00  0.00    +0.000 A 
ATOM      4  C   UNL     1      48.086   6.483  13.428  0.00  0.00    +0.000 A 
ATOM      5  C   UNL     1      47.893   6.958  12.127  0.00  0.00    +0.000 A 
ATOM      6  C   UNL     1      46.781   6.517  11.387  0.00  0.00    +0.000 A 
ENDROOT
BRANCH   1   7
ATOM      7  C   UNL     1      44.619   5.189  11.192  0.00  0.00    +0.000 C 
BRANCH   7   8
ATOM      8  N   UNL     1      44.839   4.988   9.767  0.00  0.00    +0.000 NA
ATOM      9  H   UNL     1      44.327   5.702   9.246  0.00  0.00    +0.000 HD
BRANCH   8  11
ATOM     10  C   UNL     1      44.009   2.719  10.432  0.00  0.00    +0.000 C 
ATOM     11  C   UNL     1      44.374   3.674   9.286  0.00  0.00    +0.000 C 
BRANCH  11  12
ATOM     12  C   UNL     1      45.461   3.052   8.420  0.00  0.00    +0.000 A 
ATOM     13  C   UNL     1      46.207   3.838   7.529  0.00  0.00    +0.000 A 
ATOM     14  C   UNL     1      47.232   3.266   6.769  0.00  0.00    +0.000 A 
ATOM     15  C   UNL     1      47.519   1.907   6.888  0.00  0.00    +0.000 A 
ATOM     16  C   UNL     1      46.778   1.114   7.759  0.00  0.00    +0.000 A 
ATOM     17  C   UNL     1      45.757   1.682   8.519  0.00  0.00    +0.000 A 
ENDBRANCH  11  12
ENDBRANCH   8  11
ENDBRANCH   7   8
ENDBRANCH   1   7
BRANCH   5  18
ATOM     18  C   UNL     1      48.853   7.955  11.531  0.00  0.00    +0.000 C 
BRANCH  18  19
ATOM     19  N   UNL     1      48.816   9.335  12.034  0.00  0.00    +0.000 N 
ATOM     20  C   UNL     1      47.519   9.973  12.241  0.00  0.00    +0.000 C 
ATOM     21  C   UNL     1      49.976  10.080  12.343  0.00  0.00    +0.000 C 
ATOM     22  O   UNL     1      49.913  11.200  12.842  0.00  0.00    +0.000 OA
BRANCH  21  23
ATOM     23  C   UNL     1      51.285   9.483  12.026  0.00  0.00    +0.000 A 
ATOM     24  C   UNL     1      51.878   9.537  10.777  0.00  0.00    +0.000 A 
ATOM     25  S   UNL     1      53.499   9.000  10.773  0.00  0.00    +0.000 S 
ATOM     26  C   UNL     1      53.369   8.462  12.381  0.00  0.00    +0.000 A 
ATOM     27  N   UNL     1      54.424   7.869  13.001  0.00  0.00    +0.000 NA
ATOM     28  C   UNL     1      54.167   7.449  14.195  0.00  0.00    +0.000 A 
ATOM     29  N   UNL     1      52.950   7.565  14.823  0.00  0.00    +0.000 N 
ATOM     30  C   UNL     1      51.849   8.171  14.238  0.00  0.00    +0.000 A 
ATOM     31  O   UNL     1      50.781   8.212  14.834  0.00  0.00    +0.000 OA
ATOM     32  C   UNL     1      52.110   8.693  12.908  0.00  0.00    +0.000 A 
ATOM     33  H   UNL     1      52.801   7.176  15.739  0.00  0.00    +0.000 HD
ENDBRANCH  21  23
ENDBRANCH  18  19
ENDBRANCH   5  18
TORSDOF 7
ENDMDL
MODEL 8
REMARK VINA RESULT:    -7.235      2.297      3.496
REMARK INTER + INTRA:         -11.632
REMARK INTER:                 -10.199
REMARK INTRA:                  -1.434
REMARK UNBOUND:                -1.436
REMARK  Name = 
REMARK  9 active torsions:
REMARK  status: ('A' for Active; 'I' for Inactive)
REMARK    1  A    between atoms: C_1  and  C_2
REMARK    2  A    between atoms: C_2  and  N_3
REMARK    3  A    between atoms: C_2  and  C_26
REMARK    4  A    between atoms: N_3  and  C_4
REMARK    5  A    between atoms: C_4  and  C_5
REMARK    6  A    between atoms: C_9  and  C_10
REMARK    7  A    between atoms: C_10  and  N_11
REMARK    8  A    between atoms: N_11  and  C_12
REMARK    9  A    between atoms: C_13  and  C_15
REMARK                            x       y       z     vdW  Elec       q    Type
REMARK                         _______ _______ _______ _____ _____    ______ ____
ROOT
ATOM      1  C   UNL     1      46.666   6.483  12.740  0.00  0.00    +0.000 A 
ATOM      2  C   UNL     1      47.084   6.946  11.484  0.00  0.00    +0.000 A 
ATOM      3  C   UNL     1      48.337   7.535  11.318  0.00  0.00    +0.000 A 
ATOM      4  C   UNL     1      49.181   7.699  12.412  0.00  0.00    +0.000 A 
ATOM      5  C   UNL     1      48.760   7.307  13.687  0.00  0.00    +0.000 A 
ATOM      6  C   UNL     1      47.507   6.686  13.841  0.00  0.00    +0.000 A 
ENDROOT
BRANCH   1   7
ATOM      7  C   UNL     1      45.368   5.713  12.865  0.00  0.00    +0.000 C 
BRANCH   7   8
ATOM      8  N   UNL     1      45.440   4.395  12.250  0.00  0.00    +0.000 NA
ATOM      9  H   UNL     1      46.327   4.307  11.751  0.00  0.00    +0.000 HD
BRANCH   8  11
ATOM     10  C   UNL     1      43.361   3.085  11.759  0.00  0.00    +0.000 C 
ATOM     11  C   UNL     1      44.360   4.147  11.277  0.00  0.00    +0.000 C 
BRANCH  11  12
ATOM     12  C   UNL     1      44.978   3.714   9.954  0.00  0.00    +0.000 A 
ATOM     13  C   UNL     1      45.481   4.664   9.051  0.00  0.00    +0.000 A 
ATOM     14  C   UNL     1      46.085   4.255   7.858  0.00  0.00    +0.000 A 
ATOM     15  C   UNL     1      46.189   2.898   7.554  0.00  0.00    +0.000 A 
ATOM     16  C   UNL     1      45.684   1.947   8.436  0.00  0.00    +0.000 A 
ATOM     17  C   UNL     1      45.083   2.352   9.626  0.00  0.00    +0.000 A 
ENDBRANCH  11  12
ENDBRANCH   8  11
ENDBRANCH   7   8
ENDBRANCH   1   7
BRANCH   5  18
ATOM     18  C   UNL     1      49.650   7.525  14.883  0.00  0.00    +0.000 C 
BRANCH  18  19
ATOM     19  N   UNL     1      49.020   7.941  16.145  0.00  0.00    +0.000 N 
ATOM     20  C   UNL     1      48.167   9.126  16.147  0.00  0.00    +0.000 C 
ATOM     21  C   UNL     1      49.186   7.243  17.362  0.00  0.00    +0.000 C 
ATOM     22  O   UNL     1      48.580   7.563  18.380  0.00  0.00    +0.000 OA
BRANCH  21  23
ATOM     23  C   UNL     1      50.136   6.118  17.389  0.00  0.00    +0.000 A 
ATOM     24  C   UNL     1      51.507   6.264  17.503  0.00  0.00    +0.000 A 
ATOM     25  S   UNL     1      52.326   4.791  17.778  0.00  0.00    +0.000 S 
ATOM     26  C   UNL     1      50.901   3.901  17.511  0.00  0.00    +0.000 A 
ATOM     27  N   UNL     1      50.910   2.543  17.579  0.00  0.00    +0.000 NA
ATOM     28  C   UNL     1      49.777   1.992  17.290  0.00  0.00    +0.000 A 
ATOM     29  N   UNL     1      48.640   2.678  16.935  0.00  0.00    +0.000 N 
ATOM     30  C   UNL     1      48.577   4.061  16.865  0.00  0.00    +0.000 A 
ATOM     31  O   UNL     1      47.545   4.612  16.507  0.00  0.00    +0.000 OA
ATOM     32  C   UNL     1      49.822   4.719  17.222  0.00  0.00    +0.000 A 
ATOM     33  H   UNL     1      47.800   2.188  16.678  0.00  0.00    +0.000 HD
ENDBRANCH  21  23
ENDBRANCH  18  19
ENDBRANCH   5  18
TORSDOF 7
ENDMDL
MODEL 9
REMARK VINA RESULT:    -6.874      2.302      3.218
REMARK INTER + INTRA:         -11.123
REMARK INTER:                 -10.518
REMARK INTRA:                  -0.605
REMARK UNBOUND:                -1.436
REMARK  Name = 
REMARK  9 active torsions:
REMARK  status: ('A' for Active; 'I' for Inactive)
REMARK    1  A    between atoms: C_1  and  C_2
REMARK    2  A    between atoms: C_2  and  N_3
REMARK    3  A    between atoms: C_2  and  C_26
REMARK    4  A    between atoms: N_3  and  C_4
REMARK    5  A    between atoms: C_4  and  C_5
REMARK    6  A    between atoms: C_9  and  C_10
REMARK    7  A    between atoms: C_10  and  N_11
REMARK    8  A    between atoms: N_11  and  C_12
REMARK    9  A    between atoms: C_13  and  C_15
REMARK                            x       y       z     vdW  Elec       q    Type
REMARK                         _______ _______ _______ _____ _____    ______ ____
ROOT
ATOM      1  C   UNL     1      46.114   6.253  12.324  0.00  0.00    +0.000 A 
ATOM      2  C   UNL     1      46.993   6.858  11.414  0.00  0.00    +0.000 A 
ATOM      3  C   UNL     1      48.295   7.186  11.786  0.00  0.00    +0.000 A 
ATOM      4  C   UNL     1      48.733   6.944  13.085  0.00  0.00    +0.000 A 
ATOM      5  C   UNL     1      47.855   6.404  14.030  0.00  0.00    +0.000 A 
ATOM      6  C   UNL     1      46.552   6.047  13.639  0.00  0.00    +0.000 A 
ENDROOT
BRANCH   1   7
ATOM      7  C   UNL     1      44.759   5.769  11.854  0.00  0.00    +0.000 C 
BRANCH   7   8
ATOM      8  N   UNL     1      44.688   5.623  10.408  0.00  0.00    +0.000 NA
ATOM      9  H   UNL     1      44.156   6.404  10.019  0.00  0.00    +0.000 HD
BRANCH   8  11
ATOM     10  C   UNL     1      43.608   3.491  11.162  0.00  0.00    +0.000 C 
ATOM     11  C   UNL     1      44.020   4.379   9.980  0.00  0.00    +0.000 C 
BRANCH  11  12
ATOM     12  C   UNL     1      44.955   3.610   9.055  0.00  0.00    +0.000 A 
ATOM     13  C   UNL     1      45.733   4.281   8.100  0.00  0.00    +0.000 A 
ATOM     14  C   UNL     1      46.620   3.570   7.285  0.00  0.00    +0.000 A 
ATOM     15  C   UNL     1      46.735   2.187   7.413  0.00  0.00    +0.000 A 
ATOM     16  C   UNL     1      45.960   1.508   8.349  0.00  0.00    +0.000 A 
ATOM     17  C   UNL     1      45.076   2.214   9.163  0.00  0.00    +0.000 A 
ENDBRANCH  11  12
ENDBRANCH   8  11
ENDBRANCH   7   8
ENDBRANCH   1   7
BRANCH   5  18
ATOM     18  C   UNL     1      48.307   6.181  15.450  0.00  0.00    +0.000 C 
BRANCH  18  19
ATOM     19  N   UNL     1      48.162   4.833  16.017  0.00  0.00    +0.000 N 
ATOM     20  C   UNL     1      47.299   3.873  15.335  0.00  0.00    +0.000 C 
ATOM     21  C   UNL     1      48.828   4.408  17.188  0.00  0.00    +0.000 C 
ATOM     22  O   UNL     1      48.756   3.251  17.591  0.00  0.00    +0.000 OA
BRANCH  21  23
ATOM     23  C   UNL     1      49.606   5.407  17.941  0.00  0.00    +0.000 A 
ATOM     24  C   UNL     1      50.987   5.491  17.916  0.00  0.00    +0.000 A 
ATOM     25  S   UNL     1      51.594   6.902  18.664  0.00  0.00    +0.000 S 
ATOM     26  C   UNL     1      50.048   7.309  19.245  0.00  0.00    +0.000 A 
ATOM     27  N   UNL     1      49.862   8.425  19.998  0.00  0.00    +0.000 NA
ATOM     28  C   UNL     1      48.654   8.578  20.429  0.00  0.00    +0.000 A 
ATOM     29  N   UNL     1      47.617   7.712  20.177  0.00  0.00    +0.000 N 
ATOM     30  C   UNL     1      47.752   6.568  19.406  0.00  0.00    +0.000 A 
ATOM     31  O   UNL     1      46.799   5.817  19.248  0.00  0.00    +0.000 OA
ATOM     32  C   UNL     1      49.090   6.383  18.870  0.00  0.00    +0.000 A 
ATOM     33  H   UNL     1      46.707   7.864  20.580  0.00  0.00    +0.000 HD
ENDBRANCH  21  23
ENDBRANCH  18  19
ENDBRANCH   5  18
TORSDOF 7
ENDMDL
