MODEL 1
REMARK VINA RESULT:    -7.551      0.000      0.000
REMARK INTER + INTRA:         -11.384
REMARK INTER:                 -10.862
REMARK INTRA:                  -0.522
REMARK UNBOUND:                -0.522
REMARK  Name = 
REMARK  9 active torsions:
REMARK  status: ('A' for Active; 'I' for Inactive)
REMARK    1  A    between atoms: C_1  and  C_2
REMARK    2  A    between atoms: C_2  and  N_3
REMARK    3  A    between atoms: N_3  and  C_4
REMARK    4  A    between atoms: N_3  and  C_14
REMARK    5  A    between atoms: C_4  and  C_5
REMARK    6  A    between atoms: C_5  and  C_6
REMARK    7  A    between atoms: C_10  and  C_11
REMARK    8  A    between atoms: C_11  and  N_12
REMARK    9  A    between atoms: C_18  and  C_19
REMARK                            x       y       z     vdW  Elec       q    Type
REMARK                         _______ _______ _______ _____ _____    ______ ____
ROOT
ATOM      1  N   UNL     1      44.646   4.938  11.598  0.00  0.00    +0.000 N 
ENDROOT
BRANCH   1   2
ATOM      2  C   UNL     1      45.810   5.372  12.253  0.00  0.00    +0.000 A 
ATOM      3  C   UNL     1      46.667   6.352  11.734  0.00  0.00    +0.000 A 
ATOM      4  C   UNL     1      47.792   6.792  12.442  0.00  0.00    +0.000 A 
ATOM      5  C   UNL     1      48.089   6.251  13.689  0.00  0.00    +0.000 A 
ATOM      6  C   UNL     1      47.273   5.257  14.232  0.00  0.00    +0.000 A 
ATOM      7  C   UNL     1      46.160   4.816  13.500  0.00  0.00    +0.000 A 
BRANCH   6   8
ATOM      8  C   UNL     1      47.620   4.726  15.581  0.00  0.00    +0.000 C 
ATOM      9  N   UNL     1      46.822   3.768  16.144  0.00  0.00    +0.000 N 
ATOM     10  O   UNL     1      48.595   5.139  16.197  0.00  0.00    +0.000 OA
ATOM     11  H   UNL     1      46.003   3.364  15.720  0.00  0.00    +0.000 HD
ATOM     12  H   UNL     1      47.080   3.452  17.069  0.00  0.00    +0.000 HD
ENDBRANCH   6   8
ENDBRANCH   1   2
BRANCH   1  14
ATOM     13  C   UNL     1      42.198   5.498  11.884  0.00  0.00    +0.000 C 
ATOM     14  C   UNL     1      43.561   5.890  11.332  0.00  0.00    +0.000 C 
ENDBRANCH   1  14
BRANCH   1  15
ATOM     15  C   UNL     1      44.401   3.478  11.686  0.00  0.00    +0.000 C 
BRANCH  15  16
ATOM     16  C   UNL     1      44.127   2.747  10.366  0.00  0.00    +0.000 C 
BRANCH  16  17
ATOM     17  C   UNL     1      45.063   3.087   9.214  0.00  0.00    +0.000 A 
ATOM     18  C   UNL     1      45.282   4.387   8.730  0.00  0.00    +0.000 A 
ATOM     19  C   UNL     1      46.183   4.618   7.684  0.00  0.00    +0.000 A 
ATOM     20  C   UNL     1      46.892   3.562   7.117  0.00  0.00    +0.000 A 
ATOM     21  C   UNL     1      46.694   2.256   7.577  0.00  0.00    +0.000 A 
ATOM     22  C   UNL     1      45.769   2.034   8.612  0.00  0.00    +0.000 A 
BRANCH  21  23
ATOM     23  C   UNL     1      47.448   1.098   6.974  0.00  0.00    +0.000 C 
BRANCH  23  24
ATOM     24  N   UNL     1      48.395   1.549   5.960  0.00  0.00    +0.000 NA
ATOM     25  H   UNL     1      47.894   1.675   5.081  0.00  0.00    +0.000 HD
ATOM     26  H   UNL     1      49.087   0.823   5.800  0.00  0.00    +0.000 HD
ENDBRANCH  23  24
ENDBRANCH  21  23
ENDBRANCH  16  17
ENDBRANCH  15  16
ENDBRANCH   1  15
TORSDOF 8
ENDMDL
MODEL 2
REMARK VINA RESULT:    -7.041      1.485      2.050
REMARK INTER + INTRA:         -10.650
REMARK INTER:                  -9.970
REMARK INTRA:                  -0.680
REMARK UNBOUND:                -0.522
REMARK  Name = 
REMARK  9 active torsions:
REMARK  status: ('A' for Active; 'I' for Inactive)
REMARK    1  A    between atoms: C_1  and  C_2
REMARK    2  A    between atoms: C_2  and  N_3
REMARK    3  A    between atoms: N_3  and  C_4
REMARK    4  A    between atoms: N_3  and  C_14
REMARK    5  A    between atoms: C_4  and  C_5
REMARK    6  A    between atoms: C_5  and  C_6
REMARK    7  A    between atoms: C_10  and  C_11
REMARK    8  A    between atoms: C_11  and  N_12
REMARK    9  A    between atoms: C_18  and  C_19
REMARK                            x       y       z     vdW  Elec       q    Type
REMARK                         _______ _______ _______ _____ _____    ______ ____
ROOT
ATOM      1  N   UNL     1      44.934   5.576  11.462  0.00  0.00    +0.000 N 
ENDROOT
BRANCH   1   2
ATOM      2  C   UNL     1      45.716   6.522  12.143  0.00  0.00    +0.000 A 
ATOM      3  C   UNL     1      45.574   7.905  11.976  0.00  0.00    +0.000 A 
ATOM      4  C   UNL     1      46.341   8.817  12.711  0.00  0.00    +0.000 A 
ATOM      5  C   UNL     1      47.280   8.359  13.631  0.00  0.00    +0.000 A 
ATOM      6  C   UNL     1      47.467   6.987  13.813  0.00  0.00    +0.000 A 
ATOM      7  C   UNL     1      46.702   6.090  13.054  0.00  0.00    +0.000 A 
BRANCH   6   8
ATOM      8  C   UNL     1      48.467   6.546  14.827  0.00  0.00    +0.000 C 
ATOM      9  N   UNL     1      48.049   5.796  15.892  0.00  0.00    +0.000 N 
ATOM     10  O   UNL     1      49.650   6.852  14.731  0.00  0.00    +0.000 OA
ATOM     11  H   UNL     1      47.103   5.493  16.060  0.00  0.00    +0.000 HD
ATOM     12  H   UNL     1      48.755   5.538  16.567  0.00  0.00    +0.000 HD
ENDBRANCH   6   8
ENDBRANCH   1   2
BRANCH   1  14
ATOM     13  C   UNL     1      42.943   5.021  12.918  0.00  0.00    +0.000 C 
ATOM     14  C   UNL     1      44.210   4.547  12.219  0.00  0.00    +0.000 C 
ENDBRANCH   1  14
BRANCH   1  15
ATOM     15  C   UNL     1      45.305   5.382  10.039  0.00  0.00    +0.000 C 
BRANCH  15  16
ATOM     16  C   UNL     1      44.458   4.385   9.239  0.00  0.00    +0.000 C 
BRANCH  16  17
ATOM     17  C   UNL     1      45.224   3.258   8.561  0.00  0.00    +0.000 A 
ATOM     18  C   UNL     1      45.292   1.943   9.046  0.00  0.00    +0.000 A 
ATOM     19  C   UNL     1      45.996   0.957   8.346  0.00  0.00    +0.000 A 
ATOM     20  C   UNL     1      46.627   1.261   7.142  0.00  0.00    +0.000 A 
ATOM     21  C   UNL     1      46.579   2.563   6.634  0.00  0.00    +0.000 A 
ATOM     22  C   UNL     1      45.889   3.550   7.359  0.00  0.00    +0.000 A 
BRANCH  21  23
ATOM     23  C   UNL     1      47.260   2.915   5.335  0.00  0.00    +0.000 C 
BRANCH  23  24
ATOM     24  N   UNL     1      48.429   2.073   5.101  0.00  0.00    +0.000 NA
ATOM     25  H   UNL     1      49.185   2.392   5.705  0.00  0.00    +0.000 HD
ATOM     26  H   UNL     1      48.746   2.198   4.144  0.00  0.00    +0.000 HD
ENDBRANCH  23  24
ENDBRANCH  21  23
ENDBRANCH  16  17
ENDBRANCH  15  16
ENDBRANCH   1  15
TORSDOF 8
ENDMDL
MODEL 3
REMARK VINA RESULT:    -7.033      2.332      3.511
REMARK INTER + INTRA:         -10.639
REMARK INTER:                  -9.965
REMARK INTRA:                  -0.674
REMARK UNBOUND:                -0.522
REMARK  Name = 
REMARK  9 active torsions:
REMARK  status: ('A' for Active; 'I' for Inactive)
REMARK    1  A    between atoms: C_1  and  C_2
REMARK    2  A    between atoms: C_2  and  N_3
REMARK    3  A    between atoms: N_3  and  C_4
REMARK    4  A    between atoms: N_3  and  C_14
REMARK    5  A    between atoms: C_4  and  C_5
REMARK    6  A    between atoms: C_5  and  C_6
REMARK    7  A    between atoms: C_10  and  C_11
REMARK    8  A    between atoms: C_11  and  N_12
REMARK    9  A    between atoms: C_18  and  C_19
REMARK                            x       y       z     vdW  Elec       q    Type
REMARK                         _______ _______ _______ _____ _____    ______ ____
ROOT
ATOM      1  N   UNL     1      45.256   4.540  12.616  0.00  0.00    +0.000 N 
ENDROOT
BRANCH   1   2
ATOM      2  C   UNL     1      45.724   5.846  12.402  0.00  0.00    +0.000 A 
ATOM      3  C   UNL     1      47.084   6.183  12.367  0.00  0.00    +0.000 A 
ATOM      4  C   UNL     1      47.510   7.489  12.102  0.00  0.00    +0.000 A 
ATOM      5  C   UNL     1      46.577   8.496  11.875  0.00  0.00    +0.000 A 
ATOM      6  C   UNL     1      45.213   8.208  11.922  0.00  0.00    +0.000 A 
ATOM      7  C   UNL     1      44.804   6.896  12.206  0.00  0.00    +0.000 A 
BRANCH   6   8
ATOM      8  C   UNL     1      44.253   9.316  11.648  0.00  0.00    +0.000 C 
ATOM      9  N   UNL     1      43.225   9.103  10.771  0.00  0.00    +0.000 N 
ATOM     10  O   UNL     1      44.375  10.412  12.182  0.00  0.00    +0.000 OA
ATOM     11  H   UNL     1      43.038   8.242  10.284  0.00  0.00    +0.000 HD
ATOM     12  H   UNL     1      42.611   9.887  10.597  0.00  0.00    +0.000 HD
ENDBRANCH   6   8
ENDBRANCH   1   2
BRANCH   1  14
ATOM     13  C   UNL     1      46.958   3.722  14.297  0.00  0.00    +0.000 C 
ATOM     14  C   UNL     1      46.198   3.481  13.000  0.00  0.00    +0.000 C 
ENDBRANCH   1  14
BRANCH   1  15
ATOM     15  C   UNL     1      43.965   4.234  11.953  0.00  0.00    +0.000 C 
BRANCH  15  16
ATOM     16  C   UNL     1      43.965   3.067  10.958  0.00  0.00    +0.000 C 
BRANCH  16  17
ATOM     17  C   UNL     1      44.828   3.253   9.718  0.00  0.00    +0.000 A 
ATOM     18  C   UNL     1      45.116   4.497   9.134  0.00  0.00    +0.000 A 
ATOM     19  C   UNL     1      45.945   4.585   8.009  0.00  0.00    +0.000 A 
ATOM     20  C   UNL     1      46.512   3.437   7.460  0.00  0.00    +0.000 A 
ATOM     21  C   UNL     1      46.242   2.184   8.018  0.00  0.00    +0.000 A 
ATOM     22  C   UNL     1      45.391   2.107   9.134  0.00  0.00    +0.000 A 
BRANCH  21  23
ATOM     23  C   UNL     1      46.843   0.929   7.437  0.00  0.00    +0.000 C 
BRANCH  23  24
ATOM     24  N   UNL     1      47.918   1.238   6.499  0.00  0.00    +0.000 NA
ATOM     25  H   UNL     1      48.677   0.573   6.646  0.00  0.00    +0.000 HD
ATOM     26  H   UNL     1      48.291   2.159   6.707  0.00  0.00    +0.000 HD
ENDBRANCH  23  24
ENDBRANCH  21  23
ENDBRANCH  16  17
ENDBRANCH  15  16
ENDBRANCH   1  15
TORSDOF 8
ENDMDL
MODEL 4
REMARK VINA RESULT:    -6.988      2.677      6.444
REMARK INTER + INTRA:         -10.574
REMARK INTER:                  -9.714
REMARK INTRA:                  -0.859
REMARK UNBOUND:                -0.522
REMARK  Name = 
REMARK  9 active torsions:
REMARK  status: ('A' for Active; 'I' for Inactive)
REMARK    1  A    between atoms: C_1  and  C_2
REMARK    2  A    between atoms: C_2  and  N_3
REMARK    3  A    between atoms: N_3  and  C_4
REMARK    4  A    between atoms: N_3  and  C_14
REMARK    5  A    between atoms: C_4  and  C_5
REMARK    6  A    between atoms: C_5  and  C_6
REMARK    7  A    between atoms: C_10  and  C_11
REMARK    8  A    between atoms: C_11  and  N_12
REMARK    9  A    between atoms: C_18  and  C_19
REMARK                            x       y       z     vdW  Elec       q    Type
REMARK                         _______ _______ _______ _____ _____    ______ ____
ROOT
ATOM      1  N   UNL     1      44.461   3.556  11.438  0.00  0.00    +0.000 N 
ENDROOT
BRANCH   1   2
ATOM      2  C   UNL     1      45.079   3.648  10.180  0.00  0.00    +0.000 A 
ATOM      3  C   UNL     1      45.335   4.864   9.533  0.00  0.00    +0.000 A 
ATOM      4  C   UNL     1      45.998   4.916   8.301  0.00  0.00    +0.000 A 
ATOM      5  C   UNL     1      46.415   3.741   7.683  0.00  0.00    +0.000 A 
ATOM      6  C   UNL     1      46.160   2.507   8.284  0.00  0.00    +0.000 A 
ATOM      7  C   UNL     1      45.479   2.475   9.509  0.00  0.00    +0.000 A 
BRANCH   6   8
ATOM      8  C   UNL     1      46.647   1.278   7.593  0.00  0.00    +0.000 C 
ATOM      9  N   UNL     1      47.439   1.407   6.485  0.00  0.00    +0.000 N 
ATOM     10  O   UNL     1      46.343   0.160   7.992  0.00  0.00    +0.000 OA
ATOM     11  H   UNL     1      47.744   2.277   6.081  0.00  0.00    +0.000 HD
ATOM     12  H   UNL     1      47.728   0.550   6.035  0.00  0.00    +0.000 HD
ENDBRANCH   6   8
ENDBRANCH   1   2
BRANCH   1  14
ATOM     13  C   UNL     1      42.724   5.392  11.385  0.00  0.00    +0.000 C 
ATOM     14  C   UNL     1      43.045   3.917  11.582  0.00  0.00    +0.000 C 
ENDBRANCH   1  14
BRANCH   1  15
ATOM     15  C   UNL     1      45.398   3.593  12.586  0.00  0.00    +0.000 C 
BRANCH  15  16
ATOM     16  C   UNL     1      45.360   4.853  13.461  0.00  0.00    +0.000 C 
BRANCH  16  17
ATOM     17  C   UNL     1      46.314   5.968  13.057  0.00  0.00    +0.000 A 
ATOM     18  C   UNL     1      47.697   5.803  12.884  0.00  0.00    +0.000 A 
ATOM     19  C   UNL     1      48.502   6.876  12.482  0.00  0.00    +0.000 A 
ATOM     20  C   UNL     1      47.937   8.124  12.227  0.00  0.00    +0.000 A 
ATOM     21  C   UNL     1      46.562   8.320  12.392  0.00  0.00    +0.000 A 
ATOM     22  C   UNL     1      45.770   7.240  12.819  0.00  0.00    +0.000 A 
BRANCH  21  23
ATOM     23  C   UNL     1      45.932   9.663  12.127  0.00  0.00    +0.000 C 
BRANCH  23  24
ATOM     24  N   UNL     1      44.577   9.731  12.664  0.00  0.00    +0.000 NA
ATOM     25  H   UNL     1      44.114   8.840  12.489  0.00  0.00    +0.000 HD
ATOM     26  H   UNL     1      44.050  10.438  12.159  0.00  0.00    +0.000 HD
ENDBRANCH  23  24
ENDBRANCH  21  23
ENDBRANCH  16  17
ENDBRANCH  15  16
ENDBRANCH   1  15
TORSDOF 8
ENDMDL
MODEL 5
REMARK VINA RESULT:    -6.889      2.682      3.727
REMARK INTER + INTRA:         -10.432
REMARK INTER:                  -9.459
REMARK INTRA:                  -0.973
REMARK UNBOUND:                -0.522
REMARK  Name = 
REMARK  9 active torsions:
REMARK  status: ('A' for Active; 'I' for Inactive)
REMARK    1  A    between atoms: C_1  and  C_2
REMARK    2  A    between atoms: C_2  and  N_3
REMARK    3  A    between atoms: N_3  and  C_4
REMARK    4  A    between atoms: N_3  and  C_14
REMARK    5  A    between atoms: C_4  and  C_5
REMARK    6  A    between atoms: C_5  and  C_6
REMARK    7  A    between atoms: C_10  and  C_11
REMARK    8  A    between atoms: C_11  and  N_12
REMARK    9  A    between atoms: C_18  and  C_19
REMARK                            x       y       z     vdW  Elec       q    Type
REMARK                         _______ _______ _______ _____ _____    ______ ____
ROOT
ATOM      1  N   UNL     1      44.491   4.791  11.359  0.00  0.00    +0.000 N 
ENDROOT
BRANCH   1   2
ATOM      2  C   UNL     1      45.198   5.972  11.635  0.00  0.00    +0.000 A 
ATOM      3  C   UNL     1      46.549   5.994  12.005  0.00  0.00    +0.000 A 
ATOM      4  C   UNL     1      47.230   7.197  12.225  0.00  0.00    +0.000 A 
ATOM      5  C   UNL     1      46.566   8.412  12.086  0.00  0.00    +0.000 A 
ATOM      6  C   UNL     1      45.214   8.433  11.740  0.00  0.00    +0.000 A 
ATOM      7  C   UNL     1      44.544   7.217  11.541  0.00  0.00    +0.000 A 
BRANCH   6   8
ATOM      8  C   UNL     1      44.553   9.760  11.580  0.00  0.00    +0.000 C 
ATOM      9  N   UNL     1      45.102  10.855  12.190  0.00  0.00    +0.000 N 
ATOM     10  O   UNL     1      43.525   9.886  10.925  0.00  0.00    +0.000 OA
ATOM     11  H   UNL     1      45.941  10.857  12.746  0.00  0.00    +0.000 HD
ATOM     12  H   UNL     1      44.609  11.730  12.075  0.00  0.00    +0.000 HD
ENDBRANCH   6   8
ENDBRANCH   1   2
BRANCH   1  14
ATOM     13  C   UNL     1      43.559   2.634  12.292  0.00  0.00    +0.000 C 
ATOM     14  C   UNL     1      44.738   3.588  12.163  0.00  0.00    +0.000 C 
ENDBRANCH   1  14
BRANCH   1  15
ATOM     15  C   UNL     1      43.942   4.712   9.984  0.00  0.00    +0.000 C 
BRANCH  15  16
ATOM     16  C   UNL     1      44.961   4.716   8.837  0.00  0.00    +0.000 C 
BRANCH  16  17
ATOM     17  C   UNL     1      45.547   3.361   8.466  0.00  0.00    +0.000 A 
ATOM     18  C   UNL     1      45.001   2.129   8.858  0.00  0.00    +0.000 A 
ATOM     19  C   UNL     1      45.585   0.924   8.450  0.00  0.00    +0.000 A 
ATOM     20  C   UNL     1      46.711   0.929   7.630  0.00  0.00    +0.000 A 
ATOM     21  C   UNL     1      47.280   2.141   7.224  0.00  0.00    +0.000 A 
ATOM     22  C   UNL     1      46.697   3.343   7.661  0.00  0.00    +0.000 A 
BRANCH  21  23
ATOM     23  C   UNL     1      48.501   2.169   6.341  0.00  0.00    +0.000 C 
BRANCH  23  24
ATOM     24  N   UNL     1      48.167   2.581   4.982  0.00  0.00    +0.000 NA
ATOM     25  H   UNL     1      48.544   1.891   4.332  0.00  0.00    +0.000 HD
ATOM     26  H   UNL     1      48.628   3.461   4.774  0.00  0.00    +0.000 HD
ENDBRANCH  23  24
ENDBRANCH  21  23
ENDBRANCH  16  17
ENDBRANCH  15  16
ENDBRANCH   1  15
TORSDOF 8
ENDMDL
MODEL 6
REMARK VINA RESULT:    -6.583      2.901      6.271
REMARK INTER + INTRA:          -9.992
REMARK INTER:                  -9.314
REMARK INTRA:                  -0.678
REMARK UNBOUND:                -0.522
REMARK  Name = 
REMARK  9 active torsions:
REMARK  status: ('A' for Active; 'I' for Inactive)
REMARK    1  A    between atoms: C_1  and  C_2
REMARK    2  A    between atoms: C_2  and  N_3
REMARK    3  A    between atoms: N_3  and  C_4
REMARK    4  A    between atoms: N_3  and  C_14
REMARK    5  A    between atoms: C_4  and  C_5
REMARK    6  A    between atoms: C_5  and  C_6
REMARK    7  A    between atoms: C_10  and  C_11
REMARK    8  A    between atoms: C_11  and  N_12
REMARK    9  A    between atoms: C_18  and  C_19
REMARK                            x       y       z     vdW  Elec       q    Type
REMARK                         _______ _______ _______ _____ _____    ______ ____
ROOT
ATOM      1  N   UNL     1      44.729   3.156  11.258  0.00  0.00    +0.000 N 
ENDROOT
BRANCH   1   2
ATOM      2  C   UNL     1      45.256   3.313   9.966  0.00  0.00    +0.000 A 
ATOM      3  C   UNL     1      45.352   4.550   9.316  0.00  0.00    +0.000 A 
ATOM      4  C   UNL     1      45.929   4.670   8.047  0.00  0.00    +0.000 A 
ATOM      5  C   UNL     1      46.419   3.544   7.392  0.00  0.00    +0.000 A 
ATOM      6  C   UNL     1      46.324   2.289   7.996  0.00  0.00    +0.000 A 
ATOM      7  C   UNL     1      45.726   2.187   9.261  0.00  0.00    +0.000 A 
BRANCH   6   8
ATOM      8  C   UNL     1      46.885   1.117   7.265  0.00  0.00    +0.000 C 
ATOM      9  N   UNL     1      46.598  -0.144   7.711  0.00  0.00    +0.000 N 
ATOM     10  O   UNL     1      47.604   1.262   6.284  0.00  0.00    +0.000 OA
ATOM     11  H   UNL     1      46.019  -0.369   8.503  0.00  0.00    +0.000 HD
ATOM     12  H   UNL     1      47.017  -0.909   7.201  0.00  0.00    +0.000 HD
ENDBRANCH   6   8
ENDBRANCH   1   2
BRANCH   1  14
ATOM     13  C   UNL     1      42.664   4.607  11.407  0.00  0.00    +0.000 C 
ATOM     14  C   UNL     1      43.277   3.215  11.464  0.00  0.00    +0.000 C 
ENDBRANCH   1  14
BRANCH   1  15
ATOM     15  C   UNL     1      45.686   3.451  12.351  0.00  0.00    +0.000 C 
BRANCH  15  16
ATOM     16  C   UNL     1      45.310   4.595  13.302  0.00  0.00    +0.000 C 
BRANCH  16  17
ATOM     17  C   UNL     1      45.773   5.984  12.882  0.00  0.00    +0.000 A 
ATOM     18  C   UNL     1      44.939   6.957  12.310  0.00  0.00    +0.000 A 
ATOM     19  C   UNL     1      45.437   8.222  11.979  0.00  0.00    +0.000 A 
ATOM     20  C   UNL     1      46.770   8.543  12.230  0.00  0.00    +0.000 A 
ATOM     21  C   UNL     1      47.626   7.594  12.797  0.00  0.00    +0.000 A 
ATOM     22  C   UNL     1      47.118   6.319  13.103  0.00  0.00    +0.000 A 
BRANCH  21  23
ATOM     23  C   UNL     1      49.072   7.919  13.071  0.00  0.00    +0.000 C 
BRANCH  23  24
ATOM     24  N   UNL     1      49.954   6.847  12.619  0.00  0.00    +0.000 NA
ATOM     25  H   UNL     1      50.656   7.247  11.997  0.00  0.00    +0.000 HD
ATOM     26  H   UNL     1      49.420   6.182  12.069  0.00  0.00    +0.000 HD
ENDBRANCH  23  24
ENDBRANCH  21  23
ENDBRANCH  16  17
ENDBRANCH  15  16
ENDBRANCH   1  15
TORSDOF 8
ENDMDL
MODEL 7
REMARK VINA RESULT:    -6.497      2.696      3.874
REMARK INTER + INTRA:          -9.868
REMARK INTER:                  -8.866
REMARK INTRA:                  -1.002
REMARK UNBOUND:                -0.522
REMARK  Name = 
REMARK  9 active torsions:
REMARK  status: ('A' for Active; 'I' for Inactive)
REMARK    1  A    between atoms: C_1  and  C_2
REMARK    2  A    between atoms: C_2  and  N_3
REMARK    3  A    between atoms: N_3  and  C_4
REMARK    4  A    between atoms: N_3  and  C_14
REMARK    5  A    between atoms: C_4  and  C_5
REMARK    6  A    between atoms: C_5  and  C_6
REMARK    7  A    between atoms: C_10  and  C_11
REMARK    8  A    between atoms: C_11  and  N_12
REMARK    9  A    between atoms: C_18  and  C_19
REMARK                            x       y       z     vdW  Elec       q    Type
REMARK                         _______ _______ _______ _____ _____    ______ ____
ROOT
ATOM      1  N   UNL     1      46.185   6.305  13.171  0.00  0.00    +0.000 N 
ENDROOT
BRANCH   1   2
ATOM      2  C   UNL     1      46.834   7.469  12.730  0.00  0.00    +0.000 A 
ATOM      3  C   UNL     1      46.239   8.737  12.744  0.00  0.00    +0.000 A 
ATOM      4  C   UNL     1      46.938   9.881  12.341  0.00  0.00    +0.000 A 
ATOM      5  C   UNL     1      48.256   9.777  11.905  0.00  0.00    +0.000 A 
ATOM      6  C   UNL     1      48.879   8.529  11.856  0.00  0.00    +0.000 A 
ATOM      7  C   UNL     1      48.156   7.392  12.247  0.00  0.00    +0.000 A 
BRANCH   6   8
ATOM      8  C   UNL     1      50.299   8.473  11.404  0.00  0.00    +0.000 C 
ATOM      9  N   UNL     1      50.932   7.262  11.347  0.00  0.00    +0.000 N 
ATOM     10  O   UNL     1      50.911   9.489  11.096  0.00  0.00    +0.000 OA
ATOM     11  H   UNL     1      50.518   6.373  11.577  0.00  0.00    +0.000 HD
ATOM     12  H   UNL     1      51.900   7.272  11.058  0.00  0.00    +0.000 HD
ENDBRANCH   6   8
ENDBRANCH   1   2
BRANCH   1  14
ATOM     13  C   UNL     1      46.794   3.869  13.460  0.00  0.00    +0.000 C 
ATOM     14  C   UNL     1      46.928   5.305  13.947  0.00  0.00    +0.000 C 
ENDBRANCH   1  14
BRANCH   1  15
ATOM     15  C   UNL     1      44.970   5.950  12.398  0.00  0.00    +0.000 C 
BRANCH  15  16
ATOM     16  C   UNL     1      45.079   6.042  10.870  0.00  0.00    +0.000 C 
BRANCH  16  17
ATOM     17  C   UNL     1      45.046   4.716  10.123  0.00  0.00    +0.000 A 
ATOM     18  C   UNL     1      44.409   3.557  10.594  0.00  0.00    +0.000 A 
ATOM     19  C   UNL     1      44.400   2.385   9.830  0.00  0.00    +0.000 A 
ATOM     20  C   UNL     1      45.010   2.354   8.578  0.00  0.00    +0.000 A 
ATOM     21  C   UNL     1      45.654   3.492   8.082  0.00  0.00    +0.000 A 
ATOM     22  C   UNL     1      45.675   4.656   8.869  0.00  0.00    +0.000 A 
BRANCH  21  23
ATOM     23  C   UNL     1      46.323   3.479   6.731  0.00  0.00    +0.000 C 
BRANCH  23  24
ATOM     24  N   UNL     1      47.753   3.207   6.848  0.00  0.00    +0.000 NA
ATOM     25  H   UNL     1      48.160   3.209   5.913  0.00  0.00    +0.000 HD
ATOM     26  H   UNL     1      47.888   2.274   7.224  0.00  0.00    +0.000 HD
ENDBRANCH  23  24
ENDBRANCH  21  23
ENDBRANCH  16  17
ENDBRANCH  15  16
ENDBRANCH   1  15
TORSDOF 8
ENDMDL
MODEL 8
REMARK VINA RESULT:    -6.416      2.909      4.088
REMARK INTER + INTRA:          -9.751
REMARK INTER:                  -8.792
REMARK INTRA:                  -0.960
REMARK UNBOUND:                -0.522
REMARK  Name = 
REMARK  9 active torsions:
REMARK  status: ('A' for Active; 'I' for Inactive)
REMARK    1  A    between atoms: C_1  and  C_2
REMARK    2  A    between atoms: C_2  and  N_3
REMARK    3  A    between atoms: N_3  and  C_4
REMARK    4  A    between atoms: N_3  and  C_14
REMARK    5  A    between atoms: C_4  and  C_5
REMARK    6  A    between atoms: C_5  and  C_6
REMARK    7  A    between atoms: C_10  and  C_11
REMARK    8  A    between atoms: C_11  and  N_12
REMARK    9  A    between atoms: C_18  and  C_19
REMARK                            x       y       z     vdW  Elec       q    Type
REMARK                         _______ _______ _______ _____ _____    ______ ____
ROOT
ATOM      1  N   UNL     1      45.705   5.925  13.266  0.00  0.00    +0.000 N 
ENDROOT
BRANCH   1   2
ATOM      2  C   UNL     1      46.560   6.944  12.816  0.00  0.00    +0.000 A 
ATOM      3  C   UNL     1      47.895   6.728  12.453  0.00  0.00    +0.000 A 
ATOM      4  C   UNL     1      48.700   7.763  11.962  0.00  0.00    +0.000 A 
ATOM      5  C   UNL     1      48.183   9.048  11.832  0.00  0.00    +0.000 A 
ATOM      6  C   UNL     1      46.864   9.311  12.203  0.00  0.00    +0.000 A 
ATOM      7  C   UNL     1      46.078   8.265  12.709  0.00  0.00    +0.000 A 
BRANCH   6   8
ATOM      8  C   UNL     1      46.349  10.699  12.023  0.00  0.00    +0.000 C 
ATOM      9  N   UNL     1      47.070  11.747  12.526  0.00  0.00    +0.000 N 
ATOM     10  O   UNL     1      45.290  10.916  11.446  0.00  0.00    +0.000 OA
ATOM     11  H   UNL     1      47.949  11.674  13.012  0.00  0.00    +0.000 HD
ATOM     12  H   UNL     1      46.674  12.668  12.401  0.00  0.00    +0.000 HD
ENDBRANCH   6   8
ENDBRANCH   1   2
BRANCH   1  14
ATOM     13  C   UNL     1      46.597   3.559  13.272  0.00  0.00    +0.000 C 
ATOM     14  C   UNL     1      46.249   4.815  14.058  0.00  0.00    +0.000 C 
ENDBRANCH   1  14
BRANCH   1  15
ATOM     15  C   UNL     1      44.450   5.788  12.489  0.00  0.00    +0.000 C 
BRANCH  15  16
ATOM     16  C   UNL     1      44.584   5.812  10.960  0.00  0.00    +0.000 C 
BRANCH  16  17
ATOM     17  C   UNL     1      44.674   4.453  10.282  0.00  0.00    +0.000 A 
ATOM     18  C   UNL     1      44.039   3.291  10.749  0.00  0.00    +0.000 A 
ATOM     19  C   UNL     1      44.149   2.084  10.049  0.00  0.00    +0.000 A 
ATOM     20  C   UNL     1      44.878   2.020   8.864  0.00  0.00    +0.000 A 
ATOM     21  C   UNL     1      45.523   3.160   8.374  0.00  0.00    +0.000 A 
ATOM     22  C   UNL     1      45.424   4.360   9.099  0.00  0.00    +0.000 A 
BRANCH  21  23
ATOM     23  C   UNL     1      46.321   3.112   7.096  0.00  0.00    +0.000 C 
BRANCH  23  24
ATOM     24  N   UNL     1      46.986   4.384   6.834  0.00  0.00    +0.000 NA
ATOM     25  H   UNL     1      47.154   4.851   7.725  0.00  0.00    +0.000 HD
ATOM     26  H   UNL     1      46.365   4.985   6.301  0.00  0.00    +0.000 HD
ENDBRANCH  23  24
ENDBRANCH  21  23
ENDBRANCH  16  17
ENDBRANCH  15  16
ENDBRANCH   1  15
TORSDOF 8
ENDMDL
MODEL 9
REMARK VINA RESULT:    -6.315      3.940      7.695
REMARK INTER + INTRA:          -9.606
REMARK INTER:                  -8.246
REMARK INTRA:                  -1.360
REMARK UNBOUND:                -0.522
REMARK  Name = 
REMARK  9 active torsions:
REMARK  status: ('A' for Active; 'I' for Inactive)
REMARK    1  A    between atoms: C_1  and  C_2
REMARK    2  A    between atoms: C_2  and  N_3
REMARK    3  A    between atoms: N_3  and  C_4
REMARK    4  A    between atoms: N_3  and  C_14
REMARK    5  A    between atoms: C_4  and  C_5
REMARK    6  A    between atoms: C_5  and  C_6
REMARK    7  A    between atoms: C_10  and  C_11
REMARK    8  A    between atoms: C_11  and  N_12
REMARK    9  A    between atoms: C_18  and  C_19
REMARK                            x       y       z     vdW  Elec       q    Type
REMARK                         _______ _______ _______ _____ _____    ______ ____
ROOT
ATOM      1  N   UNL     1      48.592   8.132  13.776  0.00  0.00    +0.000 N 
ENDROOT
BRANCH   1   2
ATOM      2  C   UNL     1      47.471   7.345  13.468  0.00  0.00    +0.000 A 
ATOM      3  C   UNL     1      46.279   7.869  12.951  0.00  0.00    +0.000 A 
ATOM      4  C   UNL     1      45.201   7.043  12.611  0.00  0.00    +0.000 A 
ATOM      5  C   UNL     1      45.291   5.666  12.791  0.00  0.00    +0.000 A 
ATOM      6  C   UNL     1      46.453   5.106  13.324  0.00  0.00    +0.000 A 
ATOM      7  C   UNL     1      47.516   5.952  13.675  0.00  0.00    +0.000 A 
BRANCH   6   8
ATOM      8  C   UNL     1      46.510   3.624  13.476  0.00  0.00    +0.000 C 
ATOM      9  N   UNL     1      45.644   2.848  12.756  0.00  0.00    +0.000 N 
ATOM     10  O   UNL     1      47.308   3.092  14.238  0.00  0.00    +0.000 OA
ATOM     11  H   UNL     1      44.955   3.187  12.105  0.00  0.00    +0.000 HD
ATOM     12  H   UNL     1      45.701   1.850  12.906  0.00  0.00    +0.000 HD
ENDBRANCH   6   8
ENDBRANCH   1   2
BRANCH   1  14
ATOM     13  C   UNL     1      49.481   8.861  11.524  0.00  0.00    +0.000 C 
ATOM     14  C   UNL     1      48.960   9.252  12.900  0.00  0.00    +0.000 C 
ENDBRANCH   1  14
BRANCH   1  15
ATOM     15  C   UNL     1      49.586   7.469  14.655  0.00  0.00    +0.000 C 
BRANCH  15  16
ATOM     16  C   UNL     1      49.696   8.001  16.089  0.00  0.00    +0.000 C 
BRANCH  16  17
ATOM     17  C   UNL     1      48.875   7.261  17.136  0.00  0.00    +0.000 A 
ATOM     18  C   UNL     1      48.182   7.885  18.185  0.00  0.00    +0.000 A 
ATOM     19  C   UNL     1      47.423   7.133  19.089  0.00  0.00    +0.000 A 
ATOM     20  C   UNL     1      47.329   5.749  18.951  0.00  0.00    +0.000 A 
ATOM     21  C   UNL     1      48.009   5.099  17.917  0.00  0.00    +0.000 A 
ATOM     22  C   UNL     1      48.786   5.863  17.029  0.00  0.00    +0.000 A 
BRANCH  21  23
ATOM     23  C   UNL     1      47.925   3.603  17.753  0.00  0.00    +0.000 C 
BRANCH  23  24
ATOM     24  N   UNL     1      46.570   3.180  17.412  0.00  0.00    +0.000 NA
ATOM     25  H   UNL     1      46.176   3.853  16.755  0.00  0.00    +0.000 HD
ATOM     26  H   UNL     1      45.989   3.210  18.244  0.00  0.00    +0.000 HD
ENDBRANCH  23  24
ENDBRANCH  21  23
ENDBRANCH  16  17
ENDBRANCH  15  16
ENDBRANCH   1  15
TORSDOF 8
ENDMDL
