MODEL 1
REMARK VINA RESULT:    -7.100      0.000      0.000
REMARK INTER + INTRA:          -9.857
REMARK INTER:                  -9.176
REMARK INTRA:                  -0.681
REMARK UNBOUND:                -0.681
REMARK  Name = 
REMARK  7 active torsions:
REMARK  status: ('A' for Active; 'I' for Inactive)
REMARK    1  A    between atoms: C_1  and  O_2
REMARK    2  A    between atoms: O_2  and  C_3
REMARK    3  A    between atoms: C_6  and  C_7
REMARK    4  A    between atoms: C_7  and  C_8
REMARK    5  A    between atoms: C_8  and  N_9
REMARK    6  A    between atoms: C_13  and  C_14
REMARK    7  A    between atoms: C_17  and  C_18
REMARK                            x       y       z     vdW  Elec       q    Type
REMARK                         _______ _______ _______ _____ _____    ______ ____
ROOT
ATOM      1  N   UNL     1      44.704   3.859  13.305  0.00  0.00    +0.000 N 
ATOM      2  C   UNL     1      45.707   4.830  13.453  0.00  0.00    +0.000 A 
ATOM      3  C   UNL     1      46.838   4.539  14.214  0.00  0.00    +0.000 A 
ATOM      4  N   UNL     1      47.881   5.387  14.386  0.00  0.00    +0.000 NA
ATOM      5  C   UNL     1      47.768   6.596  13.753  0.00  0.00    +0.000 A 
ATOM      6  C   UNL     1      46.643   6.924  12.996  0.00  0.00    +0.000 A 
ATOM      7  C   UNL     1      46.397   8.235  12.317  0.00  0.00    +0.000 C 
ATOM      8  N   UNL     1      45.614   6.027  12.841  0.00  0.00    +0.000 NA
ATOM      9  H   UNL     1      44.399   3.552  14.226  0.00  0.00    +0.000 HD
ENDROOT
BRANCH   5  10
ATOM     10  C   UNL     1      48.969   7.486  13.935  0.00  0.00    +0.000 C 
ATOM     11  N   UNL     1      49.986   7.273  13.037  0.00  0.00    +0.000 N 
ATOM     12  O   UNL     1      49.080   8.357  14.786  0.00  0.00    +0.000 OA
ATOM     13  H   UNL     1      49.861   6.587  12.301  0.00  0.00    +0.000 HD
ATOM     14  H   UNL     1      50.798   7.871  13.053  0.00  0.00    +0.000 HD
ENDBRANCH   5  10
BRANCH   1  15
ATOM     15  C   UNL     1      43.575   4.243  12.449  0.00  0.00    +0.000 C 
BRANCH  15  16
ATOM     16  C   UNL     1      43.337   3.145  11.402  0.00  0.00    +0.000 C 
BRANCH  16  20
ATOM     17  C   UNL     1      45.983   3.439   7.988  0.00  0.00    +0.000 A 
ATOM     18  C   UNL     1      45.553   4.589   8.647  0.00  0.00    +0.000 A 
ATOM     19  C   UNL     1      44.686   4.494   9.743  0.00  0.00    +0.000 A 
ATOM     20  C   UNL     1      44.247   3.245  10.202  0.00  0.00    +0.000 A 
ATOM     21  C   UNL     1      44.678   2.094   9.534  0.00  0.00    +0.000 A 
ATOM     22  C   UNL     1      45.539   2.193   8.439  0.00  0.00    +0.000 A 
BRANCH  17  24
ATOM     23  C   UNL     1      47.779   2.342   6.879  0.00  0.00    +0.000 C 
ATOM     24  O   UNL     1      46.821   3.393   6.908  0.00  0.00    +0.000 OA
ENDBRANCH  17  24
ENDBRANCH  16  20
ENDBRANCH  15  16
ENDBRANCH   1  15
TORSDOF 5
ENDMDL
MODEL 2
REMARK VINA RESULT:    -6.956      2.723      6.490
REMARK INTER + INTRA:          -9.671
REMARK INTER:                  -9.422
REMARK INTRA:                  -0.249
REMARK UNBOUND:                -0.681
REMARK  Name = 
REMARK  7 active torsions:
REMARK  status: ('A' for Active; 'I' for Inactive)
REMARK    1  A    between atoms: C_1  and  O_2
REMARK    2  A    between atoms: O_2  and  C_3
REMARK    3  A    between atoms: C_6  and  C_7
REMARK    4  A    between atoms: C_7  and  C_8
REMARK    5  A    between atoms: C_8  and  N_9
REMARK    6  A    between atoms: C_13  and  C_14
REMARK    7  A    between atoms: C_17  and  C_18
REMARK                            x       y       z     vdW  Elec       q    Type
REMARK                         _______ _______ _______ _____ _____    ______ ____
ROOT
ATOM      1  N   UNL     1      44.160   5.066  10.067  0.00  0.00    +0.000 N 
ATOM      2  C   UNL     1      44.984   4.339   9.194  0.00  0.00    +0.000 A 
ATOM      3  C   UNL     1      45.870   5.018   8.359  0.00  0.00    +0.000 A 
ATOM      4  N   UNL     1      46.736   4.412   7.511  0.00  0.00    +0.000 NA
ATOM      5  C   UNL     1      46.700   3.044   7.510  0.00  0.00    +0.000 A 
ATOM      6  C   UNL     1      45.815   2.333   8.323  0.00  0.00    +0.000 A 
ATOM      7  C   UNL     1      45.655   0.846   8.353  0.00  0.00    +0.000 C 
ATOM      8  N   UNL     1      44.962   2.992   9.175  0.00  0.00    +0.000 NA
ATOM      9  H   UNL     1      43.633   5.753   9.532  0.00  0.00    +0.000 HD
ENDROOT
BRANCH   5  10
ATOM     10  C   UNL     1      47.710   2.415   6.588  0.00  0.00    +0.000 C 
ATOM     11  N   UNL     1      47.797   2.995   5.346  0.00  0.00    +0.000 N 
ATOM     12  O   UNL     1      48.435   1.473   6.872  0.00  0.00    +0.000 OA
ATOM     13  H   UNL     1      47.230   3.811   5.140  0.00  0.00    +0.000 HD
ATOM     14  H   UNL     1      48.494   2.672   4.692  0.00  0.00    +0.000 HD
ENDBRANCH   5  10
BRANCH   1  15
ATOM     15  C   UNL     1      43.295   4.261  10.937  0.00  0.00    +0.000 C 
BRANCH  15  16
ATOM     16  C   UNL     1      43.379   4.800  12.373  0.00  0.00    +0.000 C 
BRANCH  16  20
ATOM     17  C   UNL     1      47.373   5.905  13.626  0.00  0.00    +0.000 A 
ATOM     18  C   UNL     1      46.481   6.878  13.179  0.00  0.00    +0.000 A 
ATOM     19  C   UNL     1      45.193   6.517  12.761  0.00  0.00    +0.000 A 
ATOM     20  C   UNL     1      44.777   5.180  12.796  0.00  0.00    +0.000 A 
ATOM     21  C   UNL     1      45.678   4.207  13.241  0.00  0.00    +0.000 A 
ATOM     22  C   UNL     1      46.963   4.570  13.653  0.00  0.00    +0.000 A 
BRANCH  17  24
ATOM     23  C   UNL     1      48.820   6.954  15.196  0.00  0.00    +0.000 C 
ATOM     24  O   UNL     1      48.653   6.121  14.056  0.00  0.00    +0.000 OA
ENDBRANCH  17  24
ENDBRANCH  16  20
ENDBRANCH  15  16
ENDBRANCH   1  15
TORSDOF 5
ENDMDL
MODEL 3
REMARK VINA RESULT:    -6.525      1.909      2.660
REMARK INTER + INTRA:          -9.113
REMARK INTER:                  -8.760
REMARK INTRA:                  -0.353
REMARK UNBOUND:                -0.681
REMARK  Name = 
REMARK  7 active torsions:
REMARK  status: ('A' for Active; 'I' for Inactive)
REMARK    1  A    between atoms: C_1  and  O_2
REMARK    2  A    between atoms: O_2  and  C_3
REMARK    3  A    between atoms: C_6  and  C_7
REMARK    4  A    between atoms: C_7  and  C_8
REMARK    5  A    between atoms: C_8  and  N_9
REMARK    6  A    between atoms: C_13  and  C_14
REMARK    7  A    between atoms: C_17  and  C_18
REMARK                            x       y       z     vdW  Elec       q    Type
REMARK                         _______ _______ _______ _____ _____    ______ ____
ROOT
ATOM      1  N   UNL     1      45.781   5.066  12.708  0.00  0.00    +0.000 N 
ATOM      2  C   UNL     1      46.662   5.109  13.800  0.00  0.00    +0.000 A 
ATOM      3  C   UNL     1      47.670   6.070  13.833  0.00  0.00    +0.000 A 
ATOM      4  N   UNL     1      48.545   6.224  14.856  0.00  0.00    +0.000 NA
ATOM      5  C   UNL     1      48.388   5.354  15.902  0.00  0.00    +0.000 A 
ATOM      6  C   UNL     1      47.398   4.370  15.894  0.00  0.00    +0.000 A 
ATOM      7  C   UNL     1      47.182   3.337  16.954  0.00  0.00    +0.000 C 
ATOM      8  N   UNL     1      46.526   4.260  14.837  0.00  0.00    +0.000 NA
ATOM      9  H   UNL     1      46.321   4.994  11.848  0.00  0.00    +0.000 HD
ENDROOT
BRANCH   5  10
ATOM     10  C   UNL     1      49.351   5.592  17.034  0.00  0.00    +0.000 C 
ATOM     11  N   UNL     1      48.879   6.412  18.030  0.00  0.00    +0.000 N 
ATOM     12  O   UNL     1      50.470   5.109  17.123  0.00  0.00    +0.000 OA
ATOM     13  H   UNL     1      47.929   6.763  17.974  0.00  0.00    +0.000 HD
ATOM     14  H   UNL     1      49.439   6.570  18.853  0.00  0.00    +0.000 HD
ENDBRANCH   5  10
BRANCH   1  15
ATOM     15  C   UNL     1      44.726   4.049  12.786  0.00  0.00    +0.000 C 
BRANCH  15  16
ATOM     16  C   UNL     1      43.840   4.142  11.535  0.00  0.00    +0.000 C 
BRANCH  16  20
ATOM     17  C   UNL     1      45.897   2.979   7.907  0.00  0.00    +0.000 A 
ATOM     18  C   UNL     1      45.754   4.326   8.235  0.00  0.00    +0.000 A 
ATOM     19  C   UNL     1      45.077   4.701   9.402  0.00  0.00    +0.000 A 
ATOM     20  C   UNL     1      44.543   3.734  10.263  0.00  0.00    +0.000 A 
ATOM     21  C   UNL     1      44.684   2.383   9.927  0.00  0.00    +0.000 A 
ATOM     22  C   UNL     1      45.357   2.013   8.759  0.00  0.00    +0.000 A 
BRANCH  17  24
ATOM     23  C   UNL     1      47.679   1.675   7.024  0.00  0.00    +0.000 C 
ATOM     24  O   UNL     1      46.528   2.480   6.801  0.00  0.00    +0.000 OA
ENDBRANCH  17  24
ENDBRANCH  16  20
ENDBRANCH  15  16
ENDBRANCH   1  15
TORSDOF 5
ENDMDL
MODEL 4
REMARK VINA RESULT:    -6.129      3.003      3.875
REMARK INTER + INTRA:          -8.601
REMARK INTER:                  -8.235
REMARK INTRA:                  -0.366
REMARK UNBOUND:                -0.681
REMARK  Name = 
REMARK  7 active torsions:
REMARK  status: ('A' for Active; 'I' for Inactive)
REMARK    1  A    between atoms: C_1  and  O_2
REMARK    2  A    between atoms: O_2  and  C_3
REMARK    3  A    between atoms: C_6  and  C_7
REMARK    4  A    between atoms: C_7  and  C_8
REMARK    5  A    between atoms: C_8  and  N_9
REMARK    6  A    between atoms: C_13  and  C_14
REMARK    7  A    between atoms: C_17  and  C_18
REMARK                            x       y       z     vdW  Elec       q    Type
REMARK                         _______ _______ _______ _____ _____    ______ ____
ROOT
ATOM      1  N   UNL     1      46.393   4.283  14.761  0.00  0.00    +0.000 N 
ATOM      2  C   UNL     1      47.341   4.450  15.783  0.00  0.00    +0.000 A 
ATOM      3  C   UNL     1      47.350   3.568  16.862  0.00  0.00    +0.000 A 
ATOM      4  N   UNL     1      48.245   3.615  17.878  0.00  0.00    +0.000 NA
ATOM      5  C   UNL     1      49.182   4.610  17.794  0.00  0.00    +0.000 A 
ATOM      6  C   UNL     1      49.192   5.518  16.733  0.00  0.00    +0.000 A 
ATOM      7  C   UNL     1      50.130   6.673  16.579  0.00  0.00    +0.000 C 
ATOM      8  N   UNL     1      48.269   5.424  15.720  0.00  0.00    +0.000 NA
ATOM      9  H   UNL     1      45.461   4.269  15.170  0.00  0.00    +0.000 HD
ENDROOT
BRANCH   5  10
ATOM     10  C   UNL     1      50.182   4.595  18.919  0.00  0.00    +0.000 C 
ATOM     11  N   UNL     1      51.228   3.722  18.747  0.00  0.00    +0.000 N 
ATOM     12  O   UNL     1      50.129   5.292  19.921  0.00  0.00    +0.000 OA
ATOM     13  H   UNL     1      51.293   3.188  17.887  0.00  0.00    +0.000 HD
ATOM     14  H   UNL     1      51.973   3.697  19.427  0.00  0.00    +0.000 HD
ENDBRANCH   5  10
BRANCH   1  15
ATOM     15  C   UNL     1      46.493   5.232  13.646  0.00  0.00    +0.000 C 
BRANCH  15  16
ATOM     16  C   UNL     1      45.135   5.321  12.934  0.00  0.00    +0.000 C 
BRANCH  16  20
ATOM     17  C   UNL     1      45.133   3.735   8.905  0.00  0.00    +0.000 A 
ATOM     18  C   UNL     1      44.710   2.946   9.973  0.00  0.00    +0.000 A 
ATOM     19  C   UNL     1      44.724   3.455  11.277  0.00  0.00    +0.000 A 
ATOM     20  C   UNL     1      45.150   4.765  11.530  0.00  0.00    +0.000 A 
ATOM     21  C   UNL     1      45.580   5.552  10.455  0.00  0.00    +0.000 A 
ATOM     22  C   UNL     1      45.568   5.039   9.156  0.00  0.00    +0.000 A 
BRANCH  17  24
ATOM     23  C   UNL     1      46.424   3.484   6.923  0.00  0.00    +0.000 C 
ATOM     24  O   UNL     1      45.175   3.360   7.590  0.00  0.00    +0.000 OA
ENDBRANCH  17  24
ENDBRANCH  16  20
ENDBRANCH  15  16
ENDBRANCH   1  15
TORSDOF 5
ENDMDL
MODEL 5
REMARK VINA RESULT:    -6.002      4.181      7.839
REMARK INTER + INTRA:          -8.437
REMARK INTER:                  -8.129
REMARK INTRA:                  -0.308
REMARK UNBOUND:                -0.681
REMARK  Name = 
REMARK  7 active torsions:
REMARK  status: ('A' for Active; 'I' for Inactive)
REMARK    1  A    between atoms: C_1  and  O_2
REMARK    2  A    between atoms: O_2  and  C_3
REMARK    3  A    between atoms: C_6  and  C_7
REMARK    4  A    between atoms: C_7  and  C_8
REMARK    5  A    between atoms: C_8  and  N_9
REMARK    6  A    between atoms: C_13  and  C_14
REMARK    7  A    between atoms: C_17  and  C_18
REMARK                            x       y       z     vdW  Elec       q    Type
REMARK                         _______ _______ _______ _____ _____    ______ ____
ROOT
ATOM      1  N   UNL     1      47.346   5.060  14.981  0.00  0.00    +0.000 N 
ATOM      2  C   UNL     1      46.548   4.998  13.828  0.00  0.00    +0.000 A 
ATOM      3  C   UNL     1      46.779   5.892  12.783  0.00  0.00    +0.000 A 
ATOM      4  N   UNL     1      46.095   5.891  11.613  0.00  0.00    +0.000 NA
ATOM      5  C   UNL     1      45.125   4.932  11.498  0.00  0.00    +0.000 A 
ATOM      6  C   UNL     1      44.859   4.031  12.531  0.00  0.00    +0.000 A 
ATOM      7  C   UNL     1      43.784   2.990  12.529  0.00  0.00    +0.000 C 
ATOM      8  N   UNL     1      45.586   4.064  13.696  0.00  0.00    +0.000 NA
ATOM      9  H   UNL     1      47.316   6.006  15.356  0.00  0.00    +0.000 HD
ENDROOT
BRANCH   5  10
ATOM     10  C   UNL     1      44.424   4.940  10.165  0.00  0.00    +0.000 C 
ATOM     11  N   UNL     1      45.255   4.829   9.077  0.00  0.00    +0.000 N 
ATOM     12  O   UNL     1      43.215   5.019  10.004  0.00  0.00    +0.000 OA
ATOM     13  H   UNL     1      46.251   4.708   9.224  0.00  0.00    +0.000 HD
ATOM     14  H   UNL     1      44.858   4.764   8.152  0.00  0.00    +0.000 HD
ENDBRANCH   5  10
BRANCH   1  15
ATOM     15  C   UNL     1      47.056   4.050  16.005  0.00  0.00    +0.000 C 
BRANCH  15  16
ATOM     16  C   UNL     1      47.788   4.421  17.303  0.00  0.00    +0.000 C 
BRANCH  16  20
ATOM     17  C   UNL     1      51.662   2.523  17.677  0.00  0.00    +0.000 A 
ATOM     18  C   UNL     1      50.593   1.835  17.106  0.00  0.00    +0.000 A 
ATOM     19  C   UNL     1      49.337   2.446  16.998  0.00  0.00    +0.000 A 
ATOM     20  C   UNL     1      49.136   3.756  17.449  0.00  0.00    +0.000 A 
ATOM     21  C   UNL     1      50.211   4.440  18.027  0.00  0.00    +0.000 A 
ATOM     22  C   UNL     1      51.462   3.827  18.137  0.00  0.00    +0.000 A 
BRANCH  17  24
ATOM     23  C   UNL     1      53.761   2.731  18.775  0.00  0.00    +0.000 C 
ATOM     24  O   UNL     1      52.932   2.045  17.847  0.00  0.00    +0.000 OA
ENDBRANCH  17  24
ENDBRANCH  16  20
ENDBRANCH  15  16
ENDBRANCH   1  15
TORSDOF 5
ENDMDL
MODEL 6
REMARK VINA RESULT:    -5.887      3.015      4.753
REMARK INTER + INTRA:          -8.289
REMARK INTER:                  -7.816
REMARK INTRA:                  -0.473
REMARK UNBOUND:                -0.681
REMARK  Name = 
REMARK  7 active torsions:
REMARK  status: ('A' for Active; 'I' for Inactive)
REMARK    1  A    between atoms: C_1  and  O_2
REMARK    2  A    between atoms: O_2  and  C_3
REMARK    3  A    between atoms: C_6  and  C_7
REMARK    4  A    between atoms: C_7  and  C_8
REMARK    5  A    between atoms: C_8  and  N_9
REMARK    6  A    between atoms: C_13  and  C_14
REMARK    7  A    between atoms: C_17  and  C_18
REMARK                            x       y       z     vdW  Elec       q    Type
REMARK                         _______ _______ _______ _____ _____    ______ ____
ROOT
ATOM      1  N   UNL     1      48.907   7.281  14.095  0.00  0.00    +0.000 N 
ATOM      2  C   UNL     1      48.744   6.651  15.339  0.00  0.00    +0.000 A 
ATOM      3  C   UNL     1      49.134   7.314  16.501  0.00  0.00    +0.000 A 
ATOM      4  N   UNL     1      48.983   6.813  17.752  0.00  0.00    +0.000 NA
ATOM      5  C   UNL     1      48.407   5.574  17.825  0.00  0.00    +0.000 A 
ATOM      6  C   UNL     1      48.020   4.877  16.680  0.00  0.00    +0.000 A 
ATOM      7  C   UNL     1      47.440   3.498  16.648  0.00  0.00    +0.000 C 
ATOM      8  N   UNL     1      48.183   5.430  15.433  0.00  0.00    +0.000 NA
ATOM      9  H   UNL     1      49.879   7.566  13.991  0.00  0.00    +0.000 HD
ENDROOT
BRANCH   5  10
ATOM     10  C   UNL     1      48.219   5.079  19.235  0.00  0.00    +0.000 C 
ATOM     11  N   UNL     1      47.120   5.590  19.883  0.00  0.00    +0.000 N 
ATOM     12  O   UNL     1      48.942   4.275  19.804  0.00  0.00    +0.000 OA
ATOM     13  H   UNL     1      46.496   6.213  19.383  0.00  0.00    +0.000 HD
ATOM     14  H   UNL     1      46.889   5.261  20.807  0.00  0.00    +0.000 HD
ENDBRANCH   5  10
BRANCH   1  15
ATOM     15  C   UNL     1      48.426   6.522  12.935  0.00  0.00    +0.000 C 
BRANCH  15  16
ATOM     16  C   UNL     1      46.960   6.888  12.662  0.00  0.00    +0.000 C 
BRANCH  16  20
ATOM     17  C   UNL     1      44.640   3.699  10.874  0.00  0.00    +0.000 A 
ATOM     18  C   UNL     1      45.056   3.609  12.201  0.00  0.00    +0.000 A 
ATOM     19  C   UNL     1      45.818   4.635  12.774  0.00  0.00    +0.000 A 
ATOM     20  C   UNL     1      46.165   5.771  12.032  0.00  0.00    +0.000 A 
ATOM     21  C   UNL     1      45.749   5.854  10.698  0.00  0.00    +0.000 A 
ATOM     22  C   UNL     1      44.993   4.827  10.128  0.00  0.00    +0.000 A 
BRANCH  17  24
ATOM     23  C   UNL     1      44.559   2.055   9.157  0.00  0.00    +0.000 C 
ATOM     24  O   UNL     1      43.900   2.771  10.195  0.00  0.00    +0.000 OA
ENDBRANCH  17  24
ENDBRANCH  16  20
ENDBRANCH  15  16
ENDBRANCH   1  15
TORSDOF 5
ENDMDL
MODEL 7
REMARK VINA RESULT:    -5.769      3.087      6.709
REMARK INTER + INTRA:          -8.136
REMARK INTER:                  -7.593
REMARK INTRA:                  -0.543
REMARK UNBOUND:                -0.681
REMARK  Name = 
REMARK  7 active torsions:
REMARK  status: ('A' for Active; 'I' for Inactive)
REMARK    1  A    between atoms: C_1  and  O_2
REMARK    2  A    between atoms: O_2  and  C_3
REMARK    3  A    between atoms: C_6  and  C_7
REMARK    4  A    between atoms: C_7  and  C_8
REMARK    5  A    between atoms: C_8  and  N_9
REMARK    6  A    between atoms: C_13  and  C_14
REMARK    7  A    between atoms: C_17  and  C_18
REMARK                            x       y       z     vdW  Elec       q    Type
REMARK                         _______ _______ _______ _____ _____    ______ ____
ROOT
ATOM      1  N   UNL     1      44.698   8.293  12.191  0.00  0.00    +0.000 N 
ATOM      2  C   UNL     1      44.506   6.914  12.010  0.00  0.00    +0.000 A 
ATOM      3  C   UNL     1      43.445   6.466  11.225  0.00  0.00    +0.000 A 
ATOM      4  N   UNL     1      43.196   5.162  10.954  0.00  0.00    +0.000 NA
ATOM      5  C   UNL     1      44.069   4.266  11.510  0.00  0.00    +0.000 A 
ATOM      6  C   UNL     1      45.132   4.681  12.313  0.00  0.00    +0.000 A 
ATOM      7  C   UNL     1      46.102   3.784  13.015  0.00  0.00    +0.000 C 
ATOM      8  N   UNL     1      45.351   6.016  12.552  0.00  0.00    +0.000 NA
ATOM      9  H   UNL     1      43.838   8.705  12.548  0.00  0.00    +0.000 HD
ENDROOT
BRANCH   5  10
ATOM     10  C   UNL     1      43.779   2.834  11.144  0.00  0.00    +0.000 C 
ATOM     11  N   UNL     1      44.547   2.335  10.121  0.00  0.00    +0.000 N 
ATOM     12  O   UNL     1      42.950   2.120  11.689  0.00  0.00    +0.000 OA
ATOM     13  H   UNL     1      45.270   2.918   9.713  0.00  0.00    +0.000 HD
ATOM     14  H   UNL     1      44.457   1.365   9.858  0.00  0.00    +0.000 HD
ENDBRANCH   5  10
BRANCH   1  15
ATOM     15  C   UNL     1      45.866   8.668  12.997  0.00  0.00    +0.000 C 
BRANCH  15  16
ATOM     16  C   UNL     1      46.686   9.723  12.239  0.00  0.00    +0.000 C 
BRANCH  16  20
ATOM     17  C   UNL     1      50.743   8.483  11.375  0.00  0.00    +0.000 A 
ATOM     18  C   UNL     1      49.795   7.550  11.795  0.00  0.00    +0.000 A 
ATOM     19  C   UNL     1      48.487   7.955  12.087  0.00  0.00    +0.000 A 
ATOM     20  C   UNL     1      48.104   9.296  11.953  0.00  0.00    +0.000 A 
ATOM     21  C   UNL     1      49.061  10.229  11.537  0.00  0.00    +0.000 A 
ATOM     22  C   UNL     1      50.367   9.822  11.250  0.00  0.00    +0.000 A 
BRANCH  17  24
ATOM     23  C   UNL     1      53.006   8.395  12.103  0.00  0.00    +0.000 C 
ATOM     24  O   UNL     1      52.049   8.222  11.065  0.00  0.00    +0.000 OA
ENDBRANCH  17  24
ENDBRANCH  16  20
ENDBRANCH  15  16
ENDBRANCH   1  15
TORSDOF 5
ENDMDL
MODEL 8
REMARK VINA RESULT:    -5.602      3.070      6.535
REMARK INTER + INTRA:          -7.920
REMARK INTER:                  -7.393
REMARK INTRA:                  -0.527
REMARK UNBOUND:                -0.681
REMARK  Name = 
REMARK  7 active torsions:
REMARK  status: ('A' for Active; 'I' for Inactive)
REMARK    1  A    between atoms: C_1  and  O_2
REMARK    2  A    between atoms: O_2  and  C_3
REMARK    3  A    between atoms: C_6  and  C_7
REMARK    4  A    between atoms: C_7  and  C_8
REMARK    5  A    between atoms: C_8  and  N_9
REMARK    6  A    between atoms: C_13  and  C_14
REMARK    7  A    between atoms: C_17  and  C_18
REMARK                            x       y       z     vdW  Elec       q    Type
REMARK                         _______ _______ _______ _____ _____    ______ ____
ROOT
ATOM      1  N   UNL     1      47.544   6.578  13.789  0.00  0.00    +0.000 N 
ATOM      2  C   UNL     1      46.722   5.717  13.045  0.00  0.00    +0.000 A 
ATOM      3  C   UNL     1      46.098   4.644  13.680  0.00  0.00    +0.000 A 
ATOM      4  N   UNL     1      45.254   3.780  13.066  0.00  0.00    +0.000 NA
ATOM      5  C   UNL     1      45.032   4.018  11.736  0.00  0.00    +0.000 A 
ATOM      6  C   UNL     1      45.652   5.074  11.067  0.00  0.00    +0.000 A 
ATOM      7  C   UNL     1      45.524   5.382   9.608  0.00  0.00    +0.000 C 
ATOM      8  N   UNL     1      46.493   5.931  11.735  0.00  0.00    +0.000 NA
ATOM      9  H   UNL     1      48.258   6.029  14.264  0.00  0.00    +0.000 HD
ENDROOT
BRANCH   5  10
ATOM     10  C   UNL     1      44.053   3.061  11.108  0.00  0.00    +0.000 C 
ATOM     11  N   UNL     1      44.596   2.208  10.179  0.00  0.00    +0.000 N 
ATOM     12  O   UNL     1      42.863   2.992  11.376  0.00  0.00    +0.000 OA
ATOM     13  H   UNL     1      45.595   2.236  10.005  0.00  0.00    +0.000 HD
ATOM     14  H   UNL     1      44.019   1.495   9.760  0.00  0.00    +0.000 HD
ENDBRANCH   5  10
BRANCH   1  15
ATOM     15  C   UNL     1      48.120   7.703  13.042  0.00  0.00    +0.000 C 
BRANCH  15  16
ATOM     16  C   UNL     1      47.504   9.015  13.549  0.00  0.00    +0.000 C 
BRANCH  16  20
ATOM     17  C   UNL     1      44.790  10.899  10.751  0.00  0.00    +0.000 A 
ATOM     18  C   UNL     1      44.407   9.748  11.437  0.00  0.00    +0.000 A 
ATOM     19  C   UNL     1      45.291   9.132  12.332  0.00  0.00    +0.000 A 
ATOM     20  C   UNL     1      46.566   9.665  12.562  0.00  0.00    +0.000 A 
ATOM     21  C   UNL     1      46.947  10.818  11.866  0.00  0.00    +0.000 A 
ATOM     22  C   UNL     1      46.064  11.428  10.971  0.00  0.00    +0.000 A 
BRANCH  17  24
ATOM     23  C   UNL     1      43.330  10.831   8.874  0.00  0.00    +0.000 C 
ATOM     24  O   UNL     1      44.030  11.593   9.851  0.00  0.00    +0.000 OA
ENDBRANCH  17  24
ENDBRANCH  16  20
ENDBRANCH  15  16
ENDBRANCH   1  15
TORSDOF 5
ENDMDL
MODEL 9
REMARK VINA RESULT:    -5.380      2.540      4.547
REMARK INTER + INTRA:          -7.633
REMARK INTER:                  -7.210
REMARK INTRA:                  -0.423
REMARK UNBOUND:                -0.681
REMARK  Name = 
REMARK  7 active torsions:
REMARK  status: ('A' for Active; 'I' for Inactive)
REMARK    1  A    between atoms: C_1  and  O_2
REMARK    2  A    between atoms: O_2  and  C_3
REMARK    3  A    between atoms: C_6  and  C_7
REMARK    4  A    between atoms: C_7  and  C_8
REMARK    5  A    between atoms: C_8  and  N_9
REMARK    6  A    between atoms: C_13  and  C_14
REMARK    7  A    between atoms: C_17  and  C_18
REMARK                            x       y       z     vdW  Elec       q    Type
REMARK                         _______ _______ _______ _____ _____    ______ ____
ROOT
ATOM      1  N   UNL     1      48.675   8.013  13.877  0.00  0.00    +0.000 N 
ATOM      2  C   UNL     1      48.413   6.827  14.582  0.00  0.00    +0.000 A 
ATOM      3  C   UNL     1      48.758   6.740  15.930  0.00  0.00    +0.000 A 
ATOM      4  N   UNL     1      48.514   5.659  16.711  0.00  0.00    +0.000 NA
ATOM      5  C   UNL     1      47.886   4.613  16.090  0.00  0.00    +0.000 A 
ATOM      6  C   UNL     1      47.541   4.663  14.739  0.00  0.00    +0.000 A 
ATOM      7  C   UNL     1      46.910   3.556  13.954  0.00  0.00    +0.000 C 
ATOM      8  N   UNL     1      47.800   5.785  13.989  0.00  0.00    +0.000 NA
ATOM      9  H   UNL     1      49.661   8.246  13.971  0.00  0.00    +0.000 HD
ENDROOT
BRANCH   5  10
ATOM     10  C   UNL     1      47.594   3.455  17.008  0.00  0.00    +0.000 C 
ATOM     11  N   UNL     1      48.704   2.780  17.455  0.00  0.00    +0.000 N 
ATOM     12  O   UNL     1      46.481   3.108  17.373  0.00  0.00    +0.000 OA
ATOM     13  H   UNL     1      49.625   3.111  17.191  0.00  0.00    +0.000 HD
ATOM     14  H   UNL     1      48.596   2.032  18.123  0.00  0.00    +0.000 HD
ENDBRANCH   5  10
BRANCH   1  15
ATOM     15  C   UNL     1      48.235   8.025  12.477  0.00  0.00    +0.000 C 
BRANCH  15  16
ATOM     16  C   UNL     1      46.736   8.353  12.420  0.00  0.00    +0.000 C 
BRANCH  16  20
ATOM     17  C   UNL     1      44.314   5.233  10.646  0.00  0.00    +0.000 A 
ATOM     18  C   UNL     1      43.764   6.104  11.585  0.00  0.00    +0.000 A 
ATOM     19  C   UNL     1      44.552   7.104  12.168  0.00  0.00    +0.000 A 
ATOM     20  C   UNL     1      45.899   7.255  11.812  0.00  0.00    +0.000 A 
ATOM     21  C   UNL     1      46.448   6.375  10.872  0.00  0.00    +0.000 A 
ATOM     22  C   UNL     1      45.659   5.375  10.296  0.00  0.00    +0.000 A 
BRANCH  17  24
ATOM     23  C   UNL     1      44.399   3.481   9.040  0.00  0.00    +0.000 C 
ATOM     24  O   UNL     1      43.661   4.215  10.008  0.00  0.00    +0.000 OA
ENDBRANCH  17  24
ENDBRANCH  16  20
ENDBRANCH  15  16
ENDBRANCH   1  15
TORSDOF 5
ENDMDL
