MODEL 1
REMARK VINA RESULT:    -8.608      0.000      0.000
REMARK INTER + INTRA:         -12.807
REMARK INTER:                 -11.627
REMARK INTRA:                  -1.180
REMARK UNBOUND:                -1.180
REMARK  Name = 
REMARK  6 active torsions:
REMARK  status: ('A' for Active; 'I' for Inactive)
REMARK    1  A    between atoms: C_2  and  C_4
REMARK    2  A    between atoms: C_7  and  O_8
REMARK    3  A    between atoms: O_8  and  C_9
REMARK    4  A    between atoms: C_9  and  C_10
REMARK    5  A    between atoms: C_10  and  C_11
REMARK    6  A    between atoms: C_15  and  C_16
REMARK                            x       y       z     vdW  Elec       q    Type
REMARK                         _______ _______ _______ _____ _____    ______ ____
ROOT
ATOM      1  C   UNL     1      43.173   4.132  11.228  0.00  0.00    +0.000 C 
ENDROOT
BRANCH   1   2
ATOM      2  O   UNL     1      43.720   4.696  10.035  0.00  0.00    +0.000 OA
BRANCH   2   6
ATOM      3  C   UNL     1      46.439   2.466   7.784  0.00  0.00    +0.000 A 
ATOM      4  C   UNL     1      45.615   1.793   8.690  0.00  0.00    +0.000 A 
ATOM      5  C   UNL     1      44.694   2.507   9.464  0.00  0.00    +0.000 A 
ATOM      6  C   UNL     1      44.593   3.895   9.345  0.00  0.00    +0.000 A 
ATOM      7  C   UNL     1      45.438   4.567   8.458  0.00  0.00    +0.000 A 
ATOM      8  C   UNL     1      46.364   3.860   7.683  0.00  0.00    +0.000 A 
BRANCH   3  10
ATOM      9  N   UNL     1      48.496   2.435   6.486  0.00  0.00    +0.000 N 
ATOM     10  C   UNL     1      47.408   1.736   6.930  0.00  0.00    +0.000 C 
ATOM     11  O   UNL     1      47.267   0.548   6.664  0.00  0.00    +0.000 OA
ATOM     12  H   UNL     1      49.204   1.898   6.001  0.00  0.00    +0.000 HD
ATOM     13  H   UNL     1      48.771   3.317   6.890  0.00  0.00    +0.000 HD
ENDBRANCH   3  10
ENDBRANCH   2   6
ENDBRANCH   1   2
BRANCH   1  14
ATOM     14  C   UNL     1      43.210   5.168  12.352  0.00  0.00    +0.000 C 
BRANCH  14  15
ATOM     15  C   UNL     1      44.635   5.401  12.786  0.00  0.00    +0.000 A 
ATOM     16  C   UNL     1      45.383   4.375  13.368  0.00  0.00    +0.000 A 
ATOM     17  C   UNL     1      46.728   4.577  13.665  0.00  0.00    +0.000 A 
ATOM     18  C   UNL     1      47.342   5.793  13.353  0.00  0.00    +0.000 A 
ATOM     19  C   UNL     1      46.634   6.832  12.722  0.00  0.00    +0.000 A 
ATOM     20  C   UNL     1      45.264   6.621  12.483  0.00  0.00    +0.000 A 
BRANCH  19  21
ATOM     21  C   UNL     1      47.315   8.045  12.209  0.00  0.00    +0.000 A 
ATOM     22  C   UNL     1      46.653   9.288  12.200  0.00  0.00    +0.000 A 
ATOM     23  C   UNL     1      47.313  10.468  11.847  0.00  0.00    +0.000 A 
ATOM     24  C   UNL     1      48.658  10.434  11.499  0.00  0.00    +0.000 A 
ATOM     25  C   UNL     1      49.333   9.217  11.473  0.00  0.00    +0.000 A 
ATOM     26  C   UNL     1      48.665   8.035  11.813  0.00  0.00    +0.000 A 
ENDBRANCH  19  21
ENDBRANCH  14  15
ENDBRANCH   1  14
TORSDOF 6
ENDMDL
MODEL 2
REMARK VINA RESULT:    -8.395      1.334      2.054
REMARK INTER + INTRA:         -12.521
REMARK INTER:                 -11.254
REMARK INTRA:                  -1.267
REMARK UNBOUND:                -1.180
REMARK  Name = 
REMARK  6 active torsions:
REMARK  status: ('A' for Active; 'I' for Inactive)
REMARK    1  A    between atoms: C_2  and  C_4
REMARK    2  A    between atoms: C_7  and  O_8
REMARK    3  A    between atoms: O_8  and  C_9
REMARK    4  A    between atoms: C_9  and  C_10
REMARK    5  A    between atoms: C_10  and  C_11
REMARK    6  A    between atoms: C_15  and  C_16
REMARK                            x       y       z     vdW  Elec       q    Type
REMARK                         _______ _______ _______ _____ _____    ______ ____
ROOT
ATOM      1  C   UNL     1      43.684   2.986  11.863  0.00  0.00    +0.000 C 
ENDROOT
BRANCH   1   2
ATOM      2  O   UNL     1      43.375   3.471  10.555  0.00  0.00    +0.000 OA
BRANCH   2   6
ATOM      3  C   UNL     1      46.368   2.686   7.752  0.00  0.00    +0.000 A 
ATOM      4  C   UNL     1      45.964   4.011   7.941  0.00  0.00    +0.000 A 
ATOM      5  C   UNL     1      44.961   4.312   8.869  0.00  0.00    +0.000 A 
ATOM      6  C   UNL     1      44.352   3.297   9.610  0.00  0.00    +0.000 A 
ATOM      7  C   UNL     1      44.739   1.971   9.397  0.00  0.00    +0.000 A 
ATOM      8  C   UNL     1      45.739   1.662   8.468  0.00  0.00    +0.000 A 
BRANCH   3  10
ATOM      9  N   UNL     1      47.631   3.176   5.732  0.00  0.00    +0.000 N 
ATOM     10  C   UNL     1      47.445   2.336   6.795  0.00  0.00    +0.000 C 
ATOM     11  O   UNL     1      48.167   1.360   6.963  0.00  0.00    +0.000 OA
ATOM     12  H   UNL     1      48.439   2.989   5.151  0.00  0.00    +0.000 HD
ATOM     13  H   UNL     1      47.239   4.105   5.705  0.00  0.00    +0.000 HD
ENDBRANCH   3  10
ENDBRANCH   2   6
ENDBRANCH   1   2
BRANCH   1  14
ATOM     14  C   UNL     1      43.456   4.095  12.891  0.00  0.00    +0.000 C 
BRANCH  14  15
ATOM     15  C   UNL     1      44.642   5.027  12.910  0.00  0.00    +0.000 A 
ATOM     16  C   UNL     1      45.933   4.538  13.125  0.00  0.00    +0.000 A 
ATOM     17  C   UNL     1      47.025   5.396  13.034  0.00  0.00    +0.000 A 
ATOM     18  C   UNL     1      46.838   6.740  12.696  0.00  0.00    +0.000 A 
ATOM     19  C   UNL     1      45.559   7.256  12.423  0.00  0.00    +0.000 A 
ATOM     20  C   UNL     1      44.468   6.380  12.576  0.00  0.00    +0.000 A 
BRANCH  19  21
ATOM     21  C   UNL     1      45.365   8.620  11.875  0.00  0.00    +0.000 A 
ATOM     22  C   UNL     1      44.217   8.933  11.122  0.00  0.00    +0.000 A 
ATOM     23  C   UNL     1      43.946  10.239  10.707  0.00  0.00    +0.000 A 
ATOM     24  C   UNL     1      44.818  11.269  11.039  0.00  0.00    +0.000 A 
ATOM     25  C   UNL     1      45.975  10.987  11.760  0.00  0.00    +0.000 A 
ATOM     26  C   UNL     1      46.250   9.675  12.162  0.00  0.00    +0.000 A 
ENDBRANCH  19  21
ENDBRANCH  14  15
ENDBRANCH   1  14
TORSDOF 6
ENDMDL
MODEL 3
REMARK VINA RESULT:    -8.348      2.037      3.824
REMARK INTER + INTRA:         -12.456
REMARK INTER:                 -11.336
REMARK INTRA:                  -1.120
REMARK UNBOUND:                -1.180
REMARK  Name = 
REMARK  6 active torsions:
REMARK  status: ('A' for Active; 'I' for Inactive)
REMARK    1  A    between atoms: C_2  and  C_4
REMARK    2  A    between atoms: C_7  and  O_8
REMARK    3  A    between atoms: O_8  and  C_9
REMARK    4  A    between atoms: C_9  and  C_10
REMARK    5  A    between atoms: C_10  and  C_11
REMARK    6  A    between atoms: C_15  and  C_16
REMARK                            x       y       z     vdW  Elec       q    Type
REMARK                         _______ _______ _______ _____ _____    ______ ____
ROOT
ATOM      1  C   UNL     1      43.591   4.831  10.851  0.00  0.00    +0.000 C 
ENDROOT
BRANCH   1   2
ATOM      2  O   UNL     1      43.487   3.505  10.328  0.00  0.00    +0.000 OA
BRANCH   2   6
ATOM      3  C   UNL     1      46.478   2.633   7.549  0.00  0.00    +0.000 A 
ATOM      4  C   UNL     1      45.893   1.575   8.250  0.00  0.00    +0.000 A 
ATOM      5  C   UNL     1      44.890   1.829   9.192  0.00  0.00    +0.000 A 
ATOM      6  C   UNL     1      44.468   3.136   9.444  0.00  0.00    +0.000 A 
ATOM      7  C   UNL     1      45.077   4.193   8.761  0.00  0.00    +0.000 A 
ATOM      8  C   UNL     1      46.083   3.947   7.821  0.00  0.00    +0.000 A 
BRANCH   3  10
ATOM      9  N   UNL     1      47.422   3.093   5.355  0.00  0.00    +0.000 N 
ATOM     10  C   UNL     1      47.526   2.396   6.527  0.00  0.00    +0.000 C 
ATOM     11  O   UNL     1      48.469   1.639   6.731  0.00  0.00    +0.000 OA
ATOM     12  H   UNL     1      48.201   3.008   4.714  0.00  0.00    +0.000 HD
ATOM     13  H   UNL     1      46.821   3.897   5.259  0.00  0.00    +0.000 HD
ENDBRANCH   3  10
ENDBRANCH   2   6
ENDBRANCH   1   2
BRANCH   1  14
ATOM     14  C   UNL     1      43.831   4.772  12.360  0.00  0.00    +0.000 C 
BRANCH  14  15
ATOM     15  C   UNL     1      45.254   5.168  12.667  0.00  0.00    +0.000 A 
ATOM     16  C   UNL     1      45.918   6.114  11.883  0.00  0.00    +0.000 A 
ATOM     17  C   UNL     1      47.192   6.545  12.244  0.00  0.00    +0.000 A 
ATOM     18  C   UNL     1      47.795   6.060  13.407  0.00  0.00    +0.000 A 
ATOM     19  C   UNL     1      47.137   5.145  14.248  0.00  0.00    +0.000 A 
ATOM     20  C   UNL     1      45.874   4.685  13.831  0.00  0.00    +0.000 A 
BRANCH  19  21
ATOM     21  C   UNL     1      47.678   4.774  15.578  0.00  0.00    +0.000 A 
ATOM     22  C   UNL     1      48.518   5.658  16.281  0.00  0.00    +0.000 A 
ATOM     23  C   UNL     1      48.934   5.391  17.588  0.00  0.00    +0.000 A 
ATOM     24  C   UNL     1      48.513   4.231  18.228  0.00  0.00    +0.000 A 
ATOM     25  C   UNL     1      47.703   3.325  17.549  0.00  0.00    +0.000 A 
ATOM     26  C   UNL     1      47.301   3.589  16.235  0.00  0.00    +0.000 A 
ENDBRANCH  19  21
ENDBRANCH  14  15
ENDBRANCH   1  14
TORSDOF 6
ENDMDL
MODEL 4
REMARK VINA RESULT:    -7.767      2.148      3.450
REMARK INTER + INTRA:         -11.672
REMARK INTER:                 -10.506
REMARK INTRA:                  -1.165
REMARK UNBOUND:                -1.180
REMARK  Name = 
REMARK  6 active torsions:
REMARK  status: ('A' for Active; 'I' for Inactive)
REMARK    1  A    between atoms: C_2  and  C_4
REMARK    2  A    between atoms: C_7  and  O_8
REMARK    3  A    between atoms: O_8  and  C_9
REMARK    4  A    between atoms: C_9  and  C_10
REMARK    5  A    between atoms: C_10  and  C_11
REMARK    6  A    between atoms: C_15  and  C_16
REMARK                            x       y       z     vdW  Elec       q    Type
REMARK                         _______ _______ _______ _____ _____    ______ ____
ROOT
ATOM      1  C   UNL     1      44.049   4.752  11.290  0.00  0.00    +0.000 C 
ENDROOT
BRANCH   1   2
ATOM      2  O   UNL     1      43.706   3.739  10.343  0.00  0.00    +0.000 OA
BRANCH   2   6
ATOM      3  C   UNL     1      46.590   2.702   7.508  0.00  0.00    +0.000 A 
ATOM      4  C   UNL     1      46.230   4.047   7.629  0.00  0.00    +0.000 A 
ATOM      5  C   UNL     1      45.265   4.432   8.566  0.00  0.00    +0.000 A 
ATOM      6  C   UNL     1      44.650   3.480   9.382  0.00  0.00    +0.000 A 
ATOM      7  C   UNL     1      44.993   2.133   9.238  0.00  0.00    +0.000 A 
ATOM      8  C   UNL     1      45.955   1.741   8.301  0.00  0.00    +0.000 A 
BRANCH   3  10
ATOM      9  N   UNL     1      47.770   3.006   5.402  0.00  0.00    +0.000 N 
ATOM     10  C   UNL     1      47.628   2.264   6.542  0.00  0.00    +0.000 C 
ATOM     11  O   UNL     1      48.357   1.305   6.769  0.00  0.00    +0.000 OA
ATOM     12  H   UNL     1      48.553   2.765   4.807  0.00  0.00    +0.000 HD
ATOM     13  H   UNL     1      47.375   3.929   5.307  0.00  0.00    +0.000 HD
ENDBRANCH   3  10
ENDBRANCH   2   6
ENDBRANCH   1   2
BRANCH   1  14
ATOM     14  C   UNL     1      45.079   4.205  12.279  0.00  0.00    +0.000 C 
BRANCH  14  15
ATOM     15  C   UNL     1      46.200   5.200  12.453  0.00  0.00    +0.000 A 
ATOM     16  C   UNL     1      46.383   6.239  11.538  0.00  0.00    +0.000 A 
ATOM     17  C   UNL     1      47.355   7.208  11.771  0.00  0.00    +0.000 A 
ATOM     18  C   UNL     1      48.126   7.164  12.935  0.00  0.00    +0.000 A 
ATOM     19  C   UNL     1      47.937   6.162  13.903  0.00  0.00    +0.000 A 
ATOM     20  C   UNL     1      46.986   5.165  13.617  0.00  0.00    +0.000 A 
BRANCH  19  21
ATOM     21  C   UNL     1      48.606   6.213  15.225  0.00  0.00    +0.000 A 
ATOM     22  C   UNL     1      48.219   5.339  16.259  0.00  0.00    +0.000 A 
ATOM     23  C   UNL     1      48.918   5.276  17.467  0.00  0.00    +0.000 A 
ATOM     24  C   UNL     1      50.029   6.086  17.670  0.00  0.00    +0.000 A 
ATOM     25  C   UNL     1      50.421   6.980  16.677  0.00  0.00    +0.000 A 
ATOM     26  C   UNL     1      49.709   7.050  15.474  0.00  0.00    +0.000 A 
ENDBRANCH  19  21
ENDBRANCH  14  15
ENDBRANCH   1  14
TORSDOF 6
ENDMDL
MODEL 5
REMARK VINA RESULT:    -7.674      3.600      7.093
REMARK INTER + INTRA:         -11.546
REMARK INTER:                 -10.318
REMARK INTRA:                  -1.228
REMARK UNBOUND:                -1.180
REMARK  Name = 
REMARK  6 active torsions:
REMARK  status: ('A' for Active; 'I' for Inactive)
REMARK    1  A    between atoms: C_2  and  C_4
REMARK    2  A    between atoms: C_7  and  O_8
REMARK    3  A    between atoms: O_8  and  C_9
REMARK    4  A    between atoms: C_9  and  C_10
REMARK    5  A    between atoms: C_10  and  C_11
REMARK    6  A    between atoms: C_15  and  C_16
REMARK                            x       y       z     vdW  Elec       q    Type
REMARK                         _______ _______ _______ _____ _____    ______ ____
ROOT
ATOM      1  C   UNL     1      45.772   7.610  12.595  0.00  0.00    +0.000 C 
ENDROOT
BRANCH   1   2
ATOM      2  O   UNL     1      47.031   6.936  12.561  0.00  0.00    +0.000 OA
BRANCH   2   6
ATOM      3  C   UNL     1      47.729   4.396  15.801  0.00  0.00    +0.000 A 
ATOM      4  C   UNL     1      48.316   5.664  15.811  0.00  0.00    +0.000 A 
ATOM      5  C   UNL     1      48.108   6.541  14.742  0.00  0.00    +0.000 A 
ATOM      6  C   UNL     1      47.319   6.159  13.654  0.00  0.00    +0.000 A 
ATOM      7  C   UNL     1      46.757   4.880  13.635  0.00  0.00    +0.000 A 
ATOM      8  C   UNL     1      46.964   3.996  14.699  0.00  0.00    +0.000 A 
BRANCH   3  10
ATOM      9  N   UNL     1      47.319   3.781  18.118  0.00  0.00    +0.000 N 
ATOM     10  C   UNL     1      47.910   3.451  16.930  0.00  0.00    +0.000 C 
ATOM     11  O   UNL     1      48.526   2.400  16.800  0.00  0.00    +0.000 OA
ATOM     12  H   UNL     1      47.354   3.078  18.845  0.00  0.00    +0.000 HD
ATOM     13  H   UNL     1      46.605   4.490  18.186  0.00  0.00    +0.000 HD
ENDBRANCH   3  10
ENDBRANCH   2   6
ENDBRANCH   1   2
BRANCH   1  14
ATOM     14  C   UNL     1      45.056   7.431  11.255  0.00  0.00    +0.000 C 
BRANCH  14  15
ATOM     15  C   UNL     1      44.679   5.983  11.066  0.00  0.00    +0.000 A 
ATOM     16  C   UNL     1      43.555   5.447  11.698  0.00  0.00    +0.000 A 
ATOM     17  C   UNL     1      43.162   4.139  11.429  0.00  0.00    +0.000 A 
ATOM     18  C   UNL     1      43.871   3.370  10.501  0.00  0.00    +0.000 A 
ATOM     19  C   UNL     1      44.977   3.891   9.808  0.00  0.00    +0.000 A 
ATOM     20  C   UNL     1      45.385   5.196  10.140  0.00  0.00    +0.000 A 
BRANCH  19  21
ATOM     21  C   UNL     1      45.614   3.161   8.685  0.00  0.00    +0.000 A 
ATOM     22  C   UNL     1      46.163   3.861   7.594  0.00  0.00    +0.000 A 
ATOM     23  C   UNL     1      46.883   3.208   6.591  0.00  0.00    +0.000 A 
ATOM     24  C   UNL     1      47.075   1.833   6.656  0.00  0.00    +0.000 A 
ATOM     25  C   UNL     1      46.522   1.109   7.709  0.00  0.00    +0.000 A 
ATOM     26  C   UNL     1      45.789   1.765   8.705  0.00  0.00    +0.000 A 
ENDBRANCH  19  21
ENDBRANCH  14  15
ENDBRANCH   1  14
TORSDOF 6
ENDMDL
MODEL 6
REMARK VINA RESULT:    -7.469      1.558      2.311
REMARK INTER + INTRA:         -11.269
REMARK INTER:                 -10.449
REMARK INTRA:                  -0.821
REMARK UNBOUND:                -1.180
REMARK  Name = 
REMARK  6 active torsions:
REMARK  status: ('A' for Active; 'I' for Inactive)
REMARK    1  A    between atoms: C_2  and  C_4
REMARK    2  A    between atoms: C_7  and  O_8
REMARK    3  A    between atoms: O_8  and  C_9
REMARK    4  A    between atoms: C_9  and  C_10
REMARK    5  A    between atoms: C_10  and  C_11
REMARK    6  A    between atoms: C_15  and  C_16
REMARK                            x       y       z     vdW  Elec       q    Type
REMARK                         _______ _______ _______ _____ _____    ______ ____
ROOT
ATOM      1  C   UNL     1      43.964   5.195  11.106  0.00  0.00    +0.000 C 
ENDROOT
BRANCH   1   2
ATOM      2  O   UNL     1      43.526   4.696   9.841  0.00  0.00    +0.000 OA
BRANCH   2   6
ATOM      3  C   UNL     1      46.181   2.076   7.966  0.00  0.00    +0.000 A 
ATOM      4  C   UNL     1      46.240   3.432   7.635  0.00  0.00    +0.000 A 
ATOM      5  C   UNL     1      45.364   4.340   8.240  0.00  0.00    +0.000 A 
ATOM      6  C   UNL     1      44.422   3.901   9.173  0.00  0.00    +0.000 A 
ATOM      7  C   UNL     1      44.348   2.540   9.480  0.00  0.00    +0.000 A 
ATOM      8  C   UNL     1      45.218   1.626   8.876  0.00  0.00    +0.000 A 
BRANCH   3  10
ATOM      9  N   UNL     1      46.846  -0.232   7.578  0.00  0.00    +0.000 N 
ATOM     10  C   UNL     1      47.112   1.092   7.361  0.00  0.00    +0.000 C 
ATOM     11  O   UNL     1      48.057   1.442   6.663  0.00  0.00    +0.000 OA
ATOM     12  H   UNL     1      47.420  -0.892   7.069  0.00  0.00    +0.000 HD
ATOM     13  H   UNL     1      45.953  -0.552   7.920  0.00  0.00    +0.000 HD
ENDBRANCH   3  10
ENDBRANCH   2   6
ENDBRANCH   1   2
BRANCH   1  14
ATOM     14  C   UNL     1      45.087   6.212  10.897  0.00  0.00    +0.000 C 
BRANCH  14  15
ATOM     15  C   UNL     1      46.061   6.143  12.046  0.00  0.00    +0.000 A 
ATOM     16  C   UNL     1      45.882   5.223  13.081  0.00  0.00    +0.000 A 
ATOM     17  C   UNL     1      46.847   5.101  14.078  0.00  0.00    +0.000 A 
ATOM     18  C   UNL     1      48.010   5.873  14.027  0.00  0.00    +0.000 A 
ATOM     19  C   UNL     1      48.249   6.774  12.974  0.00  0.00    +0.000 A 
ATOM     20  C   UNL     1      47.233   6.916  12.011  0.00  0.00    +0.000 A 
BRANCH  19  21
ATOM     21  C   UNL     1      49.557   7.450  12.803  0.00  0.00    +0.000 A 
ATOM     22  C   UNL     1      50.061   7.720  11.516  0.00  0.00    +0.000 A 
ATOM     23  C   UNL     1      51.224   8.471  11.326  0.00  0.00    +0.000 A 
ATOM     24  C   UNL     1      51.911   8.977  12.423  0.00  0.00    +0.000 A 
ATOM     25  C   UNL     1      51.452   8.705  13.709  0.00  0.00    +0.000 A 
ATOM     26  C   UNL     1      50.295   7.940  13.896  0.00  0.00    +0.000 A 
ENDBRANCH  19  21
ENDBRANCH  14  15
ENDBRANCH   1  14
TORSDOF 6
ENDMDL
MODEL 7
REMARK VINA RESULT:    -7.427      2.899      6.757
REMARK INTER + INTRA:         -11.213
REMARK INTER:                 -10.235
REMARK INTRA:                  -0.978
REMARK UNBOUND:                -1.180
REMARK  Name = 
REMARK  6 active torsions:
REMARK  status: ('A' for Active; 'I' for Inactive)
REMARK    1  A    between atoms: C_2  and  C_4
REMARK    2  A    between atoms: C_7  and  O_8
REMARK    3  A    between atoms: O_8  and  C_9
REMARK    4  A    between atoms: C_9  and  C_10
REMARK    5  A    between atoms: C_10  and  C_11
REMARK    6  A    between atoms: C_15  and  C_16
REMARK                            x       y       z     vdW  Elec       q    Type
REMARK                         _______ _______ _______ _____ _____    ______ ____
ROOT
ATOM      1  C   UNL     1      44.908   6.752  12.809  0.00  0.00    +0.000 C 
ENDROOT
BRANCH   1   2
ATOM      2  O   UNL     1      45.603   7.998  12.880  0.00  0.00    +0.000 OA
BRANCH   2   6
ATOM      3  C   UNL     1      49.672   8.065  11.944  0.00  0.00    +0.000 A 
ATOM      4  C   UNL     1      49.144   6.914  12.534  0.00  0.00    +0.000 A 
ATOM      5  C   UNL     1      47.786   6.856  12.865  0.00  0.00    +0.000 A 
ATOM      6  C   UNL     1      46.948   7.945  12.615  0.00  0.00    +0.000 A 
ATOM      7  C   UNL     1      47.486   9.105  12.051  0.00  0.00    +0.000 A 
ATOM      8  C   UNL     1      48.844   9.171  11.721  0.00  0.00    +0.000 A 
BRANCH   3  10
ATOM      9  N   UNL     1      51.579   7.181  10.720  0.00  0.00    +0.000 N 
ATOM     10  C   UNL     1      51.102   8.150  11.558  0.00  0.00    +0.000 C 
ATOM     11  O   UNL     1      51.819   9.068  11.938  0.00  0.00    +0.000 OA
ATOM     12  H   UNL     1      52.521   7.313  10.375  0.00  0.00    +0.000 HD
ATOM     13  H   UNL     1      50.967   6.576  10.193  0.00  0.00    +0.000 HD
ENDBRANCH   3  10
ENDBRANCH   2   6
ENDBRANCH   1   2
BRANCH   1  14
ATOM     14  C   UNL     1      44.386   6.534  11.388  0.00  0.00    +0.000 C 
BRANCH  14  15
ATOM     15  C   UNL     1      44.349   5.058  11.078  0.00  0.00    +0.000 A 
ATOM     16  C   UNL     1      43.444   4.214  11.725  0.00  0.00    +0.000 A 
ATOM     17  C   UNL     1      43.351   2.876  11.351  0.00  0.00    +0.000 A 
ATOM     18  C   UNL     1      44.136   2.383  10.305  0.00  0.00    +0.000 A 
ATOM     19  C   UNL     1      45.021   3.215   9.596  0.00  0.00    +0.000 A 
ATOM     20  C   UNL     1      45.135   4.548  10.031  0.00  0.00    +0.000 A 
BRANCH  19  21
ATOM     21  C   UNL     1      45.710   2.757   8.365  0.00  0.00    +0.000 A 
ATOM     22  C   UNL     1      45.960   3.654   7.309  0.00  0.00    +0.000 A 
ATOM     23  C   UNL     1      46.721   3.284   6.197  0.00  0.00    +0.000 A 
ATOM     24  C   UNL     1      47.257   2.005   6.117  0.00  0.00    +0.000 A 
ATOM     25  C   UNL     1      47.006   1.087   7.133  0.00  0.00    +0.000 A 
ATOM     26  C   UNL     1      46.231   1.457   8.239  0.00  0.00    +0.000 A 
ENDBRANCH  19  21
ENDBRANCH  14  15
ENDBRANCH   1  14
TORSDOF 6
ENDMDL
MODEL 8
REMARK VINA RESULT:    -6.858      3.246      7.004
REMARK INTER + INTRA:         -10.443
REMARK INTER:                  -9.138
REMARK INTRA:                  -1.306
REMARK UNBOUND:                -1.180
REMARK  Name = 
REMARK  6 active torsions:
REMARK  status: ('A' for Active; 'I' for Inactive)
REMARK    1  A    between atoms: C_2  and  C_4
REMARK    2  A    between atoms: C_7  and  O_8
REMARK    3  A    between atoms: O_8  and  C_9
REMARK    4  A    between atoms: C_9  and  C_10
REMARK    5  A    between atoms: C_10  and  C_11
REMARK    6  A    between atoms: C_15  and  C_16
REMARK                            x       y       z     vdW  Elec       q    Type
REMARK                         _______ _______ _______ _____ _____    ______ ____
ROOT
ATOM      1  C   UNL     1      47.055   4.273  13.752  0.00  0.00    +0.000 C 
ENDROOT
BRANCH   1   2
ATOM      2  O   UNL     1      47.919   5.281  14.279  0.00  0.00    +0.000 OA
BRANCH   2   6
ATOM      3  C   UNL     1      47.757   9.087  12.569  0.00  0.00    +0.000 A 
ATOM      4  C   UNL     1      47.749   7.976  11.722  0.00  0.00    +0.000 A 
ATOM      5  C   UNL     1      47.805   6.685  12.258  0.00  0.00    +0.000 A 
ATOM      6  C   UNL     1      47.876   6.494  13.639  0.00  0.00    +0.000 A 
ATOM      7  C   UNL     1      47.913   7.608  14.482  0.00  0.00    +0.000 A 
ATOM      8  C   UNL     1      47.860   8.902  13.952  0.00  0.00    +0.000 A 
BRANCH   3  10
ATOM      9  N   UNL     1      46.548  11.185  12.333  0.00  0.00    +0.000 N 
ATOM     10  C   UNL     1      47.673  10.468  12.034  0.00  0.00    +0.000 C 
ATOM     11  O   UNL     1      48.586  10.965  11.384  0.00  0.00    +0.000 OA
ATOM     12  H   UNL     1      46.553  12.159  12.059  0.00  0.00    +0.000 HD
ATOM     13  H   UNL     1      45.911  10.906  13.064  0.00  0.00    +0.000 HD
ENDBRANCH   3  10
ENDBRANCH   2   6
ENDBRANCH   1   2
BRANCH   1  14
ATOM     14  C   UNL     1      45.599   4.642  14.037  0.00  0.00    +0.000 C 
BRANCH  14  15
ATOM     15  C   UNL     1      44.816   4.670  12.748  0.00  0.00    +0.000 A 
ATOM     16  C   UNL     1      43.730   5.534  12.590  0.00  0.00    +0.000 A 
ATOM     17  C   UNL     1      43.086   5.622  11.359  0.00  0.00    +0.000 A 
ATOM     18  C   UNL     1      43.544   4.874  10.271  0.00  0.00    +0.000 A 
ATOM     19  C   UNL     1      44.665   4.032  10.379  0.00  0.00    +0.000 A 
ATOM     20  C   UNL     1      45.263   3.920  11.647  0.00  0.00    +0.000 A 
BRANCH  19  21
ATOM     21  C   UNL     1      45.278   3.388   9.192  0.00  0.00    +0.000 A 
ATOM     22  C   UNL     1      45.795   4.169   8.140  0.00  0.00    +0.000 A 
ATOM     23  C   UNL     1      46.494   3.594   7.076  0.00  0.00    +0.000 A 
ATOM     24  C   UNL     1      46.698   2.220   7.039  0.00  0.00    +0.000 A 
ATOM     25  C   UNL     1      46.176   1.419   8.051  0.00  0.00    +0.000 A 
ATOM     26  C   UNL     1      45.464   1.996   9.108  0.00  0.00    +0.000 A 
ENDBRANCH  19  21
ENDBRANCH  14  15
ENDBRANCH   1  14
TORSDOF 6
ENDMDL
MODEL 9
REMARK VINA RESULT:    -6.778      4.040      7.564
REMARK INTER + INTRA:         -10.336
REMARK INTER:                  -9.104
REMARK INTRA:                  -1.232
REMARK UNBOUND:                -1.180
REMARK  Name = 
REMARK  6 active torsions:
REMARK  status: ('A' for Active; 'I' for Inactive)
REMARK    1  A    between atoms: C_2  and  C_4
REMARK    2  A    between atoms: C_7  and  O_8
REMARK    3  A    between atoms: O_8  and  C_9
REMARK    4  A    between atoms: C_9  and  C_10
REMARK    5  A    between atoms: C_10  and  C_11
REMARK    6  A    between atoms: C_15  and  C_16
REMARK                            x       y       z     vdW  Elec       q    Type
REMARK                         _______ _______ _______ _____ _____    ______ ____
ROOT
ATOM      1  C   UNL     1      49.576   7.430  13.296  0.00  0.00    +0.000 C 
ENDROOT
BRANCH   1   2
ATOM      2  O   UNL     1      48.991   7.781  14.552  0.00  0.00    +0.000 OA
BRANCH   2   6
ATOM      3  C   UNL     1      48.040   4.532  16.996  0.00  0.00    +0.000 A 
ATOM      4  C   UNL     1      49.008   5.438  17.439  0.00  0.00    +0.000 A 
ATOM      5  C   UNL     1      49.356   6.537  16.646  0.00  0.00    +0.000 A 
ATOM      6  C   UNL     1      48.746   6.737  15.406  0.00  0.00    +0.000 A 
ATOM      7  C   UNL     1      47.799   5.813  14.954  0.00  0.00    +0.000 A 
ATOM      8  C   UNL     1      47.449   4.711  15.740  0.00  0.00    +0.000 A 
BRANCH   3  10
ATOM      9  N   UNL     1      48.353   3.132  18.961  0.00  0.00    +0.000 N 
ATOM     10  C   UNL     1      47.632   3.371  17.824  0.00  0.00    +0.000 C 
ATOM     11  O   UNL     1      46.666   2.676  17.528  0.00  0.00    +0.000 OA
ATOM     12  H   UNL     1      47.995   2.410  19.573  0.00  0.00    +0.000 HD
ATOM     13  H   UNL     1      48.972   3.821  19.360  0.00  0.00    +0.000 HD
ENDBRANCH   3  10
ENDBRANCH   2   6
ENDBRANCH   1   2
BRANCH   1  14
ATOM     14  C   UNL     1      48.985   8.306  12.191  0.00  0.00    +0.000 C 
BRANCH  14  15
ATOM     15  C   UNL     1      47.517   8.003  12.026  0.00  0.00    +0.000 A 
ATOM     16  C   UNL     1      46.556   9.001  12.203  0.00  0.00    +0.000 A 
ATOM     17  C   UNL     1      45.215   8.729  11.944  0.00  0.00    +0.000 A 
ATOM     18  C   UNL     1      44.832   7.470  11.475  0.00  0.00    +0.000 A 
ATOM     19  C   UNL     1      45.777   6.456  11.237  0.00  0.00    +0.000 A 
ATOM     20  C   UNL     1      47.117   6.740  11.559  0.00  0.00    +0.000 A 
BRANCH  19  21
ATOM     21  C   UNL     1      45.412   5.189  10.558  0.00  0.00    +0.000 A 
ATOM     22  C   UNL     1      44.802   4.142  11.274  0.00  0.00    +0.000 A 
ATOM     23  C   UNL     1      44.330   2.993  10.634  0.00  0.00    +0.000 A 
ATOM     24  C   UNL     1      44.453   2.865   9.256  0.00  0.00    +0.000 A 
ATOM     25  C   UNL     1      45.075   3.872   8.523  0.00  0.00    +0.000 A 
ATOM     26  C   UNL     1      45.560   5.015   9.170  0.00  0.00    +0.000 A 
ENDBRANCH  19  21
ENDBRANCH  14  15
ENDBRANCH   1  14
TORSDOF 6
ENDMDL
