MODEL 1
REMARK VINA RESULT:    -8.593      0.000      0.000
REMARK INTER + INTRA:         -13.772
REMARK INTER:                 -12.611
REMARK INTRA:                  -1.161
REMARK UNBOUND:                -1.161
REMARK  Name = 
REMARK  10 active torsions:
REMARK  status: ('A' for Active; 'I' for Inactive)
REMARK    1  A    between atoms: C_1  and  O_2
REMARK    2  A    between atoms: O_2  and  C_3
REMARK    3  A    between atoms: C_5  and  O_6
REMARK    4  A    between atoms: O_6  and  C_7
REMARK    5  A    between atoms: C_13  and  C_14
REMARK    6  A    between atoms: C_14  and  C_15
REMARK    7  A    between atoms: C_14  and  C_16
REMARK    8  A    between atoms: C_16  and  N_17
REMARK    9  A    between atoms: N_17  and  C_18
REMARK   10  A    between atoms: C_21  and  C_22
REMARK                            x       y       z     vdW  Elec       q    Type
REMARK                         _______ _______ _______ _____ _____    ______ ____
ROOT
ATOM      1  C   UNL     1      43.436   4.520  12.626  0.00  0.00    +0.000 C 
ATOM      2  C   UNL     1      42.436   5.560  12.097  0.00  0.00    +0.000 C 
ENDROOT
BRANCH   1   7
ATOM      3  C   UNL     1      46.315   7.039  12.779  0.00  0.00    +0.000 A 
ATOM      4  C   UNL     1      47.308   6.304  13.436  0.00  0.00    +0.000 A 
ATOM      5  C   UNL     1      47.008   5.046  13.958  0.00  0.00    +0.000 A 
ATOM      6  C   UNL     1      45.759   4.471  13.681  0.00  0.00    +0.000 A 
ATOM      7  C   UNL     1      44.777   5.165  12.957  0.00  0.00    +0.000 A 
ATOM      8  C   UNL     1      45.064   6.470  12.540  0.00  0.00    +0.000 A 
BRANCH   3  10
ATOM      9  C   UNL     1      45.398   9.201  12.614  0.00  0.00    +0.000 C 
ATOM     10  O   UNL     1      46.466   8.314  12.303  0.00  0.00    +0.000 OA
ENDBRANCH   3  10
BRANCH   5  11
ATOM     11  O   UNL     1      47.839   4.281  14.743  0.00  0.00    +0.000 OA
BRANCH  11  12
ATOM     12  C   UNL     1      47.439   4.016  16.095  0.00  0.00    +0.000 C 
ATOM     13  C   UNL     1      47.891   5.165  16.996  0.00  0.00    +0.000 C 
ATOM     14  C   UNL     1      49.272   4.755  17.472  0.00  0.00    +0.000 C 
ATOM     15  N   UNL     1      49.220   3.302  17.619  0.00  0.00    +0.000 NA
ATOM     16  C   UNL     1      48.153   2.810  16.728  0.00  0.00    +0.000 C 
ATOM     17  H   UNL     1      48.991   3.059  18.583  0.00  0.00    +0.000 HD
ENDBRANCH  11  12
ENDBRANCH   5  11
ENDBRANCH   1   7
BRANCH   1  18
ATOM     18  C   UNL     1      43.633   3.346  11.635  0.00  0.00    +0.000 C 
BRANCH  18  19
ATOM     19  N   UNL     1      43.600   3.807  10.249  0.00  0.00    +0.000 N 
ATOM     20  H   UNL     1      42.670   3.847   9.841  0.00  0.00    +0.000 HD
BRANCH  19  21
ATOM     21  C   UNL     1      44.559   3.385   9.330  0.00  0.00    +0.000 A 
ATOM     22  C   UNL     1      44.955   2.053   9.164  0.00  0.00    +0.000 A 
ATOM     23  C   UNL     1      45.964   1.709   8.258  0.00  0.00    +0.000 A 
ATOM     24  C   UNL     1      46.615   2.699   7.515  0.00  0.00    +0.000 A 
ATOM     25  C   UNL     1      46.270   4.036   7.707  0.00  0.00    +0.000 A 
ATOM     26  C   UNL     1      45.257   4.368   8.613  0.00  0.00    +0.000 A 
BRANCH  24  27
ATOM     27  C   UNL     1      47.690   2.284   6.575  0.00  0.00    +0.000 C 
ATOM     28  N   UNL     1      47.819   2.995   5.413  0.00  0.00    +0.000 N 
ATOM     29  O   UNL     1      48.406   1.323   6.803  0.00  0.00    +0.000 OA
ATOM     30  H   UNL     1      47.145   3.675   5.095  0.00  0.00    +0.000 HD
ATOM     31  H   UNL     1      48.498   2.649   4.747  0.00  0.00    +0.000 HD
ENDBRANCH  24  27
ENDBRANCH  19  21
ENDBRANCH  18  19
ENDBRANCH   1  18
TORSDOF 8
ENDMDL
MODEL 2
REMARK VINA RESULT:    -8.144      2.217      4.062
REMARK INTER + INTRA:         -13.114
REMARK INTER:                 -11.681
REMARK INTRA:                  -1.434
REMARK UNBOUND:                -1.161
REMARK  Name = 
REMARK  10 active torsions:
REMARK  status: ('A' for Active; 'I' for Inactive)
REMARK    1  A    between atoms: C_1  and  O_2
REMARK    2  A    between atoms: O_2  and  C_3
REMARK    3  A    between atoms: C_5  and  O_6
REMARK    4  A    between atoms: O_6  and  C_7
REMARK    5  A    between atoms: C_13  and  C_14
REMARK    6  A    between atoms: C_14  and  C_15
REMARK    7  A    between atoms: C_14  and  C_16
REMARK    8  A    between atoms: C_16  and  N_17
REMARK    9  A    between atoms: N_17  and  C_18
REMARK   10  A    between atoms: C_21  and  C_22
REMARK                            x       y       z     vdW  Elec       q    Type
REMARK                         _______ _______ _______ _____ _____    ______ ____
ROOT
ATOM      1  C   UNL     1      43.570   5.500  12.039  0.00  0.00    +0.000 C 
ATOM      2  C   UNL     1      43.181   6.813  11.343  0.00  0.00    +0.000 C 
ENDROOT
BRANCH   1   7
ATOM      3  C   UNL     1      46.865   4.618  13.777  0.00  0.00    +0.000 A 
ATOM      4  C   UNL     1      47.729   5.596  13.272  0.00  0.00    +0.000 A 
ATOM      5  C   UNL     1      47.291   6.454  12.263  0.00  0.00    +0.000 A 
ATOM      6  C   UNL     1      45.942   6.425  11.879  0.00  0.00    +0.000 A 
ATOM      7  C   UNL     1      45.043   5.501  12.432  0.00  0.00    +0.000 A 
ATOM      8  C   UNL     1      45.534   4.577  13.362  0.00  0.00    +0.000 A 
BRANCH   3  10
ATOM      9  C   UNL     1      47.382   4.159  16.027  0.00  0.00    +0.000 C 
ATOM     10  O   UNL     1      47.207   3.669  14.703  0.00  0.00    +0.000 OA
ENDBRANCH   3  10
BRANCH   5  11
ATOM     11  O   UNL     1      48.071   7.360  11.582  0.00  0.00    +0.000 OA
BRANCH  11  12
ATOM     12  C   UNL     1      48.765   8.360  12.341  0.00  0.00    +0.000 C 
ATOM     13  C   UNL     1      47.758   9.365  12.903  0.00  0.00    +0.000 C 
ATOM     14  C   UNL     1      47.657  10.440  11.838  0.00  0.00    +0.000 C 
ATOM     15  N   UNL     1      48.997  10.550  11.265  0.00  0.00    +0.000 NA
ATOM     16  C   UNL     1      49.676   9.261  11.491  0.00  0.00    +0.000 C 
ATOM     17  H   UNL     1      49.516  11.291  11.737  0.00  0.00    +0.000 HD
ENDBRANCH  11  12
ENDBRANCH   5  11
ENDBRANCH   1   7
BRANCH   1  18
ATOM     18  C   UNL     1      43.247   4.262  11.166  0.00  0.00    +0.000 C 
BRANCH  18  19
ATOM     19  N   UNL     1      43.511   4.521   9.753  0.00  0.00    +0.000 N 
ATOM     20  H   UNL     1      42.680   4.565   9.170  0.00  0.00    +0.000 HD
BRANCH  19  21
ATOM     21  C   UNL     1      44.579   3.909   9.099  0.00  0.00    +0.000 A 
ATOM     22  C   UNL     1      45.485   4.584   8.273  0.00  0.00    +0.000 A 
ATOM     23  C   UNL     1      46.503   3.894   7.606  0.00  0.00    +0.000 A 
ATOM     24  C   UNL     1      46.619   2.507   7.733  0.00  0.00    +0.000 A 
ATOM     25  C   UNL     1      45.693   1.812   8.510  0.00  0.00    +0.000 A 
ATOM     26  C   UNL     1      44.681   2.512   9.176  0.00  0.00    +0.000 A 
BRANCH  24  27
ATOM     27  C   UNL     1      47.710   1.819   6.993  0.00  0.00    +0.000 C 
ATOM     28  N   UNL     1      48.542   2.595   6.233  0.00  0.00    +0.000 N 
ATOM     29  O   UNL     1      47.841   0.607   7.024  0.00  0.00    +0.000 OA
ATOM     30  H   UNL     1      48.369   3.568   6.030  0.00  0.00    +0.000 HD
ATOM     31  H   UNL     1      49.225   2.104   5.671  0.00  0.00    +0.000 HD
ENDBRANCH  24  27
ENDBRANCH  19  21
ENDBRANCH  18  19
ENDBRANCH   1  18
TORSDOF 8
ENDMDL
MODEL 3
REMARK VINA RESULT:    -7.647      1.730      2.296
REMARK INTER + INTRA:         -12.385
REMARK INTER:                 -11.295
REMARK INTRA:                  -1.090
REMARK UNBOUND:                -1.161
REMARK  Name = 
REMARK  10 active torsions:
REMARK  status: ('A' for Active; 'I' for Inactive)
REMARK    1  A    between atoms: C_1  and  O_2
REMARK    2  A    between atoms: O_2  and  C_3
REMARK    3  A    between atoms: C_5  and  O_6
REMARK    4  A    between atoms: O_6  and  C_7
REMARK    5  A    between atoms: C_13  and  C_14
REMARK    6  A    between atoms: C_14  and  C_15
REMARK    7  A    between atoms: C_14  and  C_16
REMARK    8  A    between atoms: C_16  and  N_17
REMARK    9  A    between atoms: N_17  and  C_18
REMARK   10  A    between atoms: C_21  and  C_22
REMARK                            x       y       z     vdW  Elec       q    Type
REMARK                         _______ _______ _______ _____ _____    ______ ____
ROOT
ATOM      1  C   UNL     1      45.372   4.836  11.879  0.00  0.00    +0.000 C 
ATOM      2  C   UNL     1      44.789   3.909  12.956  0.00  0.00    +0.000 C 
ENDROOT
BRANCH   1   7
ATOM      3  C   UNL     1      47.588   7.915  12.391  0.00  0.00    +0.000 A 
ATOM      4  C   UNL     1      48.367   7.532  13.488  0.00  0.00    +0.000 A 
ATOM      5  C   UNL     1      48.085   6.340  14.156  0.00  0.00    +0.000 A 
ATOM      6  C   UNL     1      47.125   5.468  13.622  0.00  0.00    +0.000 A 
ATOM      7  C   UNL     1      46.387   5.803  12.476  0.00  0.00    +0.000 A 
ATOM      8  C   UNL     1      46.612   7.055  11.890  0.00  0.00    +0.000 A 
BRANCH   3  10
ATOM      9  C   UNL     1      49.017   9.669  11.740  0.00  0.00    +0.000 C 
ATOM     10  O   UNL     1      47.714   9.098  11.712  0.00  0.00    +0.000 OA
ENDBRANCH   3  10
BRANCH   5  11
ATOM     11  O   UNL     1      48.673   5.913  15.324  0.00  0.00    +0.000 OA
BRANCH  11  12
ATOM     12  C   UNL     1      49.377   6.878  16.119  0.00  0.00    +0.000 C 
ATOM     13  C   UNL     1      50.714   6.289  16.572  0.00  0.00    +0.000 C 
ATOM     14  C   UNL     1      50.407   5.624  17.901  0.00  0.00    +0.000 C 
ATOM     15  N   UNL     1      49.395   6.467  18.535  0.00  0.00    +0.000 NA
ATOM     16  C   UNL     1      48.694   7.193  17.460  0.00  0.00    +0.000 C 
ATOM     17  H   UNL     1      49.844   7.139  19.157  0.00  0.00    +0.000 HD
ENDBRANCH  11  12
ENDBRANCH   5  11
ENDBRANCH   1   7
BRANCH   1  18
ATOM     18  C   UNL     1      44.268   5.614  11.121  0.00  0.00    +0.000 C 
BRANCH  18  19
ATOM     19  N   UNL     1      43.865   4.918   9.902  0.00  0.00    +0.000 N 
ATOM     20  H   UNL     1      42.935   4.509   9.937  0.00  0.00    +0.000 HD
BRANCH  19  21
ATOM     21  C   UNL     1      44.765   4.114   9.204  0.00  0.00    +0.000 A 
ATOM     22  C   UNL     1      45.684   4.596   8.265  0.00  0.00    +0.000 A 
ATOM     23  C   UNL     1      46.521   3.722   7.563  0.00  0.00    +0.000 A 
ATOM     24  C   UNL     1      46.438   2.342   7.770  0.00  0.00    +0.000 A 
ATOM     25  C   UNL     1      45.492   1.841   8.664  0.00  0.00    +0.000 A 
ATOM     26  C   UNL     1      44.662   2.724   9.363  0.00  0.00    +0.000 A 
BRANCH  24  27
ATOM     27  C   UNL     1      47.341   1.455   6.990  0.00  0.00    +0.000 C 
ATOM     28  N   UNL     1      48.450   2.024   6.426  0.00  0.00    +0.000 N 
ATOM     29  O   UNL     1      47.089   0.274   6.820  0.00  0.00    +0.000 OA
ATOM     30  H   UNL     1      48.607   3.020   6.383  0.00  0.00    +0.000 HD
ATOM     31  H   UNL     1      49.008   1.427   5.830  0.00  0.00    +0.000 HD
ENDBRANCH  24  27
ENDBRANCH  19  21
ENDBRANCH  18  19
ENDBRANCH   1  18
TORSDOF 8
ENDMDL
MODEL 4
REMARK VINA RESULT:    -7.442      2.995      5.349
REMARK INTER + INTRA:         -12.083
REMARK INTER:                 -11.085
REMARK INTRA:                  -0.997
REMARK UNBOUND:                -1.161
REMARK  Name = 
REMARK  10 active torsions:
REMARK  status: ('A' for Active; 'I' for Inactive)
REMARK    1  A    between atoms: C_1  and  O_2
REMARK    2  A    between atoms: O_2  and  C_3
REMARK    3  A    between atoms: C_5  and  O_6
REMARK    4  A    between atoms: O_6  and  C_7
REMARK    5  A    between atoms: C_13  and  C_14
REMARK    6  A    between atoms: C_14  and  C_15
REMARK    7  A    between atoms: C_14  and  C_16
REMARK    8  A    between atoms: C_16  and  N_17
REMARK    9  A    between atoms: N_17  and  C_18
REMARK   10  A    between atoms: C_21  and  C_22
REMARK                            x       y       z     vdW  Elec       q    Type
REMARK                         _______ _______ _______ _____ _____    ______ ____
ROOT
ATOM      1  C   UNL     1      45.304   5.299  11.672  0.00  0.00    +0.000 C 
ATOM      2  C   UNL     1      45.235   4.552  13.012  0.00  0.00    +0.000 C 
ENDROOT
BRANCH   1   7
ATOM      3  C   UNL     1      47.964   8.015  12.120  0.00  0.00    +0.000 A 
ATOM      4  C   UNL     1      47.180   9.162  12.286  0.00  0.00    +0.000 A 
ATOM      5  C   UNL     1      45.798   9.089  12.112  0.00  0.00    +0.000 A 
ATOM      6  C   UNL     1      45.198   7.835  11.926  0.00  0.00    +0.000 A 
ATOM      7  C   UNL     1      45.964   6.663  11.834  0.00  0.00    +0.000 A 
ATOM      8  C   UNL     1      47.358   6.778  11.901  0.00  0.00    +0.000 A 
BRANCH   3  10
ATOM      9  C   UNL     1      49.944   9.199  12.589  0.00  0.00    +0.000 C 
ATOM     10  O   UNL     1      49.332   7.981  12.180  0.00  0.00    +0.000 OA
ENDBRANCH   3  10
BRANCH   5  11
ATOM     11  O   UNL     1      44.930  10.156  12.105  0.00  0.00    +0.000 OA
BRANCH  11  12
ATOM     12  C   UNL     1      44.899  10.995  10.942  0.00  0.00    +0.000 C 
ATOM     13  C   UNL     1      44.509  12.417  11.347  0.00  0.00    +0.000 C 
ATOM     14  C   UNL     1      42.996  12.444  11.238  0.00  0.00    +0.000 C 
ATOM     15  N   UNL     1      42.671  11.581  10.103  0.00  0.00    +0.000 NA
ATOM     16  C   UNL     1      43.787  10.630   9.944  0.00  0.00    +0.000 C 
ATOM     17  H   UNL     1      42.583  12.141   9.256  0.00  0.00    +0.000 HD
ENDBRANCH  11  12
ENDBRANCH   5  11
ENDBRANCH   1   7
BRANCH   1  18
ATOM     18  C   UNL     1      43.908   5.451  11.019  0.00  0.00    +0.000 C 
BRANCH  18  19
ATOM     19  N   UNL     1      43.532   4.250  10.276  0.00  0.00    +0.000 N 
ATOM     20  H   UNL     1      42.970   3.587  10.804  0.00  0.00    +0.000 HD
BRANCH  19  21
ATOM     21  C   UNL     1      44.441   3.615   9.433  0.00  0.00    +0.000 A 
ATOM     22  C   UNL     1      44.737   2.248   9.485  0.00  0.00    +0.000 A 
ATOM     23  C   UNL     1      45.701   1.688   8.640  0.00  0.00    +0.000 A 
ATOM     24  C   UNL     1      46.408   2.492   7.742  0.00  0.00    +0.000 A 
ATOM     25  C   UNL     1      46.163   3.864   7.713  0.00  0.00    +0.000 A 
ATOM     26  C   UNL     1      45.194   4.413   8.559  0.00  0.00    +0.000 A 
BRANCH  24  27
ATOM     27  C   UNL     1      47.432   1.850   6.875  0.00  0.00    +0.000 C 
ATOM     28  N   UNL     1      48.486   2.623   6.467  0.00  0.00    +0.000 N 
ATOM     29  O   UNL     1      47.326   0.693   6.504  0.00  0.00    +0.000 OA
ATOM     30  H   UNL     1      48.528   3.623   6.593  0.00  0.00    +0.000 HD
ATOM     31  H   UNL     1      49.128   2.198   5.812  0.00  0.00    +0.000 HD
ENDBRANCH  24  27
ENDBRANCH  19  21
ENDBRANCH  18  19
ENDBRANCH   1  18
TORSDOF 8
ENDMDL
MODEL 5
REMARK VINA RESULT:    -7.344      2.541      3.217
REMARK INTER + INTRA:         -11.939
REMARK INTER:                 -10.852
REMARK INTRA:                  -1.087
REMARK UNBOUND:                -1.161
REMARK  Name = 
REMARK  10 active torsions:
REMARK  status: ('A' for Active; 'I' for Inactive)
REMARK    1  A    between atoms: C_1  and  O_2
REMARK    2  A    between atoms: O_2  and  C_3
REMARK    3  A    between atoms: C_5  and  O_6
REMARK    4  A    between atoms: O_6  and  C_7
REMARK    5  A    between atoms: C_13  and  C_14
REMARK    6  A    between atoms: C_14  and  C_15
REMARK    7  A    between atoms: C_14  and  C_16
REMARK    8  A    between atoms: C_16  and  N_17
REMARK    9  A    between atoms: N_17  and  C_18
REMARK   10  A    between atoms: C_21  and  C_22
REMARK                            x       y       z     vdW  Elec       q    Type
REMARK                         _______ _______ _______ _____ _____    ______ ____
ROOT
ATOM      1  C   UNL     1      45.082   5.418  11.895  0.00  0.00    +0.000 C 
ATOM      2  C   UNL     1      44.809   4.571  13.148  0.00  0.00    +0.000 C 
ENDROOT
BRANCH   1   7
ATOM      3  C   UNL     1      45.572   9.211  12.069  0.00  0.00    +0.000 A 
ATOM      4  C   UNL     1      46.743   9.316  12.829  0.00  0.00    +0.000 A 
ATOM      5  C   UNL     1      47.299   8.175  13.408  0.00  0.00    +0.000 A 
ATOM      6  C   UNL     1      46.764   6.918  13.091  0.00  0.00    +0.000 A 
ATOM      7  C   UNL     1      45.635   6.788  12.267  0.00  0.00    +0.000 A 
ATOM      8  C   UNL     1      45.029   7.957  11.789  0.00  0.00    +0.000 A 
BRANCH   3  10
ATOM      9  C   UNL     1      43.732   9.910  10.778  0.00  0.00    +0.000 C 
ATOM     10  O   UNL     1      44.889  10.266  11.525  0.00  0.00    +0.000 OA
ENDBRANCH   3  10
BRANCH   5  11
ATOM     11  O   UNL     1      48.356   8.153  14.287  0.00  0.00    +0.000 OA
BRANCH  11  12
ATOM     12  C   UNL     1      49.517   7.389  13.929  0.00  0.00    +0.000 C 
ATOM     13  C   UNL     1      50.573   7.520  15.026  0.00  0.00    +0.000 C 
ATOM     14  C   UNL     1      51.406   8.719  14.613  0.00  0.00    +0.000 C 
ATOM     15  N   UNL     1      51.451   8.678  13.152  0.00  0.00    +0.000 NA
ATOM     16  C   UNL     1      50.262   7.933  12.699  0.00  0.00    +0.000 C 
ATOM     17  H   UNL     1      52.292   8.190  12.845  0.00  0.00    +0.000 HD
ENDBRANCH  11  12
ENDBRANCH   5  11
ENDBRANCH   1   7
BRANCH   1  18
ATOM     18  C   UNL     1      43.820   5.569  11.010  0.00  0.00    +0.000 C 
BRANCH  18  19
ATOM     19  N   UNL     1      43.557   4.354  10.243  0.00  0.00    +0.000 N 
ATOM     20  H   UNL     1      43.012   3.653  10.737  0.00  0.00    +0.000 HD
BRANCH  19  21
ATOM     21  C   UNL     1      44.545   3.782   9.444  0.00  0.00    +0.000 A 
ATOM     22  C   UNL     1      45.328   4.497   8.531  0.00  0.00    +0.000 A 
ATOM     23  C   UNL     1      46.266   3.846   7.722  0.00  0.00    +0.000 A 
ATOM     24  C   UNL     1      46.422   2.459   7.795  0.00  0.00    +0.000 A 
ATOM     25  C   UNL     1      45.614   1.724   8.662  0.00  0.00    +0.000 A 
ATOM     26  C   UNL     1      44.682   2.386   9.468  0.00  0.00    +0.000 A 
BRANCH  24  27
ATOM     27  C   UNL     1      47.424   1.813   6.905  0.00  0.00    +0.000 C 
ATOM     28  N   UNL     1      48.444   2.594   6.435  0.00  0.00    +0.000 N 
ATOM     29  O   UNL     1      47.326   0.645   6.570  0.00  0.00    +0.000 OA
ATOM     30  H   UNL     1      48.471   3.598   6.532  0.00  0.00    +0.000 HD
ATOM     31  H   UNL     1      49.069   2.163   5.765  0.00  0.00    +0.000 HD
ENDBRANCH  24  27
ENDBRANCH  19  21
ENDBRANCH  18  19
ENDBRANCH   1  18
TORSDOF 8
ENDMDL
MODEL 6
REMARK VINA RESULT:    -7.067      2.249      8.293
REMARK INTER + INTRA:         -11.533
REMARK INTER:                 -11.277
REMARK INTRA:                  -0.256
REMARK UNBOUND:                -1.161
REMARK  Name = 
REMARK  10 active torsions:
REMARK  status: ('A' for Active; 'I' for Inactive)
REMARK    1  A    between atoms: C_1  and  O_2
REMARK    2  A    between atoms: O_2  and  C_3
REMARK    3  A    between atoms: C_5  and  O_6
REMARK    4  A    between atoms: O_6  and  C_7
REMARK    5  A    between atoms: C_13  and  C_14
REMARK    6  A    between atoms: C_14  and  C_15
REMARK    7  A    between atoms: C_14  and  C_16
REMARK    8  A    between atoms: C_16  and  N_17
REMARK    9  A    between atoms: N_17  and  C_18
REMARK   10  A    between atoms: C_21  and  C_22
REMARK                            x       y       z     vdW  Elec       q    Type
REMARK                         _______ _______ _______ _____ _____    ______ ____
ROOT
ATOM      1  C   UNL     1      46.186   6.805  11.412  0.00  0.00    +0.000 C 
ATOM      2  C   UNL     1      45.040   7.515  12.148  0.00  0.00    +0.000 C 
ENDROOT
BRANCH   1   7
ATOM      3  C   UNL     1      44.249   3.682  10.340  0.00  0.00    +0.000 A 
ATOM      4  C   UNL     1      44.812   3.408   9.089  0.00  0.00    +0.000 A 
ATOM      5  C   UNL     1      45.716   4.308   8.523  0.00  0.00    +0.000 A 
ATOM      6  C   UNL     1      46.165   5.396   9.286  0.00  0.00    +0.000 A 
ATOM      7  C   UNL     1      45.667   5.643  10.574  0.00  0.00    +0.000 A 
ATOM      8  C   UNL     1      44.678   4.788  11.074  0.00  0.00    +0.000 A 
BRANCH   3  10
ATOM      9  C   UNL     1      43.378   2.881  12.375  0.00  0.00    +0.000 C 
ATOM     10  O   UNL     1      43.290   2.921  10.955  0.00  0.00    +0.000 OA
ENDBRANCH   3  10
BRANCH   5  11
ATOM     11  O   UNL     1      46.234   4.236   7.251  0.00  0.00    +0.000 OA
BRANCH  11  12
ATOM     12  C   UNL     1      46.169   2.977   6.565  0.00  0.00    +0.000 C 
ATOM     13  C   UNL     1      46.909   1.913   7.376  0.00  0.00    +0.000 C 
ATOM     14  C   UNL     1      48.335   1.963   6.860  0.00  0.00    +0.000 C 
ATOM     15  N   UNL     1      48.224   2.266   5.434  0.00  0.00    +0.000 NA
ATOM     16  C   UNL     1      46.937   2.958   5.233  0.00  0.00    +0.000 C 
ATOM     17  H   UNL     1      48.228   1.401   4.895  0.00  0.00    +0.000 HD
ENDBRANCH  11  12
ENDBRANCH   5  11
ENDBRANCH   1   7
BRANCH   1  18
ATOM     18  C   UNL     1      47.287   6.316  12.386  0.00  0.00    +0.000 C 
BRANCH  18  19
ATOM     19  N   UNL     1      46.781   5.285  13.289  0.00  0.00    +0.000 N 
ATOM     20  H   UNL     1      45.773   5.165  13.269  0.00  0.00    +0.000 HD
BRANCH  19  21
ATOM     21  C   UNL     1      47.302   5.138  14.573  0.00  0.00    +0.000 A 
ATOM     22  C   UNL     1      48.145   6.069  15.191  0.00  0.00    +0.000 A 
ATOM     23  C   UNL     1      48.673   5.830  16.464  0.00  0.00    +0.000 A 
ATOM     24  C   UNL     1      48.387   4.638  17.136  0.00  0.00    +0.000 A 
ATOM     25  C   UNL     1      47.592   3.676  16.514  0.00  0.00    +0.000 A 
ATOM     26  C   UNL     1      47.066   3.928  15.242  0.00  0.00    +0.000 A 
BRANCH  24  27
ATOM     27  C   UNL     1      48.984   4.425  18.481  0.00  0.00    +0.000 C 
ATOM     28  N   UNL     1      48.400   3.486  19.288  0.00  0.00    +0.000 N 
ATOM     29  O   UNL     1      49.931   5.085  18.875  0.00  0.00    +0.000 OA
ATOM     30  H   UNL     1      47.515   3.046  19.084  0.00  0.00    +0.000 HD
ATOM     31  H   UNL     1      48.764   3.412  20.228  0.00  0.00    +0.000 HD
ENDBRANCH  24  27
ENDBRANCH  19  21
ENDBRANCH  18  19
ENDBRANCH   1  18
TORSDOF 8
ENDMDL
MODEL 7
REMARK VINA RESULT:    -6.668      3.060      4.901
REMARK INTER + INTRA:         -10.948
REMARK INTER:                  -9.729
REMARK INTRA:                  -1.219
REMARK UNBOUND:                -1.161
REMARK  Name = 
REMARK  10 active torsions:
REMARK  status: ('A' for Active; 'I' for Inactive)
REMARK    1  A    between atoms: C_1  and  O_2
REMARK    2  A    between atoms: O_2  and  C_3
REMARK    3  A    between atoms: C_5  and  O_6
REMARK    4  A    between atoms: O_6  and  C_7
REMARK    5  A    between atoms: C_13  and  C_14
REMARK    6  A    between atoms: C_14  and  C_15
REMARK    7  A    between atoms: C_14  and  C_16
REMARK    8  A    between atoms: C_16  and  N_17
REMARK    9  A    between atoms: N_17  and  C_18
REMARK   10  A    between atoms: C_21  and  C_22
REMARK                            x       y       z     vdW  Elec       q    Type
REMARK                         _______ _______ _______ _____ _____    ______ ____
ROOT
ATOM      1  C   UNL     1      48.224   8.548  12.806  0.00  0.00    +0.000 C 
ATOM      2  C   UNL     1      48.866   7.467  11.923  0.00  0.00    +0.000 C 
ENDROOT
BRANCH   1   7
ATOM      3  C   UNL     1      48.477   8.958  16.603  0.00  0.00    +0.000 A 
ATOM      4  C   UNL     1      48.884   7.681  17.005  0.00  0.00    +0.000 A 
ATOM      5  C   UNL     1      48.940   6.646  16.073  0.00  0.00    +0.000 A 
ATOM      6  C   UNL     1      48.738   6.937  14.715  0.00  0.00    +0.000 A 
ATOM      7  C   UNL     1      48.404   8.230  14.285  0.00  0.00    +0.000 A 
ATOM      8  C   UNL     1      48.244   9.227  15.255  0.00  0.00    +0.000 A 
BRANCH   3  10
ATOM      9  C   UNL     1      49.178  10.063  18.560  0.00  0.00    +0.000 C 
ATOM     10  O   UNL     1      48.300  10.028  17.441  0.00  0.00    +0.000 OA
ENDBRANCH   3  10
BRANCH   5  11
ATOM     11  O   UNL     1      49.185   5.322  16.353  0.00  0.00    +0.000 OA
BRANCH  11  12
ATOM     12  C   UNL     1      48.710   4.796  17.601  0.00  0.00    +0.000 C 
ATOM     13  C   UNL     1      49.163   3.343  17.749  0.00  0.00    +0.000 C 
ATOM     14  C   UNL     1      48.040   2.528  17.137  0.00  0.00    +0.000 C 
ATOM     15  N   UNL     1      46.811   3.252  17.459  0.00  0.00    +0.000 NA
ATOM     16  C   UNL     1      47.179   4.664  17.675  0.00  0.00    +0.000 C 
ATOM     17  H   UNL     1      46.402   2.877  18.314  0.00  0.00    +0.000 HD
ENDBRANCH  11  12
ENDBRANCH   5  11
ENDBRANCH   1   7
BRANCH   1  18
ATOM     18  C   UNL     1      46.723   8.751  12.478  0.00  0.00    +0.000 C 
BRANCH  18  19
ATOM     19  N   UNL     1      45.884   7.808  13.214  0.00  0.00    +0.000 N 
ATOM     20  H   UNL     1      46.153   7.673  14.185  0.00  0.00    +0.000 HD
BRANCH  19  21
ATOM     21  C   UNL     1      45.445   6.625  12.622  0.00  0.00    +0.000 A 
ATOM     22  C   UNL     1      44.681   6.570  11.451  0.00  0.00    +0.000 A 
ATOM     23  C   UNL     1      44.230   5.347  10.943  0.00  0.00    +0.000 A 
ATOM     24  C   UNL     1      44.513   4.154  11.614  0.00  0.00    +0.000 A 
ATOM     25  C   UNL     1      45.228   4.196  12.810  0.00  0.00    +0.000 A 
ATOM     26  C   UNL     1      45.678   5.424  13.307  0.00  0.00    +0.000 A 
BRANCH  24  27
ATOM     27  C   UNL     1      44.000   2.882  11.040  0.00  0.00    +0.000 C 
ATOM     28  N   UNL     1      44.703   2.328  10.005  0.00  0.00    +0.000 N 
ATOM     29  O   UNL     1      42.971   2.366  11.443  0.00  0.00    +0.000 OA
ATOM     30  H   UNL     1      45.450   2.802   9.519  0.00  0.00    +0.000 HD
ATOM     31  H   UNL     1      44.296   1.510   9.572  0.00  0.00    +0.000 HD
ENDBRANCH  24  27
ENDBRANCH  19  21
ENDBRANCH  18  19
ENDBRANCH   1  18
TORSDOF 8
ENDMDL
MODEL 8
REMARK VINA RESULT:    -6.250      3.203      7.493
REMARK INTER + INTRA:         -10.334
REMARK INTER:                  -8.999
REMARK INTRA:                  -1.335
REMARK UNBOUND:                -1.161
REMARK  Name = 
REMARK  10 active torsions:
REMARK  status: ('A' for Active; 'I' for Inactive)
REMARK    1  A    between atoms: C_1  and  O_2
REMARK    2  A    between atoms: O_2  and  C_3
REMARK    3  A    between atoms: C_5  and  O_6
REMARK    4  A    between atoms: O_6  and  C_7
REMARK    5  A    between atoms: C_13  and  C_14
REMARK    6  A    between atoms: C_14  and  C_15
REMARK    7  A    between atoms: C_14  and  C_16
REMARK    8  A    between atoms: C_16  and  N_17
REMARK    9  A    between atoms: N_17  and  C_18
REMARK   10  A    between atoms: C_21  and  C_22
REMARK                            x       y       z     vdW  Elec       q    Type
REMARK                         _______ _______ _______ _____ _____    ______ ____
ROOT
ATOM      1  C   UNL     1      48.916   8.432  12.546  0.00  0.00    +0.000 C 
ATOM      2  C   UNL     1      49.666   9.442  11.664  0.00  0.00    +0.000 C 
ENDROOT
BRANCH   1   7
ATOM      3  C   UNL     1      45.274   9.482  12.009  0.00  0.00    +0.000 A 
ATOM      4  C   UNL     1      44.668   8.265  11.676  0.00  0.00    +0.000 A 
ATOM      5  C   UNL     1      45.455   7.129  11.484  0.00  0.00    +0.000 A 
ATOM      6  C   UNL     1      46.825   7.188  11.780  0.00  0.00    +0.000 A 
ATOM      7  C   UNL     1      47.435   8.383  12.189  0.00  0.00    +0.000 A 
ATOM      8  C   UNL     1      46.643   9.536  12.266  0.00  0.00    +0.000 A 
BRANCH   3  10
ATOM      9  C   UNL     1      45.237  11.775  11.477  0.00  0.00    +0.000 C 
ATOM     10  O   UNL     1      44.618  10.677  12.138  0.00  0.00    +0.000 OA
ENDBRANCH   3  10
BRANCH   5  11
ATOM     11  O   UNL     1      45.011   5.912  11.021  0.00  0.00    +0.000 OA
BRANCH  11  12
ATOM     12  C   UNL     1      44.078   5.180  11.828  0.00  0.00    +0.000 C 
ATOM     13  C   UNL     1      44.826   4.476  12.962  0.00  0.00    +0.000 C 
ATOM     14  C   UNL     1      45.188   3.117  12.394  0.00  0.00    +0.000 C 
ATOM     15  N   UNL     1      44.074   2.748  11.522  0.00  0.00    +0.000 NA
ATOM     16  C   UNL     1      43.419   3.999  11.097  0.00  0.00    +0.000 C 
ATOM     17  H   UNL     1      43.405   2.177  12.037  0.00  0.00    +0.000 HD
ENDBRANCH  11  12
ENDBRANCH   5  11
ENDBRANCH   1   7
BRANCH   1  18
ATOM     18  C   UNL     1      49.097   8.732  14.054  0.00  0.00    +0.000 C 
BRANCH  18  19
ATOM     19  N   UNL     1      49.941   7.730  14.700  0.00  0.00    +0.000 N 
ATOM     20  H   UNL     1      50.752   7.448  14.156  0.00  0.00    +0.000 HD
BRANCH  19  21
ATOM     21  C   UNL     1      49.381   6.662  15.398  0.00  0.00    +0.000 A 
ATOM     22  C   UNL     1      48.177   6.039  15.048  0.00  0.00    +0.000 A 
ATOM     23  C   UNL     1      47.648   5.005  15.827  0.00  0.00    +0.000 A 
ATOM     24  C   UNL     1      48.301   4.590  16.991  0.00  0.00    +0.000 A 
ATOM     25  C   UNL     1      49.473   5.235  17.384  0.00  0.00    +0.000 A 
ATOM     26  C   UNL     1      49.996   6.265  16.594  0.00  0.00    +0.000 A 
BRANCH  24  27
ATOM     27  C   UNL     1      47.690   3.497  17.793  0.00  0.00    +0.000 C 
ATOM     28  N   UNL     1      48.329   3.128  18.945  0.00  0.00    +0.000 N 
ATOM     29  O   UNL     1      46.682   2.918  17.425  0.00  0.00    +0.000 OA
ATOM     30  H   UNL     1      49.253   3.445  19.199  0.00  0.00    +0.000 HD
ATOM     31  H   UNL     1      47.949   2.328  19.434  0.00  0.00    +0.000 HD
ENDBRANCH  24  27
ENDBRANCH  19  21
ENDBRANCH  18  19
ENDBRANCH   1  18
TORSDOF 8
ENDMDL
MODEL 9
REMARK VINA RESULT:    -5.987      3.476      6.867
REMARK INTER + INTRA:          -9.947
REMARK INTER:                  -8.453
REMARK INTRA:                  -1.495
REMARK UNBOUND:                -1.161
REMARK  Name = 
REMARK  10 active torsions:
REMARK  status: ('A' for Active; 'I' for Inactive)
REMARK    1  A    between atoms: C_1  and  O_2
REMARK    2  A    between atoms: O_2  and  C_3
REMARK    3  A    between atoms: C_5  and  O_6
REMARK    4  A    between atoms: O_6  and  C_7
REMARK    5  A    between atoms: C_13  and  C_14
REMARK    6  A    between atoms: C_14  and  C_15
REMARK    7  A    between atoms: C_14  and  C_16
REMARK    8  A    between atoms: C_16  and  N_17
REMARK    9  A    between atoms: N_17  and  C_18
REMARK   10  A    between atoms: C_21  and  C_22
REMARK                            x       y       z     vdW  Elec       q    Type
REMARK                         _______ _______ _______ _____ _____    ______ ____
ROOT
ATOM      1  C   UNL     1      48.899   8.692  13.727  0.00  0.00    +0.000 C 
ATOM      2  C   UNL     1      48.201   8.825  15.089  0.00  0.00    +0.000 C 
ENDROOT
BRANCH   1   7
ATOM      3  C   UNL     1      48.468  11.119  10.798  0.00  0.00    +0.000 A 
ATOM      4  C   UNL     1      47.101  11.411  10.863  0.00  0.00    +0.000 A 
ATOM      5  C   UNL     1      46.286  10.719  11.759  0.00  0.00    +0.000 A 
ATOM      6  C   UNL     1      46.877   9.852  12.690  0.00  0.00    +0.000 A 
ATOM      7  C   UNL     1      48.258   9.605  12.689  0.00  0.00    +0.000 A 
ATOM      8  C   UNL     1      49.038  10.228  11.706  0.00  0.00    +0.000 A 
BRANCH   3  10
ATOM      9  C   UNL     1      50.716  11.361  10.143  0.00  0.00    +0.000 C 
ATOM     10  O   UNL     1      49.348  11.668   9.903  0.00  0.00    +0.000 OA
ENDBRANCH   3  10
BRANCH   5  11
ATOM     11  O   UNL     1      44.915  10.803  11.831  0.00  0.00    +0.000 OA
BRANCH  11  12
ATOM     12  C   UNL     1      44.156  10.486  10.655  0.00  0.00    +0.000 C 
ATOM     13  C   UNL     1      42.974  11.449  10.535  0.00  0.00    +0.000 C 
ATOM     14  C   UNL     1      41.846  10.762  11.281  0.00  0.00    +0.000 C 
ATOM     15  N   UNL     1      42.027   9.332  11.034  0.00  0.00    +0.000 NA
ATOM     16  C   UNL     1      43.453   9.120  10.722  0.00  0.00    +0.000 C 
ATOM     17  H   UNL     1      41.462   9.044  10.236  0.00  0.00    +0.000 HD
ENDBRANCH  11  12
ENDBRANCH   5  11
ENDBRANCH   1   7
BRANCH   1  18
ATOM     18  C   UNL     1      48.912   7.228  13.222  0.00  0.00    +0.000 C 
BRANCH  18  19
ATOM     19  N   UNL     1      47.830   6.448  13.818  0.00  0.00    +0.000 N 
ATOM     20  H   UNL     1      48.114   5.861  14.597  0.00  0.00    +0.000 HD
BRANCH  19  21
ATOM     21  C   UNL     1      46.865   5.834  13.022  0.00  0.00    +0.000 A 
ATOM     22  C   UNL     1      46.218   4.638  13.354  0.00  0.00    +0.000 A 
ATOM     23  C   UNL     1      45.297   4.051  12.480  0.00  0.00    +0.000 A 
ATOM     24  C   UNL     1      45.024   4.637  11.242  0.00  0.00    +0.000 A 
ATOM     25  C   UNL     1      45.699   5.801  10.872  0.00  0.00    +0.000 A 
ATOM     26  C   UNL     1      46.614   6.381  11.756  0.00  0.00    +0.000 A 
BRANCH  24  27
ATOM     27  C   UNL     1      44.047   3.967  10.343  0.00  0.00    +0.000 C 
ATOM     28  N   UNL     1      44.006   4.378   9.038  0.00  0.00    +0.000 N 
ATOM     29  O   UNL     1      43.280   3.111  10.753  0.00  0.00    +0.000 OA
ATOM     30  H   UNL     1      44.485   5.198   8.695  0.00  0.00    +0.000 HD
ATOM     31  H   UNL     1      43.281   3.973   8.461  0.00  0.00    +0.000 HD
ENDBRANCH  24  27
ENDBRANCH  19  21
ENDBRANCH  18  19
ENDBRANCH   1  18
TORSDOF 8
ENDMDL
