MODEL 1
REMARK VINA RESULT:    -8.446      0.000      0.000
REMARK INTER + INTRA:         -12.739
REMARK INTER:                 -11.902
REMARK INTRA:                  -0.838
REMARK UNBOUND:                -0.838
REMARK  Name = 
REMARK  7 active torsions:
REMARK  status: ('A' for Active; 'I' for Inactive)
REMARK    1  A    between atoms: C_2  and  C_20
REMARK    2  A    between atoms: N_3  and  C_4
REMARK    3  A    between atoms: C_4  and  C_5
REMARK    4  A    between atoms: C_8  and  N_9
REMARK    5  A    between atoms: N_9  and  C_10
REMARK    6  A    between atoms: C_10  and  C_11
REMARK    7  A    between atoms: C_11  and  C_12
REMARK                            x       y       z     vdW  Elec       q    Type
REMARK                         _______ _______ _______ _____ _____    ______ ____
ROOT
ATOM      1  C   UNL     1      46.909   5.961  13.339  0.00  0.00    +0.000 A 
ATOM      2  C   UNL     1      46.024   4.963  13.761  0.00  0.00    +0.000 A 
ATOM      3  C   UNL     1      45.005   4.508  12.916  0.00  0.00    +0.000 A 
ATOM      4  C   UNL     1      44.823   5.052  11.642  0.00  0.00    +0.000 A 
ATOM      5  C   UNL     1      45.758   5.984  11.191  0.00  0.00    +0.000 A 
ATOM      6  C   UNL     1      46.782   6.446  12.031  0.00  0.00    +0.000 A 
ENDROOT
BRANCH   4   7
ATOM      7  N   UNL     1      43.749   4.729  10.789  0.00  0.00    +0.000 N 
ATOM      8  H   UNL     1      43.066   5.482  10.748  0.00  0.00    +0.000 HD
BRANCH   7   9
ATOM      9  C   UNL     1      44.096   4.178   9.464  0.00  0.00    +0.000 C 
BRANCH   9  10
ATOM     10  C   UNL     1      44.670   2.752   9.566  0.00  0.00    +0.000 C 
BRANCH  10  11
ATOM     11  C   UNL     1      45.637   2.444   8.448  0.00  0.00    +0.000 A 
ATOM     12  C   UNL     1      45.965   3.403   7.489  0.00  0.00    +0.000 A 
ATOM     13  C   UNL     1      46.870   3.071   6.480  0.00  0.00    +0.000 A 
ATOM     14  C   UNL     1      47.410   1.792   6.439  0.00  0.00    +0.000 A 
ATOM     15  C   UNL     1      47.012   0.894   7.411  0.00  0.00    +0.000 A 
ATOM     16  N   UNL     1      46.143   1.182   8.396  0.00  0.00    +0.000 NA
ENDBRANCH  10  11
ENDBRANCH   9  10
ENDBRANCH   7   9
ENDBRANCH   4   7
BRANCH   1  17
ATOM     17  C   UNL     1      47.957   6.496  14.280  0.00  0.00    +0.000 C 
BRANCH  17  20
ATOM     18  O   UNL     1      50.185   6.253  16.034  0.00  0.00    +0.000 OA
ATOM     19  C   UNL     1      49.112   5.713  16.319  0.00  0.00    +0.000 C 
ATOM     20  N   UNL     1      47.999   5.773  15.517  0.00  0.00    +0.000 N 
ATOM     21  H   UNL     1      47.138   5.397  15.923  0.00  0.00    +0.000 HD
BRANCH  19  22
ATOM     22  C   UNL     1      48.919   4.897  17.532  0.00  0.00    +0.000 A 
ATOM     23  N   UNL     1      49.376   3.622  17.617  0.00  0.00    +0.000 NA
ATOM     24  N   UNL     1      49.207   3.309  18.921  0.00  0.00    +0.000 N 
ATOM     25  C   UNL     1      48.683   4.324  19.668  0.00  0.00    +0.000 A 
ATOM     26  N   UNL     1      48.523   4.334  21.007  0.00  0.00    +0.000 NA
ATOM     27  C   UNL     1      47.996   5.502  21.454  0.00  0.00    +0.000 A 
ATOM     28  C   UNL     1      47.564   6.556  20.658  0.00  0.00    +0.000 A 
ATOM     29  C   UNL     1      47.727   6.474  19.275  0.00  0.00    +0.000 A 
ATOM     30  C   UNL     1      48.367   5.328  18.772  0.00  0.00    +0.000 A 
ATOM     31  H   UNL     1      49.511   2.406  19.262  0.00  0.00    +0.000 HD
ENDBRANCH  19  22
ENDBRANCH  17  20
ENDBRANCH   1  17
TORSDOF 7
ENDMDL
MODEL 2
REMARK VINA RESULT:    -7.774      1.355      1.900
REMARK INTER + INTRA:         -11.793
REMARK INTER:                 -10.834
REMARK INTRA:                  -0.959
REMARK UNBOUND:                -0.838
REMARK  Name = 
REMARK  7 active torsions:
REMARK  status: ('A' for Active; 'I' for Inactive)
REMARK    1  A    between atoms: C_2  and  C_20
REMARK    2  A    between atoms: N_3  and  C_4
REMARK    3  A    between atoms: C_4  and  C_5
REMARK    4  A    between atoms: C_8  and  N_9
REMARK    5  A    between atoms: N_9  and  C_10
REMARK    6  A    between atoms: C_10  and  C_11
REMARK    7  A    between atoms: C_11  and  C_12
REMARK                            x       y       z     vdW  Elec       q    Type
REMARK                         _______ _______ _______ _____ _____    ______ ____
ROOT
ATOM      1  C   UNL     1      46.891   6.456  12.796  0.00  0.00    +0.000 A 
ATOM      2  C   UNL     1      46.698   5.247  13.472  0.00  0.00    +0.000 A 
ATOM      3  C   UNL     1      45.817   4.281  12.972  0.00  0.00    +0.000 A 
ATOM      4  C   UNL     1      45.087   4.503  11.801  0.00  0.00    +0.000 A 
ATOM      5  C   UNL     1      45.345   5.670  11.082  0.00  0.00    +0.000 A 
ATOM      6  C   UNL     1      46.225   6.644  11.578  0.00  0.00    +0.000 A 
ENDROOT
BRANCH   4   7
ATOM      7  N   UNL     1      44.098   3.629  11.307  0.00  0.00    +0.000 N 
ATOM      8  H   UNL     1      43.181   3.851  11.688  0.00  0.00    +0.000 HD
BRANCH   7   9
ATOM      9  C   UNL     1      44.088   3.394   9.850  0.00  0.00    +0.000 C 
BRANCH   9  10
ATOM     10  C   UNL     1      44.727   2.042   9.481  0.00  0.00    +0.000 C 
BRANCH  10  11
ATOM     11  C   UNL     1      45.738   2.173   8.366  0.00  0.00    +0.000 A 
ATOM     12  C   UNL     1      45.871   3.360   7.645  0.00  0.00    +0.000 A 
ATOM     13  C   UNL     1      46.825   3.433   6.630  0.00  0.00    +0.000 A 
ATOM     14  C   UNL     1      47.608   2.321   6.344  0.00  0.00    +0.000 A 
ATOM     15  C   UNL     1      47.394   1.177   7.088  0.00  0.00    +0.000 A 
ATOM     16  N   UNL     1      46.484   1.074   8.073  0.00  0.00    +0.000 NA
ENDBRANCH  10  11
ENDBRANCH   9  10
ENDBRANCH   7   9
ENDBRANCH   4   7
BRANCH   1  17
ATOM     17  C   UNL     1      47.784   7.520  13.379  0.00  0.00    +0.000 C 
BRANCH  17  20
ATOM     18  O   UNL     1      50.224   6.997  14.746  0.00  0.00    +0.000 OA
ATOM     19  C   UNL     1      49.175   7.131  15.383  0.00  0.00    +0.000 C 
ATOM     20  N   UNL     1      47.958   7.370  14.794  0.00  0.00    +0.000 N 
ATOM     21  H   UNL     1      47.190   7.590  15.434  0.00  0.00    +0.000 HD
BRANCH  19  22
ATOM     22  C   UNL     1      49.101   6.999  16.851  0.00  0.00    +0.000 A 
ATOM     23  N   UNL     1      48.915   8.074  17.657  0.00  0.00    +0.000 NA
ATOM     24  N   UNL     1      48.685   7.525  18.871  0.00  0.00    +0.000 N 
ATOM     25  C   UNL     1      48.700   6.161  18.871  0.00  0.00    +0.000 A 
ATOM     26  N   UNL     1      48.383   5.355  19.905  0.00  0.00    +0.000 NA
ATOM     27  C   UNL     1      48.473   4.041  19.580  0.00  0.00    +0.000 A 
ATOM     28  C   UNL     1      48.927   3.532  18.370  0.00  0.00    +0.000 A 
ATOM     29  C   UNL     1      49.270   4.416  17.347  0.00  0.00    +0.000 A 
ATOM     30  C   UNL     1      49.092   5.787  17.599  0.00  0.00    +0.000 A 
ATOM     31  H   UNL     1      48.473   8.124  19.659  0.00  0.00    +0.000 HD
ENDBRANCH  19  22
ENDBRANCH  17  20
ENDBRANCH   1  17
TORSDOF 7
ENDMDL
MODEL 3
REMARK VINA RESULT:    -7.534      2.161      2.912
REMARK INTER + INTRA:         -11.454
REMARK INTER:                 -10.721
REMARK INTRA:                  -0.733
REMARK UNBOUND:                -0.838
REMARK  Name = 
REMARK  7 active torsions:
REMARK  status: ('A' for Active; 'I' for Inactive)
REMARK    1  A    between atoms: C_2  and  C_20
REMARK    2  A    between atoms: N_3  and  C_4
REMARK    3  A    between atoms: C_4  and  C_5
REMARK    4  A    between atoms: C_8  and  N_9
REMARK    5  A    between atoms: N_9  and  C_10
REMARK    6  A    between atoms: C_10  and  C_11
REMARK    7  A    between atoms: C_11  and  C_12
REMARK                            x       y       z     vdW  Elec       q    Type
REMARK                         _______ _______ _______ _____ _____    ______ ____
ROOT
ATOM      1  C   UNL     1      47.295   6.418  13.865  0.00  0.00    +0.000 A 
ATOM      2  C   UNL     1      47.210   7.416  12.889  0.00  0.00    +0.000 A 
ATOM      3  C   UNL     1      46.470   7.211  11.719  0.00  0.00    +0.000 A 
ATOM      4  C   UNL     1      45.816   6.000  11.478  0.00  0.00    +0.000 A 
ATOM      5  C   UNL     1      45.828   5.039  12.490  0.00  0.00    +0.000 A 
ATOM      6  C   UNL     1      46.569   5.237  13.665  0.00  0.00    +0.000 A 
ENDROOT
BRANCH   4   7
ATOM      7  N   UNL     1      45.155   5.682  10.275  0.00  0.00    +0.000 N 
ATOM      8  H   UNL     1      45.668   6.027   9.467  0.00  0.00    +0.000 HD
BRANCH   7   9
ATOM      9  C   UNL     1      44.685   4.291  10.123  0.00  0.00    +0.000 C 
BRANCH   9  10
ATOM     10  C   UNL     1      44.419   3.931   8.649  0.00  0.00    +0.000 C 
BRANCH  10  11
ATOM     11  C   UNL     1      45.552   3.140   8.040  0.00  0.00    +0.000 A 
ATOM     12  C   UNL     1      45.745   1.794   8.352  0.00  0.00    +0.000 A 
ATOM     13  C   UNL     1      46.802   1.105   7.757  0.00  0.00    +0.000 A 
ATOM     14  C   UNL     1      47.649   1.774   6.882  0.00  0.00    +0.000 A 
ATOM     15  C   UNL     1      47.403   3.113   6.648  0.00  0.00    +0.000 A 
ATOM     16  N   UNL     1      46.394   3.806   7.205  0.00  0.00    +0.000 NA
ENDBRANCH  10  11
ENDBRANCH   9  10
ENDBRANCH   7   9
ENDBRANCH   4   7
BRANCH   1  17
ATOM     17  C   UNL     1      48.153   6.619  15.087  0.00  0.00    +0.000 C 
BRANCH  17  20
ATOM     18  O   UNL     1      47.781   5.350  17.606  0.00  0.00    +0.000 OA
ATOM     19  C   UNL     1      48.522   4.840  16.761  0.00  0.00    +0.000 C 
ATOM     20  N   UNL     1      48.763   5.400  15.530  0.00  0.00    +0.000 N 
ATOM     21  H   UNL     1      49.290   4.819  14.874  0.00  0.00    +0.000 HD
BRANCH  19  22
ATOM     22  C   UNL     1      49.276   3.594  16.997  0.00  0.00    +0.000 A 
ATOM     23  N   UNL     1      48.905   2.416  16.434  0.00  0.00    +0.000 NA
ATOM     24  N   UNL     1      49.944   1.594  16.702  0.00  0.00    +0.000 N 
ATOM     25  C   UNL     1      50.958   2.194  17.391  0.00  0.00    +0.000 A 
ATOM     26  N   UNL     1      52.158   1.653  17.683  0.00  0.00    +0.000 NA
ATOM     27  C   UNL     1      52.960   2.514  18.358  0.00  0.00    +0.000 A 
ATOM     28  C   UNL     1      52.601   3.779  18.805  0.00  0.00    +0.000 A 
ATOM     29  C   UNL     1      51.332   4.273  18.498  0.00  0.00    +0.000 A 
ATOM     30  C   UNL     1      50.502   3.459  17.708  0.00  0.00    +0.000 A 
ATOM     31  H   UNL     1      49.934   0.645  16.350  0.00  0.00    +0.000 HD
ENDBRANCH  19  22
ENDBRANCH  17  20
ENDBRANCH   1  17
TORSDOF 7
ENDMDL
MODEL 4
REMARK VINA RESULT:    -7.045      1.888      2.351
REMARK INTER + INTRA:         -10.765
REMARK INTER:                 -10.013
REMARK INTRA:                  -0.753
REMARK UNBOUND:                -0.838
REMARK  Name = 
REMARK  7 active torsions:
REMARK  status: ('A' for Active; 'I' for Inactive)
REMARK    1  A    between atoms: C_2  and  C_20
REMARK    2  A    between atoms: N_3  and  C_4
REMARK    3  A    between atoms: C_4  and  C_5
REMARK    4  A    between atoms: C_8  and  N_9
REMARK    5  A    between atoms: N_9  and  C_10
REMARK    6  A    between atoms: C_10  and  C_11
REMARK    7  A    between atoms: C_11  and  C_12
REMARK                            x       y       z     vdW  Elec       q    Type
REMARK                         _______ _______ _______ _____ _____    ______ ____
ROOT
ATOM      1  C   UNL     1      46.340   7.483  12.890  0.00  0.00    +0.000 A 
ATOM      2  C   UNL     1      45.353   8.158  12.163  0.00  0.00    +0.000 A 
ATOM      3  C   UNL     1      44.397   7.449  11.428  0.00  0.00    +0.000 A 
ATOM      4  C   UNL     1      44.412   6.052  11.374  0.00  0.00    +0.000 A 
ATOM      5  C   UNL     1      45.342   5.380  12.168  0.00  0.00    +0.000 A 
ATOM      6  C   UNL     1      46.305   6.083  12.907  0.00  0.00    +0.000 A 
ENDROOT
BRANCH   4   7
ATOM      7  N   UNL     1      43.558   5.281  10.562  0.00  0.00    +0.000 N 
ATOM      8  H   UNL     1      43.052   5.862   9.898  0.00  0.00    +0.000 HD
BRANCH   7   9
ATOM      9  C   UNL     1      44.135   4.064   9.957  0.00  0.00    +0.000 C 
BRANCH   9  10
ATOM     10  C   UNL     1      44.529   4.285   8.484  0.00  0.00    +0.000 C 
BRANCH  10  11
ATOM     11  C   UNL     1      45.560   3.288   8.013  0.00  0.00    +0.000 A 
ATOM     12  C   UNL     1      45.558   1.970   8.473  0.00  0.00    +0.000 A 
ATOM     13  C   UNL     1      46.527   1.085   8.001  0.00  0.00    +0.000 A 
ATOM     14  C   UNL     1      47.484   1.535   7.100  0.00  0.00    +0.000 A 
ATOM     15  C   UNL     1      47.431   2.861   6.715  0.00  0.00    +0.000 A 
ATOM     16  N   UNL     1      46.511   3.740   7.151  0.00  0.00    +0.000 NA
ENDBRANCH  10  11
ENDBRANCH   9  10
ENDBRANCH   7   9
ENDBRANCH   4   7
BRANCH   1  17
ATOM     17  C   UNL     1      47.410   8.254  13.619  0.00  0.00    +0.000 C 
BRANCH  17  20
ATOM     18  O   UNL     1      49.839   6.948  14.319  0.00  0.00    +0.000 OA
ATOM     19  C   UNL     1      48.938   7.066  15.154  0.00  0.00    +0.000 C 
ATOM     20  N   UNL     1      47.734   7.670  14.887  0.00  0.00    +0.000 N 
ATOM     21  H   UNL     1      47.123   7.819  15.694  0.00  0.00    +0.000 HD
BRANCH  19  22
ATOM     22  C   UNL     1      49.033   6.525  16.523  0.00  0.00    +0.000 A 
ATOM     23  N   UNL     1      48.475   5.336  16.863  0.00  0.00    +0.000 NA
ATOM     24  N   UNL     1      48.962   5.098  18.102  0.00  0.00    +0.000 N 
ATOM     25  C   UNL     1      49.810   6.066  18.555  0.00  0.00    +0.000 A 
ATOM     26  N   UNL     1      50.532   6.030  19.694  0.00  0.00    +0.000 NA
ATOM     27  C   UNL     1      51.301   7.136  19.852  0.00  0.00    +0.000 A 
ATOM     28  C   UNL     1      51.307   8.248  19.018  0.00  0.00    +0.000 A 
ATOM     29  C   UNL     1      50.515   8.239  17.869  0.00  0.00    +0.000 A 
ATOM     30  C   UNL     1      49.781   7.070  17.606  0.00  0.00    +0.000 A 
ATOM     31  H   UNL     1      48.724   4.236  18.575  0.00  0.00    +0.000 HD
ENDBRANCH  19  22
ENDBRANCH  17  20
ENDBRANCH   1  17
TORSDOF 7
ENDMDL
MODEL 5
REMARK VINA RESULT:    -6.837      4.312      6.585
REMARK INTER + INTRA:         -10.473
REMARK INTER:                  -9.609
REMARK INTRA:                  -0.863
REMARK UNBOUND:                -0.838
REMARK  Name = 
REMARK  7 active torsions:
REMARK  status: ('A' for Active; 'I' for Inactive)
REMARK    1  A    between atoms: C_2  and  C_20
REMARK    2  A    between atoms: N_3  and  C_4
REMARK    3  A    between atoms: C_4  and  C_5
REMARK    4  A    between atoms: C_8  and  N_9
REMARK    5  A    between atoms: N_9  and  C_10
REMARK    6  A    between atoms: C_10  and  C_11
REMARK    7  A    between atoms: C_11  and  C_12
REMARK                            x       y       z     vdW  Elec       q    Type
REMARK                         _______ _______ _______ _____ _____    ______ ____
ROOT
ATOM      1  C   UNL     1      47.917   7.040  12.789  0.00  0.00    +0.000 A 
ATOM      2  C   UNL     1      47.594   5.967  13.626  0.00  0.00    +0.000 A 
ATOM      3  C   UNL     1      46.581   5.067  13.276  0.00  0.00    +0.000 A 
ATOM      4  C   UNL     1      45.845   5.226  12.098  0.00  0.00    +0.000 A 
ATOM      5  C   UNL     1      46.227   6.244  11.223  0.00  0.00    +0.000 A 
ATOM      6  C   UNL     1      47.240   7.151  11.568  0.00  0.00    +0.000 A 
ENDROOT
BRANCH   4   7
ATOM      7  N   UNL     1      44.737   4.432  11.743  0.00  0.00    +0.000 N 
ATOM      8  H   UNL     1      44.012   4.986  11.293  0.00  0.00    +0.000 HD
BRANCH   7   9
ATOM      9  C   UNL     1      45.025   3.163  11.046  0.00  0.00    +0.000 C 
BRANCH   9  10
ATOM     10  C   UNL     1      44.425   3.137   9.628  0.00  0.00    +0.000 C 
BRANCH  10  11
ATOM     11  C   UNL     1      45.428   2.690   8.591  0.00  0.00    +0.000 A 
ATOM     12  C   UNL     1      45.912   3.571   7.624  0.00  0.00    +0.000 A 
ATOM     13  C   UNL     1      46.844   3.111   6.693  0.00  0.00    +0.000 A 
ATOM     14  C   UNL     1      47.256   1.785   6.735  0.00  0.00    +0.000 A 
ATOM     15  C   UNL     1      46.707   0.972   7.708  0.00  0.00    +0.000 A 
ATOM     16  N   UNL     1      45.808   1.383   8.620  0.00  0.00    +0.000 NA
ENDBRANCH  10  11
ENDBRANCH   9  10
ENDBRANCH   7   9
ENDBRANCH   4   7
BRANCH   1  17
ATOM     17  C   UNL     1      48.958   8.046  13.208  0.00  0.00    +0.000 C 
BRANCH  17  20
ATOM     18  O   UNL     1      50.494   9.543  11.338  0.00  0.00    +0.000 OA
ATOM     19  C   UNL     1      50.949   8.501  11.817  0.00  0.00    +0.000 C 
ATOM     20  N   UNL     1      50.262   7.717  12.712  0.00  0.00    +0.000 N 
ATOM     21  H   UNL     1      50.796   6.952  13.132  0.00  0.00    +0.000 HD
BRANCH  19  22
ATOM     22  C   UNL     1      52.265   7.950  11.443  0.00  0.00    +0.000 A 
ATOM     23  N   UNL     1      53.270   7.823  12.345  0.00  0.00    +0.000 NA
ATOM     24  N   UNL     1      54.200   7.094  11.687  0.00  0.00    +0.000 N 
ATOM     25  C   UNL     1      53.828   6.741  10.422  0.00  0.00    +0.000 A 
ATOM     26  N   UNL     1      54.498   5.919   9.590  0.00  0.00    +0.000 NA
ATOM     27  C   UNL     1      53.855   5.746   8.408  0.00  0.00    +0.000 A 
ATOM     28  C   UNL     1      52.690   6.393   8.014  0.00  0.00    +0.000 A 
ATOM     29  C   UNL     1      52.058   7.257   8.908  0.00  0.00    +0.000 A 
ATOM     30  C   UNL     1      52.629   7.387  10.186  0.00  0.00    +0.000 A 
ATOM     31  H   UNL     1      55.050   6.822  12.162  0.00  0.00    +0.000 HD
ENDBRANCH  19  22
ENDBRANCH  17  20
ENDBRANCH   1  17
TORSDOF 7
ENDMDL
MODEL 6
REMARK VINA RESULT:    -6.685      1.893      2.175
REMARK INTER + INTRA:         -10.259
REMARK INTER:                  -9.459
REMARK INTRA:                  -0.800
REMARK UNBOUND:                -0.838
REMARK  Name = 
REMARK  7 active torsions:
REMARK  status: ('A' for Active; 'I' for Inactive)
REMARK    1  A    between atoms: C_2  and  C_20
REMARK    2  A    between atoms: N_3  and  C_4
REMARK    3  A    between atoms: C_4  and  C_5
REMARK    4  A    between atoms: C_8  and  N_9
REMARK    5  A    between atoms: N_9  and  C_10
REMARK    6  A    between atoms: C_10  and  C_11
REMARK    7  A    between atoms: C_11  and  C_12
REMARK                            x       y       z     vdW  Elec       q    Type
REMARK                         _______ _______ _______ _____ _____    ______ ____
ROOT
ATOM      1  C   UNL     1      47.495   6.955  13.478  0.00  0.00    +0.000 A 
ATOM      2  C   UNL     1      47.057   5.628  13.539  0.00  0.00    +0.000 A 
ATOM      3  C   UNL     1      45.749   5.289  13.176  0.00  0.00    +0.000 A 
ATOM      4  C   UNL     1      44.834   6.264  12.768  0.00  0.00    +0.000 A 
ATOM      5  C   UNL     1      45.297   7.572  12.623  0.00  0.00    +0.000 A 
ATOM      6  C   UNL     1      46.606   7.920  12.987  0.00  0.00    +0.000 A 
ENDROOT
BRANCH   4   7
ATOM      7  N   UNL     1      43.473   6.012  12.504  0.00  0.00    +0.000 N 
ATOM      8  H   UNL     1      42.890   6.801  12.774  0.00  0.00    +0.000 HD
BRANCH   7   9
ATOM      9  C   UNL     1      43.144   5.468  11.171  0.00  0.00    +0.000 C 
BRANCH   9  10
ATOM     10  C   UNL     1      43.349   3.943  11.106  0.00  0.00    +0.000 C 
BRANCH  10  11
ATOM     11  C   UNL     1      44.271   3.538   9.981  0.00  0.00    +0.000 A 
ATOM     12  C   UNL     1      44.874   4.491   9.159  0.00  0.00    +0.000 A 
ATOM     13  C   UNL     1      45.724   4.066   8.138  0.00  0.00    +0.000 A 
ATOM     14  C   UNL     1      45.939   2.706   7.948  0.00  0.00    +0.000 A 
ATOM     15  C   UNL     1      45.284   1.828   8.790  0.00  0.00    +0.000 A 
ATOM     16  N   UNL     1      44.459   2.205   9.783  0.00  0.00    +0.000 NA
ENDBRANCH  10  11
ENDBRANCH   9  10
ENDBRANCH   7   9
ENDBRANCH   4   7
BRANCH   1  17
ATOM     17  C   UNL     1      48.881   7.322  13.940  0.00  0.00    +0.000 C 
BRANCH  17  20
ATOM     18  O   UNL     1      48.588   7.909  16.709  0.00  0.00    +0.000 OA
ATOM     19  C   UNL     1      49.130   6.858  16.354  0.00  0.00    +0.000 C 
ATOM     20  N   UNL     1      49.321   6.513  15.039  0.00  0.00    +0.000 N 
ATOM     21  H   UNL     1      49.663   5.563  14.874  0.00  0.00    +0.000 HD
BRANCH  19  22
ATOM     22  C   UNL     1      49.682   5.875  17.305  0.00  0.00    +0.000 A 
ATOM     23  N   UNL     1      49.922   4.589  16.947  0.00  0.00    +0.000 NA
ATOM     24  N   UNL     1      50.613   4.089  17.995  0.00  0.00    +0.000 N 
ATOM     25  C   UNL     1      50.837   4.996  18.990  0.00  0.00    +0.000 A 
ATOM     26  N   UNL     1      51.597   4.810  20.088  0.00  0.00    +0.000 NA
ATOM     27  C   UNL     1      51.641   5.913  20.877  0.00  0.00    +0.000 A 
ATOM     28  C   UNL     1      50.926   7.087  20.674  0.00  0.00    +0.000 A 
ATOM     29  C   UNL     1      50.130   7.209  19.534  0.00  0.00    +0.000 A 
ATOM     30  C   UNL     1      50.137   6.132  18.630  0.00  0.00    +0.000 A 
ATOM     31  H   UNL     1      50.953   3.137  17.962  0.00  0.00    +0.000 HD
ENDBRANCH  19  22
ENDBRANCH  17  20
ENDBRANCH   1  17
TORSDOF 7
ENDMDL
MODEL 7
REMARK VINA RESULT:    -6.634      3.110      8.470
REMARK INTER + INTRA:         -10.186
REMARK INTER:                  -8.580
REMARK INTRA:                  -1.607
REMARK UNBOUND:                -0.838
REMARK  Name = 
REMARK  7 active torsions:
REMARK  status: ('A' for Active; 'I' for Inactive)
REMARK    1  A    between atoms: C_2  and  C_20
REMARK    2  A    between atoms: N_3  and  C_4
REMARK    3  A    between atoms: C_4  and  C_5
REMARK    4  A    between atoms: C_8  and  N_9
REMARK    5  A    between atoms: N_9  and  C_10
REMARK    6  A    between atoms: C_10  and  C_11
REMARK    7  A    between atoms: C_11  and  C_12
REMARK                            x       y       z     vdW  Elec       q    Type
REMARK                         _______ _______ _______ _____ _____    ______ ____
ROOT
ATOM      1  C   UNL     1      48.598   8.517  15.199  0.00  0.00    +0.000 A 
ATOM      2  C   UNL     1      48.290   9.016  16.470  0.00  0.00    +0.000 A 
ATOM      3  C   UNL     1      48.759   8.376  17.622  0.00  0.00    +0.000 A 
ATOM      4  C   UNL     1      49.524   7.209  17.543  0.00  0.00    +0.000 A 
ATOM      5  C   UNL     1      49.903   6.762  16.277  0.00  0.00    +0.000 A 
ATOM      6  C   UNL     1      49.436   7.398  15.117  0.00  0.00    +0.000 A 
ENDROOT
BRANCH   4   7
ATOM      7  N   UNL     1      49.926   6.449  18.659  0.00  0.00    +0.000 N 
ATOM      8  H   UNL     1      50.793   6.803  19.057  0.00  0.00    +0.000 HD
BRANCH   7   9
ATOM      9  C   UNL     1      48.892   6.153  19.670  0.00  0.00    +0.000 C 
BRANCH   9  10
ATOM     10  C   UNL     1      48.577   4.647  19.747  0.00  0.00    +0.000 C 
BRANCH  10  11
ATOM     11  C   UNL     1      48.347   4.041  18.383  0.00  0.00    +0.000 A 
ATOM     12  C   UNL     1      49.137   2.991  17.915  0.00  0.00    +0.000 A 
ATOM     13  C   UNL     1      48.879   2.460  16.651  0.00  0.00    +0.000 A 
ATOM     14  C   UNL     1      47.858   2.997  15.878  0.00  0.00    +0.000 A 
ATOM     15  C   UNL     1      47.140   4.053  16.406  0.00  0.00    +0.000 A 
ATOM     16  N   UNL     1      47.363   4.588  17.620  0.00  0.00    +0.000 NA
ENDBRANCH  10  11
ENDBRANCH   9  10
ENDBRANCH   7   9
ENDBRANCH   4   7
BRANCH   1  17
ATOM     17  C   UNL     1      48.029   9.169  13.966  0.00  0.00    +0.000 C 
BRANCH  17  20
ATOM     18  O   UNL     1      47.839   7.285  11.842  0.00  0.00    +0.000 OA
ATOM     19  C   UNL     1      46.830   7.604  12.478  0.00  0.00    +0.000 C 
ATOM     20  N   UNL     1      46.840   8.516  13.505  0.00  0.00    +0.000 N 
ATOM     21  H   UNL     1      45.968   8.597  14.034  0.00  0.00    +0.000 HD
BRANCH  19  22
ATOM     22  C   UNL     1      45.486   7.078  12.172  0.00  0.00    +0.000 A 
ATOM     23  N   UNL     1      44.507   7.868  11.664  0.00  0.00    +0.000 NA
ATOM     24  N   UNL     1      43.535   6.992  11.323  0.00  0.00    +0.000 N 
ATOM     25  C   UNL     1      43.856   5.689  11.573  0.00  0.00    +0.000 A 
ATOM     26  N   UNL     1      43.134   4.605  11.223  0.00  0.00    +0.000 NA
ATOM     27  C   UNL     1      43.734   3.446  11.594  0.00  0.00    +0.000 A 
ATOM     28  C   UNL     1      44.905   3.336  12.334  0.00  0.00    +0.000 A 
ATOM     29  C   UNL     1      45.592   4.497  12.694  0.00  0.00    +0.000 A 
ATOM     30  C   UNL     1      45.065   5.719  12.241  0.00  0.00    +0.000 A 
ATOM     31  H   UNL     1      42.693   7.329  10.877  0.00  0.00    +0.000 HD
ENDBRANCH  19  22
ENDBRANCH  17  20
ENDBRANCH   1  17
TORSDOF 7
ENDMDL
MODEL 8
REMARK VINA RESULT:    -6.625      4.150      9.650
REMARK INTER + INTRA:         -10.173
REMARK INTER:                  -9.264
REMARK INTRA:                  -0.909
REMARK UNBOUND:                -0.838
REMARK  Name = 
REMARK  7 active torsions:
REMARK  status: ('A' for Active; 'I' for Inactive)
REMARK    1  A    between atoms: C_2  and  C_20
REMARK    2  A    between atoms: N_3  and  C_4
REMARK    3  A    between atoms: C_4  and  C_5
REMARK    4  A    between atoms: C_8  and  N_9
REMARK    5  A    between atoms: N_9  and  C_10
REMARK    6  A    between atoms: C_10  and  C_11
REMARK    7  A    between atoms: C_11  and  C_12
REMARK                            x       y       z     vdW  Elec       q    Type
REMARK                         _______ _______ _______ _____ _____    ______ ____
ROOT
ATOM      1  C   UNL     1      48.821   3.791  17.110  0.00  0.00    +0.000 A 
ATOM      2  C   UNL     1      49.358   5.083  17.088  0.00  0.00    +0.000 A 
ATOM      3  C   UNL     1      50.701   5.304  17.411  0.00  0.00    +0.000 A 
ATOM      4  C   UNL     1      51.539   4.252  17.789  0.00  0.00    +0.000 A 
ATOM      5  C   UNL     1      51.027   2.955  17.724  0.00  0.00    +0.000 A 
ATOM      6  C   UNL     1      49.681   2.725  17.404  0.00  0.00    +0.000 A 
ENDROOT
BRANCH   4   7
ATOM      7  N   UNL     1      52.864   4.416  18.240  0.00  0.00    +0.000 N 
ATOM      8  H   UNL     1      53.078   5.395  18.415  0.00  0.00    +0.000 HD
BRANCH   7   9
ATOM      9  C   UNL     1      53.315   3.514  19.317  0.00  0.00    +0.000 C 
BRANCH   9  10
ATOM     10  C   UNL     1      54.720   2.944  19.040  0.00  0.00    +0.000 C 
BRANCH  10  11
ATOM     11  C   UNL     1      54.667   1.539  18.490  0.00  0.00    +0.000 A 
ATOM     12  C   UNL     1      54.523   1.300  17.123  0.00  0.00    +0.000 A 
ATOM     13  C   UNL     1      54.489  -0.017  16.664  0.00  0.00    +0.000 A 
ATOM     14  C   UNL     1      54.579  -1.062  17.575  0.00  0.00    +0.000 A 
ATOM     15  C   UNL     1      54.694  -0.739  18.914  0.00  0.00    +0.000 A 
ATOM     16  N   UNL     1      54.730   0.519  19.388  0.00  0.00    +0.000 NA
ENDBRANCH  10  11
ENDBRANCH   9  10
ENDBRANCH   7   9
ENDBRANCH   4   7
BRANCH   1  17
ATOM     17  C   UNL     1      47.357   3.570  16.833  0.00  0.00    +0.000 C 
BRANCH  17  20
ATOM     18  O   UNL     1      47.348   3.161  14.017  0.00  0.00    +0.000 OA
ATOM     19  C   UNL     1      46.868   4.194  14.493  0.00  0.00    +0.000 C 
ATOM     20  N   UNL     1      46.849   4.469  15.839  0.00  0.00    +0.000 N 
ATOM     21  H   UNL     1      46.310   5.293  16.116  0.00  0.00    +0.000 HD
BRANCH  19  22
ATOM     22  C   UNL     1      46.303   5.276  13.665  0.00  0.00    +0.000 A 
ATOM     23  N   UNL     1      47.058   6.323  13.244  0.00  0.00    +0.000 NA
ATOM     24  N   UNL     1      46.260   6.954  12.354  0.00  0.00    +0.000 N 
ATOM     25  C   UNL     1      45.048   6.352  12.178  0.00  0.00    +0.000 A 
ATOM     26  N   UNL     1      44.109   6.689  11.270  0.00  0.00    +0.000 NA
ATOM     27  C   UNL     1      43.021   5.882  11.329  0.00  0.00    +0.000 A 
ATOM     28  C   UNL     1      42.806   4.873  12.261  0.00  0.00    +0.000 A 
ATOM     29  C   UNL     1      43.802   4.590  13.197  0.00  0.00    +0.000 A 
ATOM     30  C   UNL     1      44.994   5.330  13.107  0.00  0.00    +0.000 A 
ATOM     31  H   UNL     1      46.608   7.763  11.856  0.00  0.00    +0.000 HD
ENDBRANCH  19  22
ENDBRANCH  17  20
ENDBRANCH   1  17
TORSDOF 7
ENDMDL
MODEL 9
REMARK VINA RESULT:    -6.615      2.553      8.914
REMARK INTER + INTRA:         -10.159
REMARK INTER:                  -8.996
REMARK INTRA:                  -1.163
REMARK UNBOUND:                -0.838
REMARK  Name = 
REMARK  7 active torsions:
REMARK  status: ('A' for Active; 'I' for Inactive)
REMARK    1  A    between atoms: C_2  and  C_20
REMARK    2  A    between atoms: N_3  and  C_4
REMARK    3  A    between atoms: C_4  and  C_5
REMARK    4  A    between atoms: C_8  and  N_9
REMARK    5  A    between atoms: N_9  and  C_10
REMARK    6  A    between atoms: C_10  and  C_11
REMARK    7  A    between atoms: C_11  and  C_12
REMARK                            x       y       z     vdW  Elec       q    Type
REMARK                         _______ _______ _______ _____ _____    ______ ____
ROOT
ATOM      1  C   UNL     1      48.475   8.055  15.114  0.00  0.00    +0.000 A 
ATOM      2  C   UNL     1      48.406   8.813  16.288  0.00  0.00    +0.000 A 
ATOM      3  C   UNL     1      49.342   8.631  17.312  0.00  0.00    +0.000 A 
ATOM      4  C   UNL     1      50.356   7.676  17.206  0.00  0.00    +0.000 A 
ATOM      5  C   UNL     1      50.478   6.984  16.000  0.00  0.00    +0.000 A 
ATOM      6  C   UNL     1      49.542   7.159  14.970  0.00  0.00    +0.000 A 
ENDROOT
BRANCH   4   7
ATOM      7  N   UNL     1      51.257   7.358  18.242  0.00  0.00    +0.000 N 
ATOM      8  H   UNL     1      50.998   7.816  19.113  0.00  0.00    +0.000 HD
BRANCH   7   9
ATOM      9  C   UNL     1      51.603   5.933  18.408  0.00  0.00    +0.000 C 
BRANCH   9  10
ATOM     10  C   UNL     1      50.573   5.188  19.279  0.00  0.00    +0.000 C 
BRANCH  10  11
ATOM     11  C   UNL     1      49.531   4.477  18.449  0.00  0.00    +0.000 A 
ATOM     12  C   UNL     1      49.848   3.335  17.711  0.00  0.00    +0.000 A 
ATOM     13  C   UNL     1      48.847   2.710  16.967  0.00  0.00    +0.000 A 
ATOM     14  C   UNL     1      47.565   3.244  16.959  0.00  0.00    +0.000 A 
ATOM     15  C   UNL     1      47.342   4.392  17.696  0.00  0.00    +0.000 A 
ATOM     16  N   UNL     1      48.283   5.018  18.423  0.00  0.00    +0.000 NA
ENDBRANCH  10  11
ENDBRANCH   9  10
ENDBRANCH   7   9
ENDBRANCH   4   7
BRANCH   1  17
ATOM     17  C   UNL     1      47.421   8.204  14.048  0.00  0.00    +0.000 C 
BRANCH  17  20
ATOM     18  O   UNL     1      45.210   7.777  12.308  0.00  0.00    +0.000 OA
ATOM     19  C   UNL     1      45.837   6.814  12.758  0.00  0.00    +0.000 C 
ATOM     20  N   UNL     1      46.905   6.940  13.613  0.00  0.00    +0.000 N 
ATOM     21  H   UNL     1      47.419   6.077  13.810  0.00  0.00    +0.000 HD
BRANCH  19  22
ATOM     22  C   UNL     1      45.480   5.413  12.466  0.00  0.00    +0.000 A 
ATOM     23  N   UNL     1      45.131   4.544  13.448  0.00  0.00    +0.000 NA
ATOM     24  N   UNL     1      44.672   3.467  12.773  0.00  0.00    +0.000 N 
ATOM     25  C   UNL     1      44.698   3.615  11.417  0.00  0.00    +0.000 A 
ATOM     26  N   UNL     1      44.191   2.758  10.507  0.00  0.00    +0.000 NA
ATOM     27  C   UNL     1      44.353   3.202   9.235  0.00  0.00    +0.000 A 
ATOM     28  C   UNL     1      45.039   4.350   8.856  0.00  0.00    +0.000 A 
ATOM     29  C   UNL     1      45.568   5.182   9.842  0.00  0.00    +0.000 A 
ATOM     30  C   UNL     1      45.334   4.819  11.180  0.00  0.00    +0.000 A 
ATOM     31  H   UNL     1      44.306   2.675  13.285  0.00  0.00    +0.000 HD
ENDBRANCH  19  22
ENDBRANCH  17  20
ENDBRANCH   1  17
TORSDOF 7
ENDMDL
