MODEL 1
REMARK VINA RESULT:    -7.599      0.000      0.000
REMARK INTER + INTRA:         -12.092
REMARK INTER:                 -11.376
REMARK INTRA:                  -0.716
REMARK UNBOUND:                -0.716
REMARK  Name = 
REMARK  11 active torsions:
REMARK  status: ('A' for Active; 'I' for Inactive)
REMARK    1  A    between atoms: C_1  and  C_2
REMARK    2  A    between atoms: C_2  and  C_3
REMARK    3  A    between atoms: C_2  and  N_16
REMARK    4  A    between atoms: C_3  and  C_4
REMARK    5  A    between atoms: C_6  and  C_7
REMARK    6  A    between atoms: N_16  and  C_17
REMARK    7  A    between atoms: N_16  and  C_18
REMARK    8  A    between atoms: C_21  and  O_22
REMARK    9  A    between atoms: O_22  and  C_23
REMARK   10  A    between atoms: C_23  and  C_24
REMARK   11  A    between atoms: C_24  and  O_25
REMARK                            x       y       z     vdW  Elec       q    Type
REMARK                         _______ _______ _______ _____ _____    ______ ____
ROOT
ATOM      1  C   UNL     1      45.859   8.578  12.955  0.00  0.00    +0.000 C 
ATOM      2  C   UNL     1      45.980   7.168  12.353  0.00  0.00    +0.000 C 
ENDROOT
BRANCH   2   3
ATOM      3  N   UNL     1      47.336   6.649  12.691  0.00  0.00    +0.000 N 
ATOM      4  C   UNL     1      48.532   7.159  12.014  0.00  0.00    +0.000 C 
BRANCH   3   5
ATOM      5  C   UNL     1      47.585   6.101  13.958  0.00  0.00    +0.000 A 
ATOM      6  C   UNL     1      47.015   4.876  14.341  0.00  0.00    +0.000 A 
ATOM      7  C   UNL     1      47.280   4.308  15.590  0.00  0.00    +0.000 A 
ATOM      8  C   UNL     1      48.105   4.996  16.461  0.00  0.00    +0.000 A 
ATOM      9  N   UNL     1      48.677   6.174  16.156  0.00  0.00    +0.000 NA
ATOM     10  C   UNL     1      48.401   6.686  14.927  0.00  0.00    +0.000 A 
BRANCH   8  11
ATOM     11  O   UNL     1      48.370   4.407  17.682  0.00  0.00    +0.000 OA
BRANCH  11  12
ATOM     12  C   UNL     1      48.338   2.974  17.604  0.00  0.00    +0.000 C 
BRANCH  12  13
ATOM     13  C   UNL     1      49.727   2.468  17.224  0.00  0.00    +0.000 C 
BRANCH  13  14
ATOM     14  O   UNL     1      49.677   1.712  16.014  0.00  0.00    +0.000 OA
ATOM     15  H   UNL     1      48.779   1.829  15.654  0.00  0.00    +0.000 HD
ENDBRANCH  13  14
ENDBRANCH  12  13
ENDBRANCH  11  12
ENDBRANCH   8  11
ENDBRANCH   3   5
ENDBRANCH   2   3
BRANCH   2  16
ATOM     16  C   UNL     1      44.765   6.326  12.828  0.00  0.00    +0.000 C 
BRANCH  16  17
ATOM     17  C   UNL     1      44.427   5.083  12.037  0.00  0.00    +0.000 A 
ATOM     18  C   UNL     1      44.975   4.829  10.783  0.00  0.00    +0.000 A 
ATOM     19  C   UNL     1      44.767   3.593  10.150  0.00  0.00    +0.000 A 
ATOM     20  C   UNL     1      43.893   2.699  10.775  0.00  0.00    +0.000 A 
ATOM     21  C   UNL     1      43.320   3.055  11.986  0.00  0.00    +0.000 A 
ATOM     22  N   UNL     1      43.582   4.210  12.632  0.00  0.00    +0.000 NA
BRANCH  19  23
ATOM     23  C   UNL     1      45.503   3.254   8.913  0.00  0.00    +0.000 A 
ATOM     24  C   UNL     1      45.864   1.929   8.622  0.00  0.00    +0.000 A 
ATOM     25  C   UNL     1      46.566   1.610   7.462  0.00  0.00    +0.000 A 
ATOM     26  C   UNL     1      46.878   2.635   6.591  0.00  0.00    +0.000 A 
ATOM     27  N   UNL     1      46.541   3.923   6.804  0.00  0.00    +0.000 NA
ATOM     28  C   UNL     1      45.869   4.199   7.952  0.00  0.00    +0.000 A 
ENDBRANCH  19  23
ENDBRANCH  16  17
ENDBRANCH   2  16
TORSDOF 9
ENDMDL
MODEL 2
REMARK VINA RESULT:    -7.247      1.359      1.999
REMARK INTER + INTRA:         -11.564
REMARK INTER:                 -10.594
REMARK INTRA:                  -0.970
REMARK UNBOUND:                -0.716
REMARK  Name = 
REMARK  11 active torsions:
REMARK  status: ('A' for Active; 'I' for Inactive)
REMARK    1  A    between atoms: C_1  and  C_2
REMARK    2  A    between atoms: C_2  and  C_3
REMARK    3  A    between atoms: C_2  and  N_16
REMARK    4  A    between atoms: C_3  and  C_4
REMARK    5  A    between atoms: C_6  and  C_7
REMARK    6  A    between atoms: N_16  and  C_17
REMARK    7  A    between atoms: N_16  and  C_18
REMARK    8  A    between atoms: C_21  and  O_22
REMARK    9  A    between atoms: O_22  and  C_23
REMARK   10  A    between atoms: C_23  and  C_24
REMARK   11  A    between atoms: C_24  and  O_25
REMARK                            x       y       z     vdW  Elec       q    Type
REMARK                         _______ _______ _______ _____ _____    ______ ____
ROOT
ATOM      1  C   UNL     1      48.591   7.518  11.367  0.00  0.00    +0.000 C 
ATOM      2  C   UNL     1      47.511   7.131  12.391  0.00  0.00    +0.000 C 
ENDROOT
BRANCH   2   3
ATOM      3  N   UNL     1      47.924   7.687  13.712  0.00  0.00    +0.000 N 
ATOM      4  C   UNL     1      47.461   9.005  14.156  0.00  0.00    +0.000 C 
BRANCH   3   5
ATOM      5  C   UNL     1      48.283   6.824  14.758  0.00  0.00    +0.000 A 
ATOM      6  C   UNL     1      49.182   7.233  15.756  0.00  0.00    +0.000 A 
ATOM      7  C   UNL     1      49.524   6.390  16.817  0.00  0.00    +0.000 A 
ATOM      8  C   UNL     1      48.971   5.124  16.852  0.00  0.00    +0.000 A 
ATOM      9  N   UNL     1      48.108   4.671  15.926  0.00  0.00    +0.000 NA
ATOM     10  C   UNL     1      47.795   5.527  14.916  0.00  0.00    +0.000 A 
BRANCH   8  11
ATOM     11  O   UNL     1      49.307   4.315  17.922  0.00  0.00    +0.000 OA
BRANCH  11  12
ATOM     12  C   UNL     1      48.821   2.975  17.753  0.00  0.00    +0.000 C 
BRANCH  12  13
ATOM     13  C   UNL     1      49.936   2.114  17.167  0.00  0.00    +0.000 C 
BRANCH  13  14
ATOM     14  O   UNL     1      49.641   1.752  15.818  0.00  0.00    +0.000 OA
ATOM     15  H   UNL     1      48.882   2.300  15.547  0.00  0.00    +0.000 HD
ENDBRANCH  13  14
ENDBRANCH  12  13
ENDBRANCH  11  12
ENDBRANCH   8  11
ENDBRANCH   3   5
ENDBRANCH   2   3
BRANCH   2  16
ATOM     16  C   UNL     1      46.130   7.577  11.841  0.00  0.00    +0.000 C 
BRANCH  16  17
ATOM     17  C   UNL     1      45.267   6.524  11.185  0.00  0.00    +0.000 A 
ATOM     18  C   UNL     1      45.762   5.657  10.215  0.00  0.00    +0.000 A 
ATOM     19  C   UNL     1      44.982   4.588   9.745  0.00  0.00    +0.000 A 
ATOM     20  C   UNL     1      43.662   4.520  10.200  0.00  0.00    +0.000 A 
ATOM     21  C   UNL     1      43.213   5.468  11.106  0.00  0.00    +0.000 A 
ATOM     22  N   UNL     1      43.988   6.448  11.617  0.00  0.00    +0.000 NA
BRANCH  19  23
ATOM     23  C   UNL     1      45.575   3.561   8.863  0.00  0.00    +0.000 A 
ATOM     24  C   UNL     1      46.299   3.920   7.714  0.00  0.00    +0.000 A 
ATOM     25  C   UNL     1      46.849   2.953   6.877  0.00  0.00    +0.000 A 
ATOM     26  C   UNL     1      46.682   1.626   7.221  0.00  0.00    +0.000 A 
ATOM     27  N   UNL     1      46.015   1.219   8.320  0.00  0.00    +0.000 NA
ATOM     28  C   UNL     1      45.480   2.190   9.106  0.00  0.00    +0.000 A 
ENDBRANCH  19  23
ENDBRANCH  16  17
ENDBRANCH   2  16
TORSDOF 9
ENDMDL
MODEL 3
REMARK VINA RESULT:    -7.201      3.384      8.439
REMARK INTER + INTRA:         -11.495
REMARK INTER:                 -11.000
REMARK INTRA:                  -0.495
REMARK UNBOUND:                -0.716
REMARK  Name = 
REMARK  11 active torsions:
REMARK  status: ('A' for Active; 'I' for Inactive)
REMARK    1  A    between atoms: C_1  and  C_2
REMARK    2  A    between atoms: C_2  and  C_3
REMARK    3  A    between atoms: C_2  and  N_16
REMARK    4  A    between atoms: C_3  and  C_4
REMARK    5  A    between atoms: C_6  and  C_7
REMARK    6  A    between atoms: N_16  and  C_17
REMARK    7  A    between atoms: N_16  and  C_18
REMARK    8  A    between atoms: C_21  and  O_22
REMARK    9  A    between atoms: O_22  and  C_23
REMARK   10  A    between atoms: C_23  and  C_24
REMARK   11  A    between atoms: C_24  and  O_25
REMARK                            x       y       z     vdW  Elec       q    Type
REMARK                         _______ _______ _______ _____ _____    ______ ____
ROOT
ATOM      1  C   UNL     1      46.530   6.508  12.713  0.00  0.00    +0.000 C 
ATOM      2  C   UNL     1      45.806   5.266  13.259  0.00  0.00    +0.000 C 
ENDROOT
BRANCH   2   3
ATOM      3  N   UNL     1      44.682   4.955  12.330  0.00  0.00    +0.000 N 
ATOM      4  C   UNL     1      43.375   5.604  12.479  0.00  0.00    +0.000 C 
BRANCH   3   5
ATOM      5  C   UNL     1      44.948   4.496  11.032  0.00  0.00    +0.000 A 
ATOM      6  C   UNL     1      44.719   3.156  10.678  0.00  0.00    +0.000 A 
ATOM      7  C   UNL     1      44.955   2.695   9.380  0.00  0.00    +0.000 A 
ATOM      8  C   UNL     1      45.444   3.590   8.446  0.00  0.00    +0.000 A 
ATOM      9  N   UNL     1      45.687   4.884   8.722  0.00  0.00    +0.000 NA
ATOM     10  C   UNL     1      45.435   5.292   9.995  0.00  0.00    +0.000 A 
BRANCH   8  11
ATOM     11  O   UNL     1      45.649   3.118   7.163  0.00  0.00    +0.000 OA
BRANCH  11  12
ATOM     12  C   UNL     1      47.004   3.312   6.732  0.00  0.00    +0.000 C 
BRANCH  12  13
ATOM     13  C   UNL     1      47.755   1.989   6.852  0.00  0.00    +0.000 C 
BRANCH  13  14
ATOM     14  O   UNL     1      48.523   1.733   5.676  0.00  0.00    +0.000 OA
ATOM     15  H   UNL     1      49.320   1.255   5.967  0.00  0.00    +0.000 HD
ENDBRANCH  13  14
ENDBRANCH  12  13
ENDBRANCH  11  12
ENDBRANCH   8  11
ENDBRANCH   3   5
ENDBRANCH   2   3
BRANCH   2  16
ATOM     16  C   UNL     1      46.857   4.147  13.492  0.00  0.00    +0.000 C 
BRANCH  16  17
ATOM     17  C   UNL     1      47.455   4.029  14.874  0.00  0.00    +0.000 A 
ATOM     18  C   UNL     1      47.642   5.134  15.699  0.00  0.00    +0.000 A 
ATOM     19  C   UNL     1      48.048   4.969  17.034  0.00  0.00    +0.000 A 
ATOM     20  C   UNL     1      48.370   3.672  17.443  0.00  0.00    +0.000 A 
ATOM     21  C   UNL     1      48.235   2.630  16.540  0.00  0.00    +0.000 A 
ATOM     22  N   UNL     1      47.771   2.778  15.282  0.00  0.00    +0.000 NA
BRANCH  19  23
ATOM     23  C   UNL     1      48.061   6.123  17.958  0.00  0.00    +0.000 A 
ATOM     24  C   UNL     1      47.488   6.036  19.238  0.00  0.00    +0.000 A 
ATOM     25  C   UNL     1      47.491   7.125  20.105  0.00  0.00    +0.000 A 
ATOM     26  C   UNL     1      48.096   8.291  19.680  0.00  0.00    +0.000 A 
ATOM     27  N   UNL     1      48.680   8.430  18.473  0.00  0.00    +0.000 NA
ATOM     28  C   UNL     1      48.646   7.352  17.648  0.00  0.00    +0.000 A 
ENDBRANCH  19  23
ENDBRANCH  16  17
ENDBRANCH   2  16
TORSDOF 9
ENDMDL
MODEL 4
REMARK VINA RESULT:    -6.927      3.295      8.205
REMARK INTER + INTRA:         -11.086
REMARK INTER:                 -10.596
REMARK INTRA:                  -0.489
REMARK UNBOUND:                -0.716
REMARK  Name = 
REMARK  11 active torsions:
REMARK  status: ('A' for Active; 'I' for Inactive)
REMARK    1  A    between atoms: C_1  and  C_2
REMARK    2  A    between atoms: C_2  and  C_3
REMARK    3  A    between atoms: C_2  and  N_16
REMARK    4  A    between atoms: C_3  and  C_4
REMARK    5  A    between atoms: C_6  and  C_7
REMARK    6  A    between atoms: N_16  and  C_17
REMARK    7  A    between atoms: N_16  and  C_18
REMARK    8  A    between atoms: C_21  and  O_22
REMARK    9  A    between atoms: O_22  and  C_23
REMARK   10  A    between atoms: C_23  and  C_24
REMARK   11  A    between atoms: C_24  and  O_25
REMARK                            x       y       z     vdW  Elec       q    Type
REMARK                         _______ _______ _______ _____ _____    ______ ____
ROOT
ATOM      1  C   UNL     1      47.295   5.893  12.867  0.00  0.00    +0.000 C 
ATOM      2  C   UNL     1      46.245   5.027  13.582  0.00  0.00    +0.000 C 
ENDROOT
BRANCH   2   3
ATOM      3  N   UNL     1      45.056   4.929  12.688  0.00  0.00    +0.000 N 
ATOM      4  C   UNL     1      43.864   5.751  12.920  0.00  0.00    +0.000 C 
BRANCH   3   5
ATOM      5  C   UNL     1      45.207   4.502  11.360  0.00  0.00    +0.000 A 
ATOM      6  C   UNL     1      44.994   3.161  11.003  0.00  0.00    +0.000 A 
ATOM      7  C   UNL     1      45.114   2.732   9.679  0.00  0.00    +0.000 A 
ATOM      8  C   UNL     1      45.474   3.660   8.720  0.00  0.00    +0.000 A 
ATOM      9  N   UNL     1      45.695   4.958   8.997  0.00  0.00    +0.000 NA
ATOM     10  C   UNL     1      45.558   5.334  10.296  0.00  0.00    +0.000 A 
BRANCH   8  11
ATOM     11  O   UNL     1      45.566   3.219   7.413  0.00  0.00    +0.000 OA
BRANCH  11  12
ATOM     12  C   UNL     1      46.911   3.292   6.917  0.00  0.00    +0.000 C 
BRANCH  12  13
ATOM     13  C   UNL     1      47.505   1.886   6.888  0.00  0.00    +0.000 C 
BRANCH  13  14
ATOM     14  O   UNL     1      48.440   1.753   5.818  0.00  0.00    +0.000 OA
ATOM     15  H   UNL     1      47.995   1.229   5.128  0.00  0.00    +0.000 HD
ENDBRANCH  13  14
ENDBRANCH  12  13
ENDBRANCH  11  12
ENDBRANCH   8  11
ENDBRANCH   3   5
ENDBRANCH   2   3
BRANCH   2  16
ATOM     16  C   UNL     1      46.915   3.694  14.010  0.00  0.00    +0.000 C 
BRANCH  16  17
ATOM     17  C   UNL     1      47.391   3.580  15.439  0.00  0.00    +0.000 A 
ATOM     18  C   UNL     1      48.638   3.054  15.767  0.00  0.00    +0.000 A 
ATOM     19  C   UNL     1      49.114   3.112  17.087  0.00  0.00    +0.000 A 
ATOM     20  C   UNL     1      48.234   3.600  18.058  0.00  0.00    +0.000 A 
ATOM     21  C   UNL     1      46.976   4.032  17.667  0.00  0.00    +0.000 A 
ATOM     22  N   UNL     1      46.548   4.048  16.388  0.00  0.00    +0.000 NA
BRANCH  19  23
ATOM     23  C   UNL     1      50.508   2.730  17.396  0.00  0.00    +0.000 A 
ATOM     24  C   UNL     1      50.934   1.395  17.304  0.00  0.00    +0.000 A 
ATOM     25  C   UNL     1      52.244   1.033  17.605  0.00  0.00    +0.000 A 
ATOM     26  C   UNL     1      53.124   2.031  17.976  0.00  0.00    +0.000 A 
ATOM     27  N   UNL     1      52.781   3.332  18.062  0.00  0.00    +0.000 NA
ATOM     28  C   UNL     1      51.491   3.647  17.775  0.00  0.00    +0.000 A 
ENDBRANCH  19  23
ENDBRANCH  16  17
ENDBRANCH   2  16
TORSDOF 9
ENDMDL
MODEL 5
REMARK VINA RESULT:    -6.896      1.485      2.035
REMARK INTER + INTRA:         -11.039
REMARK INTER:                 -10.198
REMARK INTRA:                  -0.842
REMARK UNBOUND:                -0.716
REMARK  Name = 
REMARK  11 active torsions:
REMARK  status: ('A' for Active; 'I' for Inactive)
REMARK    1  A    between atoms: C_1  and  C_2
REMARK    2  A    between atoms: C_2  and  C_3
REMARK    3  A    between atoms: C_2  and  N_16
REMARK    4  A    between atoms: C_3  and  C_4
REMARK    5  A    between atoms: C_6  and  C_7
REMARK    6  A    between atoms: N_16  and  C_17
REMARK    7  A    between atoms: N_16  and  C_18
REMARK    8  A    between atoms: C_21  and  O_22
REMARK    9  A    between atoms: O_22  and  C_23
REMARK   10  A    between atoms: C_23  and  C_24
REMARK   11  A    between atoms: C_24  and  O_25
REMARK                            x       y       z     vdW  Elec       q    Type
REMARK                         _______ _______ _______ _____ _____    ______ ____
ROOT
ATOM      1  C   UNL     1      47.264   9.328  12.366  0.00  0.00    +0.000 C 
ATOM      2  C   UNL     1      46.918   7.880  11.983  0.00  0.00    +0.000 C 
ENDROOT
BRANCH   2   3
ATOM      3  N   UNL     1      48.048   7.014  12.426  0.00  0.00    +0.000 N 
ATOM      4  C   UNL     1      49.396   7.188  11.875  0.00  0.00    +0.000 C 
BRANCH   3   5
ATOM      5  C   UNL     1      48.021   6.414  13.694  0.00  0.00    +0.000 A 
ATOM      6  C   UNL     1      47.328   5.212  13.909  0.00  0.00    +0.000 A 
ATOM      7  C   UNL     1      47.318   4.592  15.162  0.00  0.00    +0.000 A 
ATOM      8  C   UNL     1      47.994   5.204  16.201  0.00  0.00    +0.000 A 
ATOM      9  N   UNL     1      48.673   6.356  16.060  0.00  0.00    +0.000 NA
ATOM     10  C   UNL     1      48.664   6.921  14.823  0.00  0.00    +0.000 A 
BRANCH   8  11
ATOM     11  O   UNL     1      47.989   4.563  17.426  0.00  0.00    +0.000 OA
BRANCH  11  12
ATOM     12  C   UNL     1      48.525   5.392  18.467  0.00  0.00    +0.000 C 
BRANCH  12  13
ATOM     13  C   UNL     1      47.371   6.016  19.247  0.00  0.00    +0.000 C 
BRANCH  13  14
ATOM     14  O   UNL     1      46.123   5.456  18.840  0.00  0.00    +0.000 OA
ATOM     15  H   UNL     1      45.866   4.824  19.535  0.00  0.00    +0.000 HD
ENDBRANCH  13  14
ENDBRANCH  12  13
ENDBRANCH  11  12
ENDBRANCH   8  11
ENDBRANCH   3   5
ENDBRANCH   2   3
BRANCH   2  16
ATOM     16  C   UNL     1      45.511   7.545  12.548  0.00  0.00    +0.000 C 
BRANCH  16  17
ATOM     17  C   UNL     1      44.762   6.394  11.917  0.00  0.00    +0.000 A 
ATOM     18  C   UNL     1      45.245   5.717  10.801  0.00  0.00    +0.000 A 
ATOM     19  C   UNL     1      44.608   4.553  10.340  0.00  0.00    +0.000 A 
ATOM     20  C   UNL     1      43.414   4.192  10.970  0.00  0.00    +0.000 A 
ATOM     21  C   UNL     1      42.951   4.963  12.025  0.00  0.00    +0.000 A 
ATOM     22  N   UNL     1      43.605   6.035  12.518  0.00  0.00    +0.000 NA
BRANCH  19  23
ATOM     23  C   UNL     1      45.229   3.732   9.280  0.00  0.00    +0.000 A 
ATOM     24  C   UNL     1      45.794   4.324   8.138  0.00  0.00    +0.000 A 
ATOM     25  C   UNL     1      46.369   3.550   7.134  0.00  0.00    +0.000 A 
ATOM     26  C   UNL     1      46.391   2.179   7.303  0.00  0.00    +0.000 A 
ATOM     27  N   UNL     1      45.884   1.554   8.384  0.00  0.00    +0.000 NA
ATOM     28  C   UNL     1      45.318   2.339   9.337  0.00  0.00    +0.000 A 
ENDBRANCH  19  23
ENDBRANCH  16  17
ENDBRANCH   2  16
TORSDOF 9
ENDMDL
MODEL 6
REMARK VINA RESULT:    -6.886      1.427      2.017
REMARK INTER + INTRA:         -11.024
REMARK INTER:                 -10.788
REMARK INTRA:                  -0.235
REMARK UNBOUND:                -0.716
REMARK  Name = 
REMARK  11 active torsions:
REMARK  status: ('A' for Active; 'I' for Inactive)
REMARK    1  A    between atoms: C_1  and  C_2
REMARK    2  A    between atoms: C_2  and  C_3
REMARK    3  A    between atoms: C_2  and  N_16
REMARK    4  A    between atoms: C_3  and  C_4
REMARK    5  A    between atoms: C_6  and  C_7
REMARK    6  A    between atoms: N_16  and  C_17
REMARK    7  A    between atoms: N_16  and  C_18
REMARK    8  A    between atoms: C_21  and  O_22
REMARK    9  A    between atoms: O_22  and  C_23
REMARK   10  A    between atoms: C_23  and  C_24
REMARK   11  A    between atoms: C_24  and  O_25
REMARK                            x       y       z     vdW  Elec       q    Type
REMARK                         _______ _______ _______ _____ _____    ______ ____
ROOT
ATOM      1  C   UNL     1      44.286   8.436  11.039  0.00  0.00    +0.000 C 
ATOM      2  C   UNL     1      45.253   7.339  11.517  0.00  0.00    +0.000 C 
ENDROOT
BRANCH   2   3
ATOM      3  N   UNL     1      46.357   8.006  12.264  0.00  0.00    +0.000 N 
ATOM      4  C   UNL     1      46.404   9.465  12.402  0.00  0.00    +0.000 C 
BRANCH   3   5
ATOM      5  C   UNL     1      47.046   7.313  13.270  0.00  0.00    +0.000 A 
ATOM      6  C   UNL     1      47.828   7.998  14.214  0.00  0.00    +0.000 A 
ATOM      7  C   UNL     1      48.495   7.319  15.238  0.00  0.00    +0.000 A 
ATOM      8  C   UNL     1      48.386   5.941  15.289  0.00  0.00    +0.000 A 
ATOM      9  N   UNL     1      47.656   5.227  14.413  0.00  0.00    +0.000 NA
ATOM     10  C   UNL     1      47.016   5.929  13.440  0.00  0.00    +0.000 A 
BRANCH   8  11
ATOM     11  O   UNL     1      49.036   5.292  16.322  0.00  0.00    +0.000 OA
BRANCH  11  12
ATOM     12  C   UNL     1      48.449   4.013  16.603  0.00  0.00    +0.000 C 
BRANCH  12  13
ATOM     13  C   UNL     1      47.314   4.198  17.606  0.00  0.00    +0.000 C 
BRANCH  13  14
ATOM     14  O   UNL     1      46.505   3.025  17.679  0.00  0.00    +0.000 OA
ATOM     15  H   UNL     1      45.595   3.305  17.471  0.00  0.00    +0.000 HD
ENDBRANCH  13  14
ENDBRANCH  12  13
ENDBRANCH  11  12
ENDBRANCH   8  11
ENDBRANCH   3   5
ENDBRANCH   2   3
BRANCH   2  16
ATOM     16  C   UNL     1      44.436   6.263  12.281  0.00  0.00    +0.000 C 
BRANCH  16  17
ATOM     17  C   UNL     1      44.234   4.928  11.603  0.00  0.00    +0.000 A 
ATOM     18  C   UNL     1      44.842   4.611  10.391  0.00  0.00    +0.000 A 
ATOM     19  C   UNL     1      44.764   3.309   9.871  0.00  0.00    +0.000 A 
ATOM     20  C   UNL     1      43.953   2.400  10.556  0.00  0.00    +0.000 A 
ATOM     21  C   UNL     1      43.313   2.812  11.715  0.00  0.00    +0.000 A 
ATOM     22  N   UNL     1      43.451   4.040  12.256  0.00  0.00    +0.000 NA
BRANCH  19  23
ATOM     23  C   UNL     1      45.566   2.928   8.689  0.00  0.00    +0.000 A 
ATOM     24  C   UNL     1      45.953   3.882   7.734  0.00  0.00    +0.000 A 
ATOM     25  C   UNL     1      46.699   3.521   6.615  0.00  0.00    +0.000 A 
ATOM     26  C   UNL     1      47.071   2.198   6.482  0.00  0.00    +0.000 A 
ATOM     27  N   UNL     1      46.748   1.240   7.375  0.00  0.00    +0.000 NA
ATOM     28  C   UNL     1      46.008   1.625   8.447  0.00  0.00    +0.000 A 
ENDBRANCH  19  23
ENDBRANCH  16  17
ENDBRANCH   2  16
TORSDOF 9
ENDMDL
MODEL 7
REMARK VINA RESULT:    -6.835      3.700      7.646
REMARK INTER + INTRA:         -10.947
REMARK INTER:                 -10.013
REMARK INTRA:                  -0.934
REMARK UNBOUND:                -0.716
REMARK  Name = 
REMARK  11 active torsions:
REMARK  status: ('A' for Active; 'I' for Inactive)
REMARK    1  A    between atoms: C_1  and  C_2
REMARK    2  A    between atoms: C_2  and  C_3
REMARK    3  A    between atoms: C_2  and  N_16
REMARK    4  A    between atoms: C_3  and  C_4
REMARK    5  A    between atoms: C_6  and  C_7
REMARK    6  A    between atoms: N_16  and  C_17
REMARK    7  A    between atoms: N_16  and  C_18
REMARK    8  A    between atoms: C_21  and  O_22
REMARK    9  A    between atoms: O_22  and  C_23
REMARK   10  A    between atoms: C_23  and  C_24
REMARK   11  A    between atoms: C_24  and  O_25
REMARK                            x       y       z     vdW  Elec       q    Type
REMARK                         _______ _______ _______ _____ _____    ______ ____
ROOT
ATOM      1  C   UNL     1      46.677   5.397  13.847  0.00  0.00    +0.000 C 
ATOM      2  C   UNL     1      46.077   6.012  12.572  0.00  0.00    +0.000 C 
ENDROOT
BRANCH   2   3
ATOM      3  N   UNL     1      45.058   5.059  12.047  0.00  0.00    +0.000 N 
ATOM      4  C   UNL     1      43.694   5.038  12.585  0.00  0.00    +0.000 C 
BRANCH   3   5
ATOM      5  C   UNL     1      45.165   4.562  10.740  0.00  0.00    +0.000 A 
ATOM      6  C   UNL     1      44.690   3.282  10.412  0.00  0.00    +0.000 A 
ATOM      7  C   UNL     1      44.767   2.788   9.107  0.00  0.00    +0.000 A 
ATOM      8  C   UNL     1      45.347   3.586   8.138  0.00  0.00    +0.000 A 
ATOM      9  N   UNL     1      45.824   4.819   8.388  0.00  0.00    +0.000 NA
ATOM     10  C   UNL     1      45.720   5.263   9.670  0.00  0.00    +0.000 A 
BRANCH   8  11
ATOM     11  O   UNL     1      45.393   3.088   6.850  0.00  0.00    +0.000 OA
BRANCH  11  12
ATOM     12  C   UNL     1      46.713   3.169   6.291  0.00  0.00    +0.000 C 
BRANCH  12  13
ATOM     13  C   UNL     1      47.450   1.862   6.568  0.00  0.00    +0.000 C 
BRANCH  13  14
ATOM     14  O   UNL     1      48.583   1.728   5.711  0.00  0.00    +0.000 OA
ATOM     15  H   UNL     1      49.362   1.673   6.294  0.00  0.00    +0.000 HD
ENDBRANCH  13  14
ENDBRANCH  12  13
ENDBRANCH  11  12
ENDBRANCH   8  11
ENDBRANCH   3   5
ENDBRANCH   2   3
BRANCH   2  16
ATOM     16  C   UNL     1      45.593   7.450  12.900  0.00  0.00    +0.000 C 
BRANCH  16  17
ATOM     17  C   UNL     1      46.468   8.599  12.456  0.00  0.00    +0.000 A 
ATOM     18  C   UNL     1      47.845   8.469  12.306  0.00  0.00    +0.000 A 
ATOM     19  C   UNL     1      48.604   9.505  11.738  0.00  0.00    +0.000 A 
ATOM     20  C   UNL     1      47.934  10.700  11.457  0.00  0.00    +0.000 A 
ATOM     21  C   UNL     1      46.574  10.784  11.709  0.00  0.00    +0.000 A 
ATOM     22  N   UNL     1      45.831   9.761  12.182  0.00  0.00    +0.000 NA
BRANCH  19  23
ATOM     23  C   UNL     1      50.028   9.292  11.403  0.00  0.00    +0.000 A 
ATOM     24  C   UNL     1      50.903  10.376  11.223  0.00  0.00    +0.000 A 
ATOM     25  C   UNL     1      52.241  10.177  10.898  0.00  0.00    +0.000 A 
ATOM     26  C   UNL     1      52.693   8.877  10.779  0.00  0.00    +0.000 A 
ATOM     27  N   UNL     1      51.908   7.796  10.960  0.00  0.00    +0.000 NA
ATOM     28  C   UNL     1      50.605   8.028  11.262  0.00  0.00    +0.000 A 
ENDBRANCH  19  23
ENDBRANCH  16  17
ENDBRANCH   2  16
TORSDOF 9
ENDMDL
MODEL 8
REMARK VINA RESULT:    -6.701      3.474      7.436
REMARK INTER + INTRA:         -10.747
REMARK INTER:                 -10.199
REMARK INTRA:                  -0.549
REMARK UNBOUND:                -0.716
REMARK  Name = 
REMARK  11 active torsions:
REMARK  status: ('A' for Active; 'I' for Inactive)
REMARK    1  A    between atoms: C_1  and  C_2
REMARK    2  A    between atoms: C_2  and  C_3
REMARK    3  A    between atoms: C_2  and  N_16
REMARK    4  A    between atoms: C_3  and  C_4
REMARK    5  A    between atoms: C_6  and  C_7
REMARK    6  A    between atoms: N_16  and  C_17
REMARK    7  A    between atoms: N_16  and  C_18
REMARK    8  A    between atoms: C_21  and  O_22
REMARK    9  A    between atoms: O_22  and  C_23
REMARK   10  A    between atoms: C_23  and  C_24
REMARK   11  A    between atoms: C_24  and  O_25
REMARK                            x       y       z     vdW  Elec       q    Type
REMARK                         _______ _______ _______ _____ _____    ______ ____
ROOT
ATOM      1  C   UNL     1      45.303   7.230  12.525  0.00  0.00    +0.000 C 
ATOM      2  C   UNL     1      45.072   5.729  12.768  0.00  0.00    +0.000 C 
ENDROOT
BRANCH   2   3
ATOM      3  N   UNL     1      44.134   5.242  11.717  0.00  0.00    +0.000 N 
ATOM      4  C   UNL     1      42.776   5.783  11.606  0.00  0.00    +0.000 C 
BRANCH   3   5
ATOM      5  C   UNL     1      44.633   4.697  10.525  0.00  0.00    +0.000 A 
ATOM      6  C   UNL     1      44.327   3.380  10.148  0.00  0.00    +0.000 A 
ATOM      7  C   UNL     1      44.797   2.838   8.948  0.00  0.00    +0.000 A 
ATOM      8  C   UNL     1      45.596   3.627   8.142  0.00  0.00    +0.000 A 
ATOM      9  N   UNL     1      45.929   4.894   8.448  0.00  0.00    +0.000 NA
ATOM     10  C   UNL     1      45.442   5.384   9.620  0.00  0.00    +0.000 A 
BRANCH   8  11
ATOM     11  O   UNL     1      46.032   3.079   6.950  0.00  0.00    +0.000 OA
BRANCH  11  12
ATOM     12  C   UNL     1      46.815   1.895   7.160  0.00  0.00    +0.000 C 
BRANCH  12  13
ATOM     13  C   UNL     1      48.204   2.108   6.564  0.00  0.00    +0.000 C 
BRANCH  13  14
ATOM     14  O   UNL     1      48.125   2.850   5.348  0.00  0.00    +0.000 OA
ATOM     15  H   UNL     1      47.758   3.721   5.582  0.00  0.00    +0.000 HD
ENDBRANCH  13  14
ENDBRANCH  12  13
ENDBRANCH  11  12
ENDBRANCH   8  11
ENDBRANCH   3   5
ENDBRANCH   2   3
BRANCH   2  16
ATOM     16  C   UNL     1      46.454   5.028  12.858  0.00  0.00    +0.000 C 
BRANCH  16  17
ATOM     17  C   UNL     1      47.621   5.846  13.362  0.00  0.00    +0.000 A 
ATOM     18  C   UNL     1      48.404   6.623  12.513  0.00  0.00    +0.000 A 
ATOM     19  C   UNL     1      49.374   7.494  13.034  0.00  0.00    +0.000 A 
ATOM     20  C   UNL     1      49.595   7.445  14.414  0.00  0.00    +0.000 A 
ATOM     21  C   UNL     1      48.831   6.586  15.186  0.00  0.00    +0.000 A 
ATOM     22  N   UNL     1      47.845   5.806  14.695  0.00  0.00    +0.000 NA
BRANCH  19  23
ATOM     23  C   UNL     1      50.068   8.454  12.150  0.00  0.00    +0.000 A 
ATOM     24  C   UNL     1      51.232   8.091  11.453  0.00  0.00    +0.000 A 
ATOM     25  C   UNL     1      51.892   8.998  10.628  0.00  0.00    +0.000 A 
ATOM     26  C   UNL     1      51.355  10.263  10.495  0.00  0.00    +0.000 A 
ATOM     27  N   UNL     1      50.230  10.665  11.120  0.00  0.00    +0.000 NA
ATOM     28  C   UNL     1      49.621   9.758  11.928  0.00  0.00    +0.000 A 
ENDBRANCH  19  23
ENDBRANCH  16  17
ENDBRANCH   2  16
TORSDOF 9
ENDMDL
MODEL 9
REMARK VINA RESULT:    -6.380      2.370      2.974
REMARK INTER + INTRA:         -10.266
REMARK INTER:                  -9.427
REMARK INTRA:                  -0.839
REMARK UNBOUND:                -0.716
REMARK  Name = 
REMARK  11 active torsions:
REMARK  status: ('A' for Active; 'I' for Inactive)
REMARK    1  A    between atoms: C_1  and  C_2
REMARK    2  A    between atoms: C_2  and  C_3
REMARK    3  A    between atoms: C_2  and  N_16
REMARK    4  A    between atoms: C_3  and  C_4
REMARK    5  A    between atoms: C_6  and  C_7
REMARK    6  A    between atoms: N_16  and  C_17
REMARK    7  A    between atoms: N_16  and  C_18
REMARK    8  A    between atoms: C_21  and  O_22
REMARK    9  A    between atoms: O_22  and  C_23
REMARK   10  A    between atoms: C_23  and  C_24
REMARK   11  A    between atoms: C_24  and  O_25
REMARK                            x       y       z     vdW  Elec       q    Type
REMARK                         _______ _______ _______ _____ _____    ______ ____
ROOT
ATOM      1  C   UNL     1      43.899   8.643  10.960  0.00  0.00    +0.000 C 
ATOM      2  C   UNL     1      45.066   7.749  11.412  0.00  0.00    +0.000 C 
ENDROOT
BRANCH   2   3
ATOM      3  N   UNL     1      46.129   8.639  11.961  0.00  0.00    +0.000 N 
ATOM      4  C   UNL     1      45.893  10.074  12.148  0.00  0.00    +0.000 C 
BRANCH   3   5
ATOM      5  C   UNL     1      47.131   8.111  12.789  0.00  0.00    +0.000 A 
ATOM      6  C   UNL     1      47.364   8.639  14.068  0.00  0.00    +0.000 A 
ATOM      7  C   UNL     1      48.341   8.102  14.911  0.00  0.00    +0.000 A 
ATOM      8  C   UNL     1      49.096   7.042  14.446  0.00  0.00    +0.000 A 
ATOM      9  N   UNL     1      48.925   6.493  13.230  0.00  0.00    +0.000 NA
ATOM     10  C   UNL     1      47.957   7.040  12.447  0.00  0.00    +0.000 A 
BRANCH   8  11
ATOM     11  O   UNL     1      50.042   6.512  15.304  0.00  0.00    +0.000 OA
BRANCH  11  12
ATOM     12  C   UNL     1      50.674   7.528  16.097  0.00  0.00    +0.000 C 
BRANCH  12  13
ATOM     13  C   UNL     1      52.035   7.855  15.489  0.00  0.00    +0.000 C 
BRANCH  13  14
ATOM     14  O   UNL     1      52.028   7.630  14.079  0.00  0.00    +0.000 OA
ATOM     15  H   UNL     1      52.889   7.230  13.861  0.00  0.00    +0.000 HD
ENDBRANCH  13  14
ENDBRANCH  12  13
ENDBRANCH  11  12
ENDBRANCH   8  11
ENDBRANCH   3   5
ENDBRANCH   2   3
BRANCH   2  16
ATOM     16  C   UNL     1      44.507   6.653  12.358  0.00  0.00    +0.000 C 
BRANCH  16  17
ATOM     17  C   UNL     1      44.266   5.282  11.772  0.00  0.00    +0.000 A 
ATOM     18  C   UNL     1      44.826   4.883  10.561  0.00  0.00    +0.000 A 
ATOM     19  C   UNL     1      44.715   3.552  10.126  0.00  0.00    +0.000 A 
ATOM     20  C   UNL     1      43.919   2.698  10.895  0.00  0.00    +0.000 A 
ATOM     21  C   UNL     1      43.326   3.188  12.047  0.00  0.00    +0.000 A 
ATOM     22  N   UNL     1      43.497   4.445  12.506  0.00  0.00    +0.000 NA
BRANCH  19  23
ATOM     23  C   UNL     1      45.470   3.088   8.943  0.00  0.00    +0.000 A 
ATOM     24  C   UNL     1      45.905   3.990   7.957  0.00  0.00    +0.000 A 
ATOM     25  C   UNL     1      46.606   3.551   6.837  0.00  0.00    +0.000 A 
ATOM     26  C   UNL     1      46.884   2.203   6.733  0.00  0.00    +0.000 A 
ATOM     27  N   UNL     1      46.512   1.292   7.654  0.00  0.00    +0.000 NA
ATOM     28  C   UNL     1      45.817   1.753   8.727  0.00  0.00    +0.000 A 
ENDBRANCH  19  23
ENDBRANCH  16  17
ENDBRANCH   2  16
TORSDOF 9
ENDMDL
