MODEL 1
REMARK VINA RESULT:    -6.392      0.000      0.000
REMARK INTER + INTRA:          -9.125
REMARK INTER:                  -8.260
REMARK INTRA:                  -0.865
REMARK UNBOUND:                -0.865
REMARK  Name = 
REMARK  7 active torsions:
REMARK  status: ('A' for Active; 'I' for Inactive)
REMARK    1  A    between atoms: C_1  and  O_2
REMARK    2  A    between atoms: O_2  and  C_3
REMARK    3  A    between atoms: C_5  and  C_6
REMARK    4  A    between atoms: C_8  and  O_9
REMARK    5  A    between atoms: O_9  and  C_10
REMARK    6  A    between atoms: C_10  and  C_11
REMARK    7  A    between atoms: C_16  and  C_17
REMARK                            x       y       z     vdW  Elec       q    Type
REMARK                         _______ _______ _______ _____ _____    ______ ____
ROOT
ATOM      1  C   UNL     1      47.361   7.515  12.933  0.00  0.00    +0.000 A 
ATOM      2  C   UNL     1      46.687   8.671  13.332  0.00  0.00    +0.000 A 
ATOM      3  C   UNL     1      45.497   9.014  12.717  0.00  0.00    +0.000 A 
ATOM      4  C   UNL     1      44.923   8.141  11.807  0.00  0.00    +0.000 A 
ATOM      5  F   UNL     1      43.941   8.626  11.046  0.00  0.00    +0.000 F 
ATOM      6  C   UNL     1      45.377   6.831  11.662  0.00  0.00    +0.000 A 
ATOM      7  C   UNL     1      46.645   6.548  12.193  0.00  0.00    +0.000 A 
ENDROOT
BRANCH   6   8
ATOM      8  C   UNL     1      44.535   5.697  11.091  0.00  0.00    +0.000 C 
ATOM      9  C   UNL     1      43.054   5.609  11.510  0.00  0.00    +0.000 C 
ATOM     10  C   UNL     1      42.815   5.021  12.911  0.00  0.00    +0.000 C 
ATOM     11  N   UNL     1      43.555   3.785  13.154  0.00  0.00    +0.000 NA
ATOM     12  C   UNL     1      44.984   3.960  12.890  0.00  0.00    +0.000 C 
ATOM     13  C   UNL     1      45.221   4.354  11.431  0.00  0.00    +0.000 C 
ATOM     14  H   UNL     1      43.190   3.049  12.554  0.00  0.00    +0.000 HD
ENDBRANCH   6   8
BRANCH   1  15
ATOM     15  C   UNL     1      48.861   7.406  13.096  0.00  0.00    +0.000 C 
ATOM     16  C   UNL     1      49.580   7.886  11.841  0.00  0.00    +0.000 C 
ATOM     17  C   UNL     1      49.803   8.598  13.116  0.00  0.00    +0.000 C 
BRANCH  15  18
ATOM     18  O   UNL     1      49.298   6.453  14.084  0.00  0.00    +0.000 OA
BRANCH  18  24
ATOM     19  C   UNL     1      47.664   5.428  17.228  0.00  0.00    +0.000 A 
ATOM     20  C   UNL     1      48.032   6.508  18.033  0.00  0.00    +0.000 A 
ATOM     21  C   UNL     1      48.782   7.563  17.500  0.00  0.00    +0.000 A 
ATOM     22  C   UNL     1      49.134   8.761  18.333  0.00  0.00    +0.000 C 
ATOM     23  C   UNL     1      49.183   7.494  16.160  0.00  0.00    +0.000 A 
ATOM     24  C   UNL     1      48.809   6.415  15.351  0.00  0.00    +0.000 A 
ATOM     25  C   UNL     1      48.000   5.417  15.875  0.00  0.00    +0.000 A 
BRANCH  19  27
ATOM     26  C   UNL     1      47.532   3.078  17.279  0.00  0.00    +0.000 C 
ATOM     27  O   UNL     1      46.968   4.329  17.654  0.00  0.00    +0.000 OA
ENDBRANCH  19  27
ENDBRANCH  18  24
ENDBRANCH  15  18
ENDBRANCH   1  15
TORSDOF 5
ENDMDL
MODEL 2
REMARK VINA RESULT:    -6.183      1.097      2.161
REMARK INTER + INTRA:          -8.855
REMARK INTER:                  -8.213
REMARK INTRA:                  -0.643
REMARK UNBOUND:                -0.865
REMARK  Name = 
REMARK  7 active torsions:
REMARK  status: ('A' for Active; 'I' for Inactive)
REMARK    1  A    between atoms: C_1  and  O_2
REMARK    2  A    between atoms: O_2  and  C_3
REMARK    3  A    between atoms: C_5  and  C_6
REMARK    4  A    between atoms: C_8  and  O_9
REMARK    5  A    between atoms: O_9  and  C_10
REMARK    6  A    between atoms: C_10  and  C_11
REMARK    7  A    between atoms: C_16  and  C_17
REMARK                            x       y       z     vdW  Elec       q    Type
REMARK                         _______ _______ _______ _____ _____    ______ ____
ROOT
ATOM      1  C   UNL     1      47.334   7.509  12.857  0.00  0.00    +0.000 A 
ATOM      2  C   UNL     1      46.678   8.673  13.261  0.00  0.00    +0.000 A 
ATOM      3  C   UNL     1      45.476   9.020  12.671  0.00  0.00    +0.000 A 
ATOM      4  C   UNL     1      44.875   8.143  11.783  0.00  0.00    +0.000 A 
ATOM      5  F   UNL     1      43.879   8.629  11.040  0.00  0.00    +0.000 F 
ATOM      6  C   UNL     1      45.315   6.829  11.638  0.00  0.00    +0.000 A 
ATOM      7  C   UNL     1      46.593   6.541  12.142  0.00  0.00    +0.000 A 
ENDROOT
BRANCH   6   8
ATOM      8  C   UNL     1      44.452   5.696  11.097  0.00  0.00    +0.000 C 
ATOM      9  C   UNL     1      43.007   5.570  11.620  0.00  0.00    +0.000 C 
ATOM     10  C   UNL     1      42.881   4.939  13.017  0.00  0.00    +0.000 C 
ATOM     11  N   UNL     1      43.655   3.710  13.170  0.00  0.00    +0.000 NA
ATOM     12  C   UNL     1      45.059   3.918  12.808  0.00  0.00    +0.000 C 
ATOM     13  C   UNL     1      45.182   4.357  11.347  0.00  0.00    +0.000 C 
ATOM     14  H   UNL     1      43.260   2.985  12.577  0.00  0.00    +0.000 HD
ENDBRANCH   6   8
BRANCH   1  15
ATOM     15  C   UNL     1      48.836   7.390  12.986  0.00  0.00    +0.000 C 
ATOM     16  C   UNL     1      49.521   7.690  11.658  0.00  0.00    +0.000 C 
ATOM     17  C   UNL     1      49.798   8.554  12.823  0.00  0.00    +0.000 C 
BRANCH  15  18
ATOM     18  O   UNL     1      49.289   6.561  14.074  0.00  0.00    +0.000 OA
BRANCH  18  24
ATOM     19  C   UNL     1      48.692   8.241  17.302  0.00  0.00    +0.000 A 
ATOM     20  C   UNL     1      48.277   7.140  18.054  0.00  0.00    +0.000 A 
ATOM     21  C   UNL     1      48.242   5.865  17.478  0.00  0.00    +0.000 A 
ATOM     22  C   UNL     1      47.859   4.660  18.287  0.00  0.00    +0.000 C 
ATOM     23  C   UNL     1      48.594   5.726  16.130  0.00  0.00    +0.000 A 
ATOM     24  C   UNL     1      49.016   6.828  15.378  0.00  0.00    +0.000 A 
ATOM     25  C   UNL     1      49.120   8.070  15.987  0.00  0.00    +0.000 A 
BRANCH  19  27
ATOM     26  C   UNL     1      47.931   9.791  18.903  0.00  0.00    +0.000 C 
ATOM     27  O   UNL     1      48.727   9.534  17.753  0.00  0.00    +0.000 OA
ENDBRANCH  19  27
ENDBRANCH  18  24
ENDBRANCH  15  18
ENDBRANCH   1  15
TORSDOF 5
ENDMDL
MODEL 3
REMARK VINA RESULT:    -6.119      3.013      5.285
REMARK INTER + INTRA:          -8.772
REMARK INTER:                  -8.565
REMARK INTRA:                  -0.207
REMARK UNBOUND:                -0.865
REMARK  Name = 
REMARK  7 active torsions:
REMARK  status: ('A' for Active; 'I' for Inactive)
REMARK    1  A    between atoms: C_1  and  O_2
REMARK    2  A    between atoms: O_2  and  C_3
REMARK    3  A    between atoms: C_5  and  C_6
REMARK    4  A    between atoms: C_8  and  O_9
REMARK    5  A    between atoms: O_9  and  C_10
REMARK    6  A    between atoms: C_10  and  C_11
REMARK    7  A    between atoms: C_16  and  C_17
REMARK                            x       y       z     vdW  Elec       q    Type
REMARK                         _______ _______ _______ _____ _____    ______ ____
ROOT
ATOM      1  C   UNL     1      47.468   6.552  12.488  0.00  0.00    +0.000 A 
ATOM      2  C   UNL     1      47.562   5.699  13.589  0.00  0.00    +0.000 A 
ATOM      3  C   UNL     1      46.450   4.988  13.999  0.00  0.00    +0.000 A 
ATOM      4  C   UNL     1      45.294   5.031  13.236  0.00  0.00    +0.000 A 
ATOM      5  F   UNL     1      44.181   4.565  13.805  0.00  0.00    +0.000 F 
ATOM      6  C   UNL     1      45.282   5.574  11.953  0.00  0.00    +0.000 A 
ATOM      7  C   UNL     1      46.371   6.392  11.613  0.00  0.00    +0.000 A 
ENDROOT
BRANCH   6   8
ATOM      8  C   UNL     1      44.245   5.229  10.892  0.00  0.00    +0.000 C 
ATOM      9  C   UNL     1      43.010   4.411  11.321  0.00  0.00    +0.000 C 
ATOM     10  C   UNL     1      43.266   2.905  11.498  0.00  0.00    +0.000 C 
ATOM     11  N   UNL     1      43.991   2.305  10.381  0.00  0.00    +0.000 NA
ATOM     12  C   UNL     1      45.237   3.024  10.109  0.00  0.00    +0.000 C 
ATOM     13  C   UNL     1      44.951   4.481   9.738  0.00  0.00    +0.000 C 
ATOM     14  H   UNL     1      43.406   2.321   9.550  0.00  0.00    +0.000 HD
ENDBRANCH   6   8
BRANCH   1  15
ATOM     15  C   UNL     1      48.386   7.748  12.363  0.00  0.00    +0.000 C 
ATOM     16  C   UNL     1      49.833   7.305  12.180  0.00  0.00    +0.000 C 
ATOM     17  C   UNL     1      49.177   8.085  11.110  0.00  0.00    +0.000 C 
BRANCH  15  18
ATOM     18  O   UNL     1      47.877   8.968  12.933  0.00  0.00    +0.000 OA
BRANCH  18  24
ATOM     19  C   UNL     1      44.898  10.777  11.725  0.00  0.00    +0.000 A 
ATOM     20  C   UNL     1      45.524  11.716  10.904  0.00  0.00    +0.000 A 
ATOM     21  C   UNL     1      46.915  11.700  10.746  0.00  0.00    +0.000 A 
ATOM     22  C   UNL     1      47.601  12.661   9.819  0.00  0.00    +0.000 C 
ATOM     23  C   UNL     1      47.662  10.750  11.454  0.00  0.00    +0.000 A 
ATOM     24  C   UNL     1      47.034   9.805  12.273  0.00  0.00    +0.000 A 
ATOM     25  C   UNL     1      45.649   9.786  12.356  0.00  0.00    +0.000 A 
BRANCH  19  27
ATOM     26  C   UNL     1      42.720  10.804  10.831  0.00  0.00    +0.000 C 
ATOM     27  O   UNL     1      43.553  10.727  11.981  0.00  0.00    +0.000 OA
ENDBRANCH  19  27
ENDBRANCH  18  24
ENDBRANCH  15  18
ENDBRANCH   1  15
TORSDOF 5
ENDMDL
MODEL 4
REMARK VINA RESULT:    -5.891      2.766      5.883
REMARK INTER + INTRA:          -8.478
REMARK INTER:                  -8.558
REMARK INTRA:                   0.080
REMARK UNBOUND:                -0.865
REMARK  Name = 
REMARK  7 active torsions:
REMARK  status: ('A' for Active; 'I' for Inactive)
REMARK    1  A    between atoms: C_1  and  O_2
REMARK    2  A    between atoms: O_2  and  C_3
REMARK    3  A    between atoms: C_5  and  C_6
REMARK    4  A    between atoms: C_8  and  O_9
REMARK    5  A    between atoms: O_9  and  C_10
REMARK    6  A    between atoms: C_10  and  C_11
REMARK    7  A    between atoms: C_16  and  C_17
REMARK                            x       y       z     vdW  Elec       q    Type
REMARK                         _______ _______ _______ _____ _____    ______ ____
ROOT
ATOM      1  C   UNL     1      49.146   6.902  16.216  0.00  0.00    +0.000 A 
ATOM      2  C   UNL     1      48.950   7.888  17.185  0.00  0.00    +0.000 A 
ATOM      3  C   UNL     1      48.237   7.589  18.331  0.00  0.00    +0.000 A 
ATOM      4  C   UNL     1      47.840   6.281  18.564  0.00  0.00    +0.000 A 
ATOM      5  F   UNL     1      46.932   6.091  19.522  0.00  0.00    +0.000 F 
ATOM      6  C   UNL     1      48.330   5.220  17.806  0.00  0.00    +0.000 A 
ATOM      7  C   UNL     1      48.941   5.554  16.587  0.00  0.00    +0.000 A 
ENDROOT
BRANCH   6   8
ATOM      8  C   UNL     1      48.351   3.773  18.281  0.00  0.00    +0.000 C 
ATOM      9  C   UNL     1      49.714   3.056  18.370  0.00  0.00    +0.000 C 
ATOM     10  C   UNL     1      50.276   2.576  17.022  0.00  0.00    +0.000 C 
ATOM     11  N   UNL     1      49.300   1.852  16.211  0.00  0.00    +0.000 NA
ATOM     12  C   UNL     1      48.078   2.637  16.024  0.00  0.00    +0.000 C 
ATOM     13  C   UNL     1      47.419   2.941  17.371  0.00  0.00    +0.000 C 
ATOM     14  H   UNL     1      49.068   0.973  16.667  0.00  0.00    +0.000 HD
ENDBRANCH   6   8
BRANCH   1  15
ATOM     15  C   UNL     1      49.354   7.280  14.766  0.00  0.00    +0.000 C 
ATOM     16  C   UNL     1      49.524   8.787  14.617  0.00  0.00    +0.000 C 
ATOM     17  C   UNL     1      50.633   7.894  14.223  0.00  0.00    +0.000 C 
BRANCH  15  18
ATOM     18  O   UNL     1      48.854   6.325  13.811  0.00  0.00    +0.000 OA
BRANCH  18  24
ATOM     19  C   UNL     1      45.393   5.191  13.229  0.00  0.00    +0.000 A 
ATOM     20  C   UNL     1      44.845   6.383  12.748  0.00  0.00    +0.000 A 
ATOM     21  C   UNL     1      45.649   7.518  12.597  0.00  0.00    +0.000 A 
ATOM     22  C   UNL     1      45.094   8.789  12.023  0.00  0.00    +0.000 C 
ATOM     23  C   UNL     1      46.997   7.444  12.971  0.00  0.00    +0.000 A 
ATOM     24  C   UNL     1      47.547   6.249  13.447  0.00  0.00    +0.000 A 
ATOM     25  C   UNL     1      46.755   5.112  13.516  0.00  0.00    +0.000 A 
BRANCH  19  27
ATOM     26  C   UNL     1      44.423   3.263  12.288  0.00  0.00    +0.000 C 
ATOM     27  O   UNL     1      44.693   4.036  13.452  0.00  0.00    +0.000 OA
ENDBRANCH  19  27
ENDBRANCH  18  24
ENDBRANCH  15  18
ENDBRANCH   1  15
TORSDOF 5
ENDMDL
MODEL 5
REMARK VINA RESULT:    -5.875      3.090      6.231
REMARK INTER + INTRA:          -8.457
REMARK INTER:                  -8.017
REMARK INTRA:                  -0.441
REMARK UNBOUND:                -0.865
REMARK  Name = 
REMARK  7 active torsions:
REMARK  status: ('A' for Active; 'I' for Inactive)
REMARK    1  A    between atoms: C_1  and  O_2
REMARK    2  A    between atoms: O_2  and  C_3
REMARK    3  A    between atoms: C_5  and  C_6
REMARK    4  A    between atoms: C_8  and  O_9
REMARK    5  A    between atoms: O_9  and  C_10
REMARK    6  A    between atoms: C_10  and  C_11
REMARK    7  A    between atoms: C_16  and  C_17
REMARK                            x       y       z     vdW  Elec       q    Type
REMARK                         _______ _______ _______ _____ _____    ______ ____
ROOT
ATOM      1  C   UNL     1      49.848   6.953  15.542  0.00  0.00    +0.000 A 
ATOM      2  C   UNL     1      51.095   7.052  16.161  0.00  0.00    +0.000 A 
ATOM      3  C   UNL     1      51.169   7.158  17.538  0.00  0.00    +0.000 A 
ATOM      4  C   UNL     1      50.013   7.034  18.293  0.00  0.00    +0.000 A 
ATOM      5  F   UNL     1      50.086   7.414  19.569  0.00  0.00    +0.000 F 
ATOM      6  C   UNL     1      48.820   6.576  17.738  0.00  0.00    +0.000 A 
ATOM      7  C   UNL     1      48.736   6.596  16.337  0.00  0.00    +0.000 A 
ENDROOT
BRANCH   6   8
ATOM      8  C   UNL     1      47.690   5.951  18.546  0.00  0.00    +0.000 C 
ATOM      9  C   UNL     1      47.917   5.716  20.053  0.00  0.00    +0.000 C 
ATOM     10  C   UNL     1      48.778   4.488  20.390  0.00  0.00    +0.000 C 
ATOM     11  N   UNL     1      48.370   3.280  19.678  0.00  0.00    +0.000 NA
ATOM     12  C   UNL     1      48.317   3.508  18.232  0.00  0.00    +0.000 C 
ATOM     13  C   UNL     1      47.304   4.603  17.893  0.00  0.00    +0.000 C 
ATOM     14  H   UNL     1      47.453   2.989  20.005  0.00  0.00    +0.000 HD
ENDBRANCH   6   8
BRANCH   1  15
ATOM     15  C   UNL     1      49.657   7.429  14.118  0.00  0.00    +0.000 C 
ATOM     16  C   UNL     1      49.624   8.951  14.054  0.00  0.00    +0.000 C 
ATOM     17  C   UNL     1      50.694   8.224  13.342  0.00  0.00    +0.000 C 
BRANCH  15  18
ATOM     18  O   UNL     1      49.048   6.470  13.233  0.00  0.00    +0.000 OA
BRANCH  18  24
ATOM     19  C   UNL     1      45.548   5.307  13.196  0.00  0.00    +0.000 A 
ATOM     20  C   UNL     1      44.934   6.463  12.709  0.00  0.00    +0.000 A 
ATOM     21  C   UNL     1      45.703   7.583  12.372  0.00  0.00    +0.000 A 
ATOM     22  C   UNL     1      45.068   8.811  11.788  0.00  0.00    +0.000 C 
ATOM     23  C   UNL     1      47.088   7.532  12.569  0.00  0.00    +0.000 A 
ATOM     24  C   UNL     1      47.705   6.372  13.051  0.00  0.00    +0.000 A 
ATOM     25  C   UNL     1      46.936   5.245  13.306  0.00  0.00    +0.000 A 
BRANCH  19  27
ATOM     26  C   UNL     1      43.552   4.060  13.123  0.00  0.00    +0.000 C 
ATOM     27  O   UNL     1      44.891   4.173  13.592  0.00  0.00    +0.000 OA
ENDBRANCH  19  27
ENDBRANCH  18  24
ENDBRANCH  15  18
ENDBRANCH   1  15
TORSDOF 5
ENDMDL
MODEL 6
REMARK VINA RESULT:    -5.781      1.673      2.512
REMARK INTER + INTRA:          -8.336
REMARK INTER:                  -7.772
REMARK INTRA:                  -0.564
REMARK UNBOUND:                -0.865
REMARK  Name = 
REMARK  7 active torsions:
REMARK  status: ('A' for Active; 'I' for Inactive)
REMARK    1  A    between atoms: C_1  and  O_2
REMARK    2  A    between atoms: O_2  and  C_3
REMARK    3  A    between atoms: C_5  and  C_6
REMARK    4  A    between atoms: C_8  and  O_9
REMARK    5  A    between atoms: O_9  and  C_10
REMARK    6  A    between atoms: C_10  and  C_11
REMARK    7  A    between atoms: C_16  and  C_17
REMARK                            x       y       z     vdW  Elec       q    Type
REMARK                         _______ _______ _______ _____ _____    ______ ____
ROOT
ATOM      1  C   UNL     1      47.371   7.516  12.767  0.00  0.00    +0.000 A 
ATOM      2  C   UNL     1      46.703   8.667  13.189  0.00  0.00    +0.000 A 
ATOM      3  C   UNL     1      45.488   9.000  12.619  0.00  0.00    +0.000 A 
ATOM      4  C   UNL     1      44.887   8.119  11.733  0.00  0.00    +0.000 A 
ATOM      5  F   UNL     1      43.874   8.595  11.009  0.00  0.00    +0.000 F 
ATOM      6  C   UNL     1      45.346   6.813  11.573  0.00  0.00    +0.000 A 
ATOM      7  C   UNL     1      46.636   6.542  12.056  0.00  0.00    +0.000 A 
ENDROOT
BRANCH   6   8
ATOM      8  C   UNL     1      44.493   5.671  11.036  0.00  0.00    +0.000 C 
ATOM      9  C   UNL     1      43.029   5.572  11.510  0.00  0.00    +0.000 C 
ATOM     10  C   UNL     1      42.847   4.986  12.920  0.00  0.00    +0.000 C 
ATOM     11  N   UNL     1      43.605   3.756  13.139  0.00  0.00    +0.000 NA
ATOM     12  C   UNL     1      45.022   3.942  12.822  0.00  0.00    +0.000 C 
ATOM     13  C   UNL     1      45.202   4.335  11.354  0.00  0.00    +0.000 C 
ATOM     14  H   UNL     1      43.224   3.017  12.554  0.00  0.00    +0.000 HD
ENDBRANCH   6   8
BRANCH   1  15
ATOM     15  C   UNL     1      48.877   7.420  12.874  0.00  0.00    +0.000 C 
ATOM     16  C   UNL     1      49.534   7.669  11.522  0.00  0.00    +0.000 C 
ATOM     17  C   UNL     1      49.822   8.587  12.643  0.00  0.00    +0.000 C 
BRANCH  15  18
ATOM     18  O   UNL     1      49.359   6.645  13.988  0.00  0.00    +0.000 OA
BRANCH  18  24
ATOM     19  C   UNL     1      51.449   8.007  16.706  0.00  0.00    +0.000 A 
ATOM     20  C   UNL     1      50.441   8.499  17.538  0.00  0.00    +0.000 A 
ATOM     21  C   UNL     1      49.095   8.333  17.190  0.00  0.00    +0.000 A 
ATOM     22  C   UNL     1      47.997   8.799  18.101  0.00  0.00    +0.000 C 
ATOM     23  C   UNL     1      48.786   7.700  15.980  0.00  0.00    +0.000 A 
ATOM     24  C   UNL     1      49.795   7.200  15.149  0.00  0.00    +0.000 A 
ATOM     25  C   UNL     1      51.120   7.305  15.547  0.00  0.00    +0.000 A 
BRANCH  19  27
ATOM     26  C   UNL     1      53.588   8.250  15.753  0.00  0.00    +0.000 C 
ATOM     27  O   UNL     1      52.793   8.148  16.928  0.00  0.00    +0.000 OA
ENDBRANCH  19  27
ENDBRANCH  18  24
ENDBRANCH  15  18
ENDBRANCH   1  15
TORSDOF 5
ENDMDL
MODEL 7
REMARK VINA RESULT:    -5.633      2.075      2.685
REMARK INTER + INTRA:          -8.144
REMARK INTER:                  -8.236
REMARK INTRA:                   0.092
REMARK UNBOUND:                -0.865
REMARK  Name = 
REMARK  7 active torsions:
REMARK  status: ('A' for Active; 'I' for Inactive)
REMARK    1  A    between atoms: C_1  and  O_2
REMARK    2  A    between atoms: O_2  and  C_3
REMARK    3  A    between atoms: C_5  and  C_6
REMARK    4  A    between atoms: C_8  and  O_9
REMARK    5  A    between atoms: O_9  and  C_10
REMARK    6  A    between atoms: C_10  and  C_11
REMARK    7  A    between atoms: C_16  and  C_17
REMARK                            x       y       z     vdW  Elec       q    Type
REMARK                         _______ _______ _______ _____ _____    ______ ____
ROOT
ATOM      1  C   UNL     1      47.594   6.384  12.779  0.00  0.00    +0.000 A 
ATOM      2  C   UNL     1      47.672   5.384  13.750  0.00  0.00    +0.000 A 
ATOM      3  C   UNL     1      46.550   4.632  14.048  0.00  0.00    +0.000 A 
ATOM      4  C   UNL     1      45.402   4.791  13.289  0.00  0.00    +0.000 A 
ATOM      5  F   UNL     1      44.281   4.259  13.778  0.00  0.00    +0.000 F 
ATOM      6  C   UNL     1      45.406   5.508  12.094  0.00  0.00    +0.000 A 
ATOM      7  C   UNL     1      46.504   6.356  11.880  0.00  0.00    +0.000 A 
ENDROOT
BRANCH   6   8
ATOM      8  C   UNL     1      44.377   5.322  10.986  0.00  0.00    +0.000 C 
ATOM      9  C   UNL     1      43.084   4.549  11.316  0.00  0.00    +0.000 C 
ATOM     10  C   UNL     1      43.243   3.020  11.365  0.00  0.00    +0.000 C 
ATOM     11  N   UNL     1      43.959   2.475  10.214  0.00  0.00    +0.000 NA
ATOM     12  C   UNL     1      45.253   3.136  10.031  0.00  0.00    +0.000 C 
ATOM     13  C   UNL     1      45.066   4.635   9.785  0.00  0.00    +0.000 C 
ATOM     14  H   UNL     1      43.396   2.601   9.376  0.00  0.00    +0.000 HD
ENDBRANCH   6   8
BRANCH   1  15
ATOM     15  C   UNL     1      48.521   7.578  12.829  0.00  0.00    +0.000 C 
ATOM     16  C   UNL     1      49.497   7.558  11.659  0.00  0.00    +0.000 C 
ATOM     17  C   UNL     1      48.545   8.680  11.784  0.00  0.00    +0.000 C 
BRANCH  15  18
ATOM     18  O   UNL     1      48.680   8.169  14.133  0.00  0.00    +0.000 OA
BRANCH  18  24
ATOM     19  C   UNL     1      49.718   6.322  17.152  0.00  0.00    +0.000 A 
ATOM     20  C   UNL     1      51.102   6.372  16.980  0.00  0.00    +0.000 A 
ATOM     21  C   UNL     1      51.654   7.049  15.886  0.00  0.00    +0.000 A 
ATOM     22  C   UNL     1      53.141   7.167  15.717  0.00  0.00    +0.000 C 
ATOM     23  C   UNL     1      50.790   7.638  14.954  0.00  0.00    +0.000 A 
ATOM     24  C   UNL     1      49.403   7.594  15.130  0.00  0.00    +0.000 A 
ATOM     25  C   UNL     1      48.877   6.987  16.261  0.00  0.00    +0.000 A 
BRANCH  19  27
ATOM     26  C   UNL     1      47.795   5.135  17.815  0.00  0.00    +0.000 C 
ATOM     27  O   UNL     1      49.072   5.658  18.161  0.00  0.00    +0.000 OA
ENDBRANCH  19  27
ENDBRANCH  18  24
ENDBRANCH  15  18
ENDBRANCH   1  15
TORSDOF 5
ENDMDL
MODEL 8
REMARK VINA RESULT:    -5.563      2.995      6.813
REMARK INTER + INTRA:          -8.054
REMARK INTER:                  -7.964
REMARK INTRA:                  -0.090
REMARK UNBOUND:                -0.865
REMARK  Name = 
REMARK  7 active torsions:
REMARK  status: ('A' for Active; 'I' for Inactive)
REMARK    1  A    between atoms: C_1  and  O_2
REMARK    2  A    between atoms: O_2  and  C_3
REMARK    3  A    between atoms: C_5  and  C_6
REMARK    4  A    between atoms: C_8  and  O_9
REMARK    5  A    between atoms: O_9  and  C_10
REMARK    6  A    between atoms: C_10  and  C_11
REMARK    7  A    between atoms: C_16  and  C_17
REMARK                            x       y       z     vdW  Elec       q    Type
REMARK                         _______ _______ _______ _____ _____    ______ ____
ROOT
ATOM      1  C   UNL     1      47.506   7.487  12.789  0.00  0.00    +0.000 A 
ATOM      2  C   UNL     1      48.318   7.621  11.662  0.00  0.00    +0.000 A 
ATOM      3  C   UNL     1      49.635   8.017  11.810  0.00  0.00    +0.000 A 
ATOM      4  C   UNL     1      50.166   8.150  13.083  0.00  0.00    +0.000 A 
ATOM      5  F   UNL     1      51.332   8.791  13.184  0.00  0.00    +0.000 F 
ATOM      6  C   UNL     1      49.498   7.676  14.210  0.00  0.00    +0.000 A 
ATOM      7  C   UNL     1      48.131   7.398  14.053  0.00  0.00    +0.000 A 
ENDROOT
BRANCH   6   8
ATOM      8  C   UNL     1      50.185   7.330  15.525  0.00  0.00    +0.000 C 
ATOM      9  C   UNL     1      49.733   6.058  16.270  0.00  0.00    +0.000 C 
ATOM     10  C   UNL     1      48.415   6.202  17.048  0.00  0.00    +0.000 C 
ATOM     11  N   UNL     1      48.360   7.402  17.879  0.00  0.00    +0.000 NA
ATOM     12  C   UNL     1      48.646   8.605  17.094  0.00  0.00    +0.000 C 
ATOM     13  C   UNL     1      50.047   8.535  16.485  0.00  0.00    +0.000 C 
ATOM     14  H   UNL     1      49.040   7.323  18.631  0.00  0.00    +0.000 HD
ENDBRANCH   6   8
BRANCH   1  15
ATOM     15  C   UNL     1      46.007   7.656  12.680  0.00  0.00    +0.000 C 
ATOM     16  C   UNL     1      45.598   9.092  12.985  0.00  0.00    +0.000 C 
ATOM     17  C   UNL     1      45.323   8.534  11.646  0.00  0.00    +0.000 C 
BRANCH  15  18
ATOM     18  O   UNL     1      45.245   6.443  12.836  0.00  0.00    +0.000 OA
BRANCH  18  24
ATOM     19  C   UNL     1      45.305   4.673   9.601  0.00  0.00    +0.000 A 
ATOM     20  C   UNL     1      44.601   3.522   9.963  0.00  0.00    +0.000 A 
ATOM     21  C   UNL     1      44.096   3.383  11.261  0.00  0.00    +0.000 A 
ATOM     22  C   UNL     1      43.283   2.183  11.651  0.00  0.00    +0.000 C 
ATOM     23  C   UNL     1      44.342   4.400  12.192  0.00  0.00    +0.000 A 
ATOM     24  C   UNL     1      45.042   5.556  11.828  0.00  0.00    +0.000 A 
ATOM     25  C   UNL     1      45.467   5.712  10.517  0.00  0.00    +0.000 A 
BRANCH  19  27
ATOM     26  C   UNL     1      46.066   3.730   7.582  0.00  0.00    +0.000 C 
ATOM     27  O   UNL     1      45.875   4.896   8.376  0.00  0.00    +0.000 OA
ENDBRANCH  19  27
ENDBRANCH  18  24
ENDBRANCH  15  18
ENDBRANCH   1  15
TORSDOF 5
ENDMDL
MODEL 9
REMARK VINA RESULT:    -5.558      3.497      7.093
REMARK INTER + INTRA:          -8.048
REMARK INTER:                  -8.097
REMARK INTRA:                   0.049
REMARK UNBOUND:                -0.865
REMARK  Name = 
REMARK  7 active torsions:
REMARK  status: ('A' for Active; 'I' for Inactive)
REMARK    1  A    between atoms: C_1  and  O_2
REMARK    2  A    between atoms: O_2  and  C_3
REMARK    3  A    between atoms: C_5  and  C_6
REMARK    4  A    between atoms: C_8  and  O_9
REMARK    5  A    between atoms: O_9  and  C_10
REMARK    6  A    between atoms: C_10  and  C_11
REMARK    7  A    between atoms: C_16  and  C_17
REMARK                            x       y       z     vdW  Elec       q    Type
REMARK                         _______ _______ _______ _____ _____    ______ ____
ROOT
ATOM      1  C   UNL     1      48.171   5.651  16.315  0.00  0.00    +0.000 A 
ATOM      2  C   UNL     1      47.316   4.547  16.312  0.00  0.00    +0.000 A 
ATOM      3  C   UNL     1      47.427   3.594  17.308  0.00  0.00    +0.000 A 
ATOM      4  C   UNL     1      48.294   3.813  18.367  0.00  0.00    +0.000 A 
ATOM      5  F   UNL     1      48.571   2.765  19.143  0.00  0.00    +0.000 F 
ATOM      6  C   UNL     1      48.884   5.056  18.587  0.00  0.00    +0.000 A 
ATOM      7  C   UNL     1      48.860   5.957  17.510  0.00  0.00    +0.000 A 
ENDROOT
BRANCH   6   8
ATOM      8  C   UNL     1      49.419   5.518  19.936  0.00  0.00    +0.000 C 
ATOM      9  C   UNL     1      48.702   5.026  21.210  0.00  0.00    +0.000 C 
ATOM     10  C   UNL     1      47.387   5.756  21.530  0.00  0.00    +0.000 C 
ATOM     11  N   UNL     1      47.500   7.211  21.463  0.00  0.00    +0.000 NA
ATOM     12  C   UNL     1      48.043   7.642  20.173  0.00  0.00    +0.000 C 
ATOM     13  C   UNL     1      49.443   7.064  19.954  0.00  0.00    +0.000 C 
ATOM     14  H   UNL     1      48.108   7.538  22.209  0.00  0.00    +0.000 HD
ENDBRANCH   6   8
BRANCH   1  15
ATOM     15  C   UNL     1      48.515   6.359  15.024  0.00  0.00    +0.000 C 
ATOM     16  C   UNL     1      48.573   7.868  15.230  0.00  0.00    +0.000 C 
ATOM     17  C   UNL     1      49.792   7.152  14.803  0.00  0.00    +0.000 C 
BRANCH  15  18
ATOM     18  O   UNL     1      48.215   5.618  13.826  0.00  0.00    +0.000 OA
BRANCH  18  24
ATOM     19  C   UNL     1      44.853   4.507  12.795  0.00  0.00    +0.000 A 
ATOM     20  C   UNL     1      44.393   5.692  12.216  0.00  0.00    +0.000 A 
ATOM     21  C   UNL     1      45.226   6.816  12.152  0.00  0.00    +0.000 A 
ATOM     22  C   UNL     1      44.773   8.078  11.478  0.00  0.00    +0.000 C 
ATOM     23  C   UNL     1      46.507   6.736  12.711  0.00  0.00    +0.000 A 
ATOM     24  C   UNL     1      46.970   5.547  13.285  0.00  0.00    +0.000 A 
ATOM     25  C   UNL     1      46.160   4.421  13.270  0.00  0.00    +0.000 A 
BRANCH  19  27
ATOM     26  C   UNL     1      43.418   2.942  11.777  0.00  0.00    +0.000 C 
ATOM     27  O   UNL     1      44.112   3.365  12.945  0.00  0.00    +0.000 OA
ENDBRANCH  19  27
ENDBRANCH  18  24
ENDBRANCH  15  18
ENDBRANCH   1  15
TORSDOF 5
ENDMDL
