MODEL 1
REMARK VINA RESULT:    -7.013      0.000      0.000
REMARK INTER + INTRA:         -10.118
REMARK INTER:                  -9.063
REMARK INTRA:                  -1.056
REMARK UNBOUND:                -1.056
REMARK  Name = 
REMARK  5 active torsions:
REMARK  status: ('A' for Active; 'I' for Inactive)
REMARK    1  A    between atoms: C_2  and  C_18
REMARK    2  A    between atoms: N_3  and  C_4
REMARK    3  A    between atoms: C_4  and  C_5
REMARK    4  A    between atoms: C_8  and  C_9
REMARK    5  A    between atoms: C_9  and  C_10
REMARK                            x       y       z     vdW  Elec       q    Type
REMARK                         _______ _______ _______ _____ _____    ______ ____
ROOT
ATOM      1  O   UNL     1      49.588   5.808  18.817  0.00  0.00    +0.000 OA
ATOM      2  C   UNL     1      50.369   5.413  17.954  0.00  0.00    +0.000 C 
ATOM      3  N   UNL     1      50.229   5.790  16.637  0.00  0.00    +0.000 N 
ATOM      4  H   UNL     1      50.742   5.296  15.913  0.00  0.00    +0.000 HD
ENDROOT
BRANCH   2   5
ATOM      5  C   UNL     1      51.505   4.553  18.302  0.00  0.00    +0.000 A 
ATOM      6  C   UNL     1      52.527   5.064  19.088  0.00  0.00    +0.000 A 
ATOM      7  S   UNL     1      53.767   3.943  19.420  0.00  0.00    +0.000 S 
ATOM      8  C   UNL     1      52.960   2.718  18.562  0.00  0.00    +0.000 A 
ATOM      9  N   UNL     1      53.476   1.465  18.490  0.00  0.00    +0.000 NA
ATOM     10  C   UNL     1      52.744   0.623  17.844  0.00  0.00    +0.000 A 
ATOM     11  N   UNL     1      51.546   0.931  17.244  0.00  0.00    +0.000 N 
ATOM     12  C   UNL     1      51.005   2.199  17.260  0.00  0.00    +0.000 A 
ATOM     13  O   UNL     1      49.970   2.449  16.658  0.00  0.00    +0.000 OA
ATOM     14  C   UNL     1      51.779   3.170  17.998  0.00  0.00    +0.000 A 
ATOM     15  H   UNL     1      51.030   0.225  16.739  0.00  0.00    +0.000 HD
ENDBRANCH   2   5
BRANCH   3  16
ATOM     16  C   UNL     1      49.075   6.571  16.236  0.00  0.00    +0.000 C 
BRANCH  16  17
ATOM     17  C   UNL     1      48.158   5.831  15.292  0.00  0.00    +0.000 A 
ATOM     18  C   UNL     1      47.602   4.613  15.694  0.00  0.00    +0.000 A 
ATOM     19  C   UNL     1      46.765   3.889  14.837  0.00  0.00    +0.000 A 
ATOM     20  C   UNL     1      46.470   4.360  13.548  0.00  0.00    +0.000 A 
ATOM     21  C   UNL     1      47.018   5.587  13.156  0.00  0.00    +0.000 A 
ATOM     22  C   UNL     1      47.860   6.319  14.017  0.00  0.00    +0.000 A 
BRANCH  20  23
ATOM     23  C   UNL     1      45.714   3.475  12.583  0.00  0.00    +0.000 C 
BRANCH  23  24
ATOM     24  C   UNL     1      44.167   3.458  12.482  0.00  0.00    +0.000 C 
ATOM     25  C   UNL     1      43.601   3.436  11.062  0.00  0.00    +0.000 C 
ATOM     26  C   UNL     1      43.555   4.816  10.424  0.00  0.00    +0.000 C 
ATOM     27  C   UNL     1      42.979   5.894  11.345  0.00  0.00    +0.000 C 
ATOM     28  N   UNL     1      43.427   5.860  12.734  0.00  0.00    +0.000 NA
ATOM     29  C   UNL     1      43.431   4.515  13.312  0.00  0.00    +0.000 C 
ATOM     30  H   UNL     1      44.356   6.267  12.798  0.00  0.00    +0.000 HD
ENDBRANCH  23  24
ENDBRANCH  20  23
ENDBRANCH  16  17
ENDBRANCH   3  16
TORSDOF 5
ENDMDL
MODEL 2
REMARK VINA RESULT:    -6.933      3.234      9.435
REMARK INTER + INTRA:         -10.015
REMARK INTER:                  -9.047
REMARK INTRA:                  -0.969
REMARK UNBOUND:                -1.056
REMARK  Name = 
REMARK  5 active torsions:
REMARK  status: ('A' for Active; 'I' for Inactive)
REMARK    1  A    between atoms: C_2  and  C_18
REMARK    2  A    between atoms: N_3  and  C_4
REMARK    3  A    between atoms: C_4  and  C_5
REMARK    4  A    between atoms: C_8  and  C_9
REMARK    5  A    between atoms: C_9  and  C_10
REMARK                            x       y       z     vdW  Elec       q    Type
REMARK                         _______ _______ _______ _____ _____    ______ ____
ROOT
ATOM      1  O   UNL     1      47.299   3.165  14.047  0.00  0.00    +0.000 OA
ATOM      2  C   UNL     1      46.864   4.211  14.524  0.00  0.00    +0.000 C 
ATOM      3  N   UNL     1      46.895   4.445  15.881  0.00  0.00    +0.000 N 
ATOM      4  H   UNL     1      46.348   5.206  16.275  0.00  0.00    +0.000 HD
ENDROOT
BRANCH   2   5
ATOM      5  C   UNL     1      46.330   5.269  13.660  0.00  0.00    +0.000 A 
ATOM      6  C   UNL     1      47.101   6.394  13.409  0.00  0.00    +0.000 A 
ATOM      7  S   UNL     1      46.353   7.525  12.376  0.00  0.00    +0.000 S 
ATOM      8  C   UNL     1      44.989   6.531  12.189  0.00  0.00    +0.000 A 
ATOM      9  N   UNL     1      43.965   6.900  11.379  0.00  0.00    +0.000 NA
ATOM     10  C   UNL     1      43.011   6.037  11.296  0.00  0.00    +0.000 A 
ATOM     11  N   UNL     1      42.983   4.839  11.971  0.00  0.00    +0.000 N 
ATOM     12  C   UNL     1      43.982   4.442  12.833  0.00  0.00    +0.000 A 
ATOM     13  O   UNL     1      43.890   3.400  13.467  0.00  0.00    +0.000 OA
ATOM     14  C   UNL     1      45.086   5.368  12.936  0.00  0.00    +0.000 A 
ATOM     15  H   UNL     1      42.196   4.214  11.872  0.00  0.00    +0.000 HD
ENDBRANCH   2   5
BRANCH   3  16
ATOM     16  C   UNL     1      47.338   3.395  16.777  0.00  0.00    +0.000 C 
BRANCH  16  17
ATOM     17  C   UNL     1      48.806   3.485  17.115  0.00  0.00    +0.000 A 
ATOM     18  C   UNL     1      49.370   4.735  17.385  0.00  0.00    +0.000 A 
ATOM     19  C   UNL     1      50.732   4.859  17.681  0.00  0.00    +0.000 A 
ATOM     20  C   UNL     1      51.571   3.734  17.704  0.00  0.00    +0.000 A 
ATOM     21  C   UNL     1      50.998   2.483  17.447  0.00  0.00    +0.000 A 
ATOM     22  C   UNL     1      49.627   2.355  17.150  0.00  0.00    +0.000 A 
BRANCH  20  23
ATOM     23  C   UNL     1      53.065   3.917  17.847  0.00  0.00    +0.000 C 
BRANCH  23  24
ATOM     24  C   UNL     1      53.813   3.763  19.196  0.00  0.00    +0.000 C 
ATOM     25  C   UNL     1      52.984   4.061  20.445  0.00  0.00    +0.000 C 
ATOM     26  C   UNL     1      52.891   5.548  20.750  0.00  0.00    +0.000 C 
ATOM     27  C   UNL     1      54.235   6.274  20.665  0.00  0.00    +0.000 C 
ATOM     28  N   UNL     1      55.088   5.917  19.534  0.00  0.00    +0.000 NA
ATOM     29  C   UNL     1      55.166   4.475  19.296  0.00  0.00    +0.000 C 
ATOM     30  H   UNL     1      54.753   6.389  18.698  0.00  0.00    +0.000 HD
ENDBRANCH  23  24
ENDBRANCH  20  23
ENDBRANCH  16  17
ENDBRANCH   3  16
TORSDOF 5
ENDMDL
MODEL 3
REMARK VINA RESULT:    -6.864      4.257      8.666
REMARK INTER + INTRA:          -9.926
REMARK INTER:                  -8.774
REMARK INTRA:                  -1.152
REMARK UNBOUND:                -1.056
REMARK  Name = 
REMARK  5 active torsions:
REMARK  status: ('A' for Active; 'I' for Inactive)
REMARK    1  A    between atoms: C_2  and  C_18
REMARK    2  A    between atoms: N_3  and  C_4
REMARK    3  A    between atoms: C_4  and  C_5
REMARK    4  A    between atoms: C_8  and  C_9
REMARK    5  A    between atoms: C_9  and  C_10
REMARK                            x       y       z     vdW  Elec       q    Type
REMARK                         _______ _______ _______ _____ _____    ______ ____
ROOT
ATOM      1  O   UNL     1      47.868   6.917  12.214  0.00  0.00    +0.000 OA
ATOM      2  C   UNL     1      46.994   6.401  12.907  0.00  0.00    +0.000 C 
ATOM      3  N   UNL     1      47.195   6.159  14.249  0.00  0.00    +0.000 N 
ATOM      4  H   UNL     1      46.558   5.549  14.753  0.00  0.00    +0.000 HD
ENDROOT
BRANCH   2   5
ATOM      5  C   UNL     1      45.685   6.059  12.340  0.00  0.00    +0.000 A 
ATOM      6  C   UNL     1      44.931   7.051  11.730  0.00  0.00    +0.000 A 
ATOM      7  S   UNL     1      43.444   6.498  11.105  0.00  0.00    +0.000 S 
ATOM      8  C   UNL     1      43.775   4.903  11.588  0.00  0.00    +0.000 A 
ATOM      9  N   UNL     1      42.905   3.898  11.313  0.00  0.00    +0.000 NA
ATOM     10  C   UNL     1      43.296   2.732  11.698  0.00  0.00    +0.000 A 
ATOM     11  N   UNL     1      44.478   2.484  12.355  0.00  0.00    +0.000 N 
ATOM     12  C   UNL     1      45.372   3.479  12.688  0.00  0.00    +0.000 A 
ATOM     13  O   UNL     1      46.382   3.229  13.331  0.00  0.00    +0.000 OA
ATOM     14  C   UNL     1      44.987   4.801  12.250  0.00  0.00    +0.000 A 
ATOM     15  H   UNL     1      44.717   1.546  12.644  0.00  0.00    +0.000 HD
ENDBRANCH   2   5
BRANCH   3  16
ATOM     16  C   UNL     1      48.500   6.405  14.831  0.00  0.00    +0.000 C 
BRANCH  16  17
ATOM     17  C   UNL     1      48.657   5.806  16.207  0.00  0.00    +0.000 A 
ATOM     18  C   UNL     1      47.678   4.932  16.689  0.00  0.00    +0.000 A 
ATOM     19  C   UNL     1      47.779   4.375  17.968  0.00  0.00    +0.000 A 
ATOM     20  C   UNL     1      48.860   4.688  18.807  0.00  0.00    +0.000 A 
ATOM     21  C   UNL     1      49.845   5.552  18.316  0.00  0.00    +0.000 A 
ATOM     22  C   UNL     1      49.746   6.114  17.028  0.00  0.00    +0.000 A 
BRANCH  20  23
ATOM     23  C   UNL     1      48.852   4.217  20.245  0.00  0.00    +0.000 C 
BRANCH  23  24
ATOM     24  C   UNL     1      48.408   5.115  21.428  0.00  0.00    +0.000 C 
ATOM     25  C   UNL     1      47.241   6.057  21.137  0.00  0.00    +0.000 C 
ATOM     26  C   UNL     1      47.672   7.331  20.428  0.00  0.00    +0.000 C 
ATOM     27  C   UNL     1      48.907   7.987  21.050  0.00  0.00    +0.000 C 
ATOM     28  N   UNL     1      49.989   7.086  21.436  0.00  0.00    +0.000 NA
ATOM     29  C   UNL     1      49.526   5.887  22.138  0.00  0.00    +0.000 C 
ATOM     30  H   UNL     1      50.517   6.821  20.609  0.00  0.00    +0.000 HD
ENDBRANCH  23  24
ENDBRANCH  20  23
ENDBRANCH  16  17
ENDBRANCH   3  16
TORSDOF 5
ENDMDL
MODEL 4
REMARK VINA RESULT:    -6.787      4.619      8.829
REMARK INTER + INTRA:          -9.827
REMARK INTER:                  -8.649
REMARK INTRA:                  -1.177
REMARK UNBOUND:                -1.056
REMARK  Name = 
REMARK  5 active torsions:
REMARK  status: ('A' for Active; 'I' for Inactive)
REMARK    1  A    between atoms: C_2  and  C_18
REMARK    2  A    between atoms: N_3  and  C_4
REMARK    3  A    between atoms: C_4  and  C_5
REMARK    4  A    between atoms: C_8  and  C_9
REMARK    5  A    between atoms: C_9  and  C_10
REMARK                            x       y       z     vdW  Elec       q    Type
REMARK                         _______ _______ _______ _____ _____    ______ ____
ROOT
ATOM      1  O   UNL     1      48.485   6.130  13.944  0.00  0.00    +0.000 OA
ATOM      2  C   UNL     1      47.355   5.677  14.113  0.00  0.00    +0.000 C 
ATOM      3  N   UNL     1      47.022   4.996  15.264  0.00  0.00    +0.000 N 
ATOM      4  H   UNL     1      46.165   4.452  15.298  0.00  0.00    +0.000 HD
ENDROOT
BRANCH   2   5
ATOM      5  C   UNL     1      46.304   5.879  13.110  0.00  0.00    +0.000 A 
ATOM      6  C   UNL     1      45.992   7.169  12.705  0.00  0.00    +0.000 A 
ATOM      7  S   UNL     1      44.764   7.241  11.525  0.00  0.00    +0.000 S 
ATOM      8  C   UNL     1      44.636   5.547  11.479  0.00  0.00    +0.000 A 
ATOM      9  N   UNL     1      43.775   4.938  10.626  0.00  0.00    +0.000 NA
ATOM     10  C   UNL     1      43.807   3.650  10.663  0.00  0.00    +0.000 A 
ATOM     11  N   UNL     1      44.615   2.915  11.498  0.00  0.00    +0.000 N 
ATOM     12  C   UNL     1      45.475   3.492  12.407  0.00  0.00    +0.000 A 
ATOM     13  O   UNL     1      46.129   2.805  13.180  0.00  0.00    +0.000 OA
ATOM     14  C   UNL     1      45.492   4.937  12.380  0.00  0.00    +0.000 A 
ATOM     15  H   UNL     1      44.579   1.905  11.488  0.00  0.00    +0.000 HD
ENDBRANCH   2   5
BRANCH   3  16
ATOM     16  C   UNL     1      48.050   4.703  16.242  0.00  0.00    +0.000 C 
BRANCH  16  17
ATOM     17  C   UNL     1      47.996   5.609  17.448  0.00  0.00    +0.000 A 
ATOM     18  C   UNL     1      48.766   6.775  17.463  0.00  0.00    +0.000 A 
ATOM     19  C   UNL     1      48.758   7.628  18.573  0.00  0.00    +0.000 A 
ATOM     20  C   UNL     1      47.985   7.329  19.705  0.00  0.00    +0.000 A 
ATOM     21  C   UNL     1      47.205   6.168  19.681  0.00  0.00    +0.000 A 
ATOM     22  C   UNL     1      47.210   5.308  18.565  0.00  0.00    +0.000 A 
BRANCH  20  23
ATOM     23  C   UNL     1      48.134   8.168  20.955  0.00  0.00    +0.000 C 
BRANCH  23  24
ATOM     24  C   UNL     1      47.151   9.305  21.335  0.00  0.00    +0.000 C 
ATOM     25  C   UNL     1      46.438   9.977  20.162  0.00  0.00    +0.000 C 
ATOM     26  C   UNL     1      47.289  11.039  19.483  0.00  0.00    +0.000 C 
ATOM     27  C   UNL     1      47.977  11.989  20.465  0.00  0.00    +0.000 C 
ATOM     28  N   UNL     1      48.568  11.373  21.649  0.00  0.00    +0.000 NA
ATOM     29  C   UNL     1      47.702  10.377  22.282  0.00  0.00    +0.000 C 
ATOM     30  H   UNL     1      49.458  10.949  21.399  0.00  0.00    +0.000 HD
ENDBRANCH  23  24
ENDBRANCH  20  23
ENDBRANCH  16  17
ENDBRANCH   3  16
TORSDOF 5
ENDMDL
MODEL 5
REMARK VINA RESULT:    -6.580      6.396      9.469
REMARK INTER + INTRA:          -9.559
REMARK INTER:                  -8.633
REMARK INTRA:                  -0.926
REMARK UNBOUND:                -1.056
REMARK  Name = 
REMARK  5 active torsions:
REMARK  status: ('A' for Active; 'I' for Inactive)
REMARK    1  A    between atoms: C_2  and  C_18
REMARK    2  A    between atoms: N_3  and  C_4
REMARK    3  A    between atoms: C_4  and  C_5
REMARK    4  A    between atoms: C_8  and  C_9
REMARK    5  A    between atoms: C_9  and  C_10
REMARK                            x       y       z     vdW  Elec       q    Type
REMARK                         _______ _______ _______ _____ _____    ______ ____
ROOT
ATOM      1  O   UNL     1      44.720   7.654  11.032  0.00  0.00    +0.000 OA
ATOM      2  C   UNL     1      45.153   6.743  11.735  0.00  0.00    +0.000 C 
ATOM      3  N   UNL     1      46.047   6.989  12.754  0.00  0.00    +0.000 N 
ATOM      4  H   UNL     1      46.551   6.217  13.180  0.00  0.00    +0.000 HD
ENDROOT
BRANCH   2   5
ATOM      5  C   UNL     1      44.701   5.361  11.540  0.00  0.00    +0.000 A 
ATOM      6  C   UNL     1      43.957   4.744  12.535  0.00  0.00    +0.000 A 
ATOM      7  S   UNL     1      43.493   3.148  12.157  0.00  0.00    +0.000 S 
ATOM      8  C   UNL     1      44.231   3.239  10.630  0.00  0.00    +0.000 A 
ATOM      9  N   UNL     1      44.167   2.198   9.763  0.00  0.00    +0.000 NA
ATOM     10  C   UNL     1      44.732   2.413   8.625  0.00  0.00    +0.000 A 
ATOM     11  N   UNL     1      45.378   3.578   8.284  0.00  0.00    +0.000 N 
ATOM     12  C   UNL     1      45.501   4.646   9.147  0.00  0.00    +0.000 A 
ATOM     13  O   UNL     1      46.140   5.640   8.832  0.00  0.00    +0.000 OA
ATOM     14  C   UNL     1      44.856   4.458  10.426  0.00  0.00    +0.000 A 
ATOM     15  H   UNL     1      45.815   3.676   7.379  0.00  0.00    +0.000 HD
ENDBRANCH   2   5
BRANCH   3  16
ATOM     16  C   UNL     1      46.581   8.325  12.928  0.00  0.00    +0.000 C 
BRANCH  16  17
ATOM     17  C   UNL     1      47.973   8.485  12.366  0.00  0.00    +0.000 A 
ATOM     18  C   UNL     1      48.835   7.384  12.351  0.00  0.00    +0.000 A 
ATOM     19  C   UNL     1      50.139   7.501  11.858  0.00  0.00    +0.000 A 
ATOM     20  C   UNL     1      50.622   8.727  11.377  0.00  0.00    +0.000 A 
ATOM     21  C   UNL     1      49.751   9.823  11.381  0.00  0.00    +0.000 A 
ATOM     22  C   UNL     1      48.437   9.709  11.875  0.00  0.00    +0.000 A 
BRANCH  20  23
ATOM     23  C   UNL     1      52.085   8.868  11.020  0.00  0.00    +0.000 C 
BRANCH  23  24
ATOM     24  C   UNL     1      52.656   8.510   9.624  0.00  0.00    +0.000 C 
ATOM     25  C   UNL     1      52.403   7.077   9.158  0.00  0.00    +0.000 C 
ATOM     26  C   UNL     1      53.397   6.083   9.739  0.00  0.00    +0.000 C 
ATOM     27  C   UNL     1      54.850   6.555   9.656  0.00  0.00    +0.000 C 
ATOM     28  N   UNL     1      55.093   7.955   9.992  0.00  0.00    +0.000 NA
ATOM     29  C   UNL     1      54.126   8.874   9.390  0.00  0.00    +0.000 C 
ATOM     30  H   UNL     1      55.090   8.063  11.003  0.00  0.00    +0.000 HD
ENDBRANCH  23  24
ENDBRANCH  20  23
ENDBRANCH  16  17
ENDBRANCH   3  16
TORSDOF 5
ENDMDL
MODEL 6
REMARK VINA RESULT:    -6.569      4.319      8.643
REMARK INTER + INTRA:          -9.545
REMARK INTER:                  -8.344
REMARK INTRA:                  -1.201
REMARK UNBOUND:                -1.056
REMARK  Name = 
REMARK  5 active torsions:
REMARK  status: ('A' for Active; 'I' for Inactive)
REMARK    1  A    between atoms: C_2  and  C_18
REMARK    2  A    between atoms: N_3  and  C_4
REMARK    3  A    between atoms: C_4  and  C_5
REMARK    4  A    between atoms: C_8  and  C_9
REMARK    5  A    between atoms: C_9  and  C_10
REMARK                            x       y       z     vdW  Elec       q    Type
REMARK                         _______ _______ _______ _____ _____    ______ ____
ROOT
ATOM      1  O   UNL     1      44.911   7.425  12.512  0.00  0.00    +0.000 OA
ATOM      2  C   UNL     1      45.599   6.510  12.065  0.00  0.00    +0.000 C 
ATOM      3  N   UNL     1      46.954   6.664  11.868  0.00  0.00    +0.000 N 
ATOM      4  H   UNL     1      47.463   5.986  11.309  0.00  0.00    +0.000 HD
ENDROOT
BRANCH   2   5
ATOM      5  C   UNL     1      45.008   5.203  11.759  0.00  0.00    +0.000 A 
ATOM      6  C   UNL     1      44.292   4.535  12.742  0.00  0.00    +0.000 A 
ATOM      7  S   UNL     1      43.654   3.039  12.233  0.00  0.00    +0.000 S 
ATOM      8  C   UNL     1      44.272   3.250  10.665  0.00  0.00    +0.000 A 
ATOM      9  N   UNL     1      44.042   2.328   9.696  0.00  0.00    +0.000 NA
ATOM     10  C   UNL     1      44.532   2.630   8.543  0.00  0.00    +0.000 A 
ATOM     11  N   UNL     1      45.253   3.770   8.277  0.00  0.00    +0.000 N 
ATOM     12  C   UNL     1      45.543   4.713   9.239  0.00  0.00    +0.000 A 
ATOM     13  O   UNL     1      46.244   5.682   8.980  0.00  0.00    +0.000 OA
ATOM     14  C   UNL     1      44.989   4.429  10.542  0.00  0.00    +0.000 A 
ATOM     15  H   UNL     1      45.623   3.938   7.352  0.00  0.00    +0.000 HD
ENDBRANCH   2   5
BRANCH   3  16
ATOM     16  C   UNL     1      47.563   7.962  12.079  0.00  0.00    +0.000 C 
BRANCH  16  17
ATOM     17  C   UNL     1      48.251   8.084  13.417  0.00  0.00    +0.000 A 
ATOM     18  C   UNL     1      49.381   7.304  13.679  0.00  0.00    +0.000 A 
ATOM     19  C   UNL     1      50.031   7.375  14.916  0.00  0.00    +0.000 A 
ATOM     20  C   UNL     1      49.560   8.221  15.931  0.00  0.00    +0.000 A 
ATOM     21  C   UNL     1      48.436   9.010  15.660  0.00  0.00    +0.000 A 
ATOM     22  C   UNL     1      47.780   8.942  14.415  0.00  0.00    +0.000 A 
BRANCH  20  23
ATOM     23  C   UNL     1      50.170   8.144  17.313  0.00  0.00    +0.000 C 
BRANCH  23  24
ATOM     24  C   UNL     1      49.720   7.116  18.382  0.00  0.00    +0.000 C 
ATOM     25  C   UNL     1      50.560   5.842  18.463  0.00  0.00    +0.000 C 
ATOM     26  C   UNL     1      50.172   4.811  17.415  0.00  0.00    +0.000 C 
ATOM     27  C   UNL     1      48.661   4.596  17.300  0.00  0.00    +0.000 C 
ATOM     28  N   UNL     1      47.836   5.800  17.333  0.00  0.00    +0.000 NA
ATOM     29  C   UNL     1      48.232   6.750  18.374  0.00  0.00    +0.000 C 
ATOM     30  H   UNL     1      47.865   6.253  16.423  0.00  0.00    +0.000 HD
ENDBRANCH  23  24
ENDBRANCH  20  23
ENDBRANCH  16  17
ENDBRANCH   3  16
TORSDOF 5
ENDMDL
MODEL 7
REMARK VINA RESULT:    -6.549      2.811      3.580
REMARK INTER + INTRA:          -9.519
REMARK INTER:                  -8.278
REMARK INTRA:                  -1.240
REMARK UNBOUND:                -1.056
REMARK  Name = 
REMARK  5 active torsions:
REMARK  status: ('A' for Active; 'I' for Inactive)
REMARK    1  A    between atoms: C_2  and  C_18
REMARK    2  A    between atoms: N_3  and  C_4
REMARK    3  A    between atoms: C_4  and  C_5
REMARK    4  A    between atoms: C_8  and  C_9
REMARK    5  A    between atoms: C_9  and  C_10
REMARK                            x       y       z     vdW  Elec       q    Type
REMARK                         _______ _______ _______ _____ _____    ______ ____
ROOT
ATOM      1  O   UNL     1      50.225   7.589  14.625  0.00  0.00    +0.000 OA
ATOM      2  C   UNL     1      49.366   7.490  15.498  0.00  0.00    +0.000 C 
ATOM      3  N   UNL     1      48.088   7.966  15.301  0.00  0.00    +0.000 N 
ATOM      4  H   UNL     1      47.461   8.069  16.093  0.00  0.00    +0.000 HD
ENDROOT
BRANCH   2   5
ATOM      5  C   UNL     1      49.658   6.823  16.771  0.00  0.00    +0.000 A 
ATOM      6  C   UNL     1      50.503   7.440  17.682  0.00  0.00    +0.000 A 
ATOM      7  S   UNL     1      50.733   6.552  19.119  0.00  0.00    +0.000 S 
ATOM      8  C   UNL     1      49.675   5.330  18.594  0.00  0.00    +0.000 A 
ATOM      9  N   UNL     1      49.391   4.267  19.389  0.00  0.00    +0.000 NA
ATOM     10  C   UNL     1      48.544   3.436  18.888  0.00  0.00    +0.000 A 
ATOM     11  N   UNL     1      47.968   3.564  17.646  0.00  0.00    +0.000 N 
ATOM     12  C   UNL     1      48.258   4.605  16.790  0.00  0.00    +0.000 A 
ATOM     13  O   UNL     1      47.776   4.650  15.667  0.00  0.00    +0.000 OA
ATOM     14  C   UNL     1      49.183   5.578  17.324  0.00  0.00    +0.000 A 
ATOM     15  H   UNL     1      47.322   2.866  17.306  0.00  0.00    +0.000 HD
ENDBRANCH   2   5
BRANCH   3  16
ATOM     16  C   UNL     1      47.780   8.704  14.093  0.00  0.00    +0.000 C 
BRANCH  16  17
ATOM     17  C   UNL     1      46.964   7.907  13.104  0.00  0.00    +0.000 A 
ATOM     18  C   UNL     1      47.331   6.589  12.820  0.00  0.00    +0.000 A 
ATOM     19  C   UNL     1      46.611   5.827  11.893  0.00  0.00    +0.000 A 
ATOM     20  C   UNL     1      45.509   6.369  11.214  0.00  0.00    +0.000 A 
ATOM     21  C   UNL     1      45.136   7.685  11.512  0.00  0.00    +0.000 A 
ATOM     22  C   UNL     1      45.858   8.454  12.446  0.00  0.00    +0.000 A 
BRANCH  20  23
ATOM     23  C   UNL     1      44.863   5.589  10.091  0.00  0.00    +0.000 C 
BRANCH  23  24
ATOM     24  C   UNL     1      43.675   4.618  10.307  0.00  0.00    +0.000 C 
ATOM     25  C   UNL     1      42.681   5.025  11.394  0.00  0.00    +0.000 C 
ATOM     26  C   UNL     1      43.148   4.649  12.791  0.00  0.00    +0.000 C 
ATOM     27  C   UNL     1      43.682   3.218  12.892  0.00  0.00    +0.000 C 
ATOM     28  N   UNL     1      44.546   2.776  11.801  0.00  0.00    +0.000 NA
ATOM     29  C   UNL     1      44.042   3.139  10.475  0.00  0.00    +0.000 C 
ATOM     30  H   UNL     1      45.478   3.159  11.934  0.00  0.00    +0.000 HD
ENDBRANCH  23  24
ENDBRANCH  20  23
ENDBRANCH  16  17
ENDBRANCH   3  16
TORSDOF 5
ENDMDL
MODEL 8
REMARK VINA RESULT:    -6.513      4.376      8.314
REMARK INTER + INTRA:          -9.473
REMARK INTER:                  -8.403
REMARK INTRA:                  -1.070
REMARK UNBOUND:                -1.056
REMARK  Name = 
REMARK  5 active torsions:
REMARK  status: ('A' for Active; 'I' for Inactive)
REMARK    1  A    between atoms: C_2  and  C_18
REMARK    2  A    between atoms: N_3  and  C_4
REMARK    3  A    between atoms: C_4  and  C_5
REMARK    4  A    between atoms: C_8  and  C_9
REMARK    5  A    between atoms: C_9  and  C_10
REMARK                            x       y       z     vdW  Elec       q    Type
REMARK                         _______ _______ _______ _____ _____    ______ ____
ROOT
ATOM      1  O   UNL     1      45.339   8.073  11.879  0.00  0.00    +0.000 OA
ATOM      2  C   UNL     1      46.050   7.085  11.709  0.00  0.00    +0.000 C 
ATOM      3  N   UNL     1      47.334   7.034  12.207  0.00  0.00    +0.000 N 
ATOM      4  H   UNL     1      47.973   6.314  11.882  0.00  0.00    +0.000 HD
ENDROOT
BRANCH   2   5
ATOM      5  C   UNL     1      45.543   5.904  11.002  0.00  0.00    +0.000 A 
ATOM      6  C   UNL     1      45.883   5.713   9.671  0.00  0.00    +0.000 A 
ATOM      7  S   UNL     1      45.233   4.290   8.993  0.00  0.00    +0.000 S 
ATOM      8  C   UNL     1      44.512   3.854  10.468  0.00  0.00    +0.000 A 
ATOM      9  N   UNL     1      43.821   2.693  10.587  0.00  0.00    +0.000 NA
ATOM     10  C   UNL     1      43.360   2.464  11.769  0.00  0.00    +0.000 A 
ATOM     11  N   UNL     1      43.514   3.309  12.842  0.00  0.00    +0.000 N 
ATOM     12  C   UNL     1      44.174   4.516  12.756  0.00  0.00    +0.000 A 
ATOM     13  O   UNL     1      44.233   5.271  13.716  0.00  0.00    +0.000 OA
ATOM     14  C   UNL     1      44.732   4.801  11.454  0.00  0.00    +0.000 A 
ATOM     15  H   UNL     1      43.113   3.076  13.740  0.00  0.00    +0.000 HD
ENDBRANCH   2   5
BRANCH   3  16
ATOM     16  C   UNL     1      47.902   8.208  12.838  0.00  0.00    +0.000 C 
BRANCH  16  17
ATOM     17  C   UNL     1      48.375   7.952  14.249  0.00  0.00    +0.000 A 
ATOM     18  C   UNL     1      49.125   6.804  14.521  0.00  0.00    +0.000 A 
ATOM     19  C   UNL     1      49.562   6.523  15.820  0.00  0.00    +0.000 A 
ATOM     20  C   UNL     1      49.249   7.379  16.887  0.00  0.00    +0.000 A 
ATOM     21  C   UNL     1      48.510   8.534  16.608  0.00  0.00    +0.000 A 
ATOM     22  C   UNL     1      48.070   8.821  15.301  0.00  0.00    +0.000 A 
BRANCH  20  23
ATOM     23  C   UNL     1      49.577   6.961  18.303  0.00  0.00    +0.000 C 
BRANCH  23  24
ATOM     24  C   UNL     1      48.706   5.970  19.118  0.00  0.00    +0.000 C 
ATOM     25  C   UNL     1      49.269   4.556  19.251  0.00  0.00    +0.000 C 
ATOM     26  C   UNL     1      48.985   3.690  18.033  0.00  0.00    +0.000 C 
ATOM     27  C   UNL     1      47.537   3.778  17.547  0.00  0.00    +0.000 C 
ATOM     28  N   UNL     1      46.948   5.113  17.519  0.00  0.00    +0.000 NA
ATOM     29  C   UNL     1      47.227   5.899  18.722  0.00  0.00    +0.000 C 
ATOM     30  H   UNL     1      47.279   5.610  16.696  0.00  0.00    +0.000 HD
ENDBRANCH  23  24
ENDBRANCH  20  23
ENDBRANCH  16  17
ENDBRANCH   3  16
TORSDOF 5
ENDMDL
MODEL 9
REMARK VINA RESULT:    -6.221      3.827      8.904
REMARK INTER + INTRA:          -9.095
REMARK INTER:                  -8.124
REMARK INTRA:                  -0.971
REMARK UNBOUND:                -1.056
REMARK  Name = 
REMARK  5 active torsions:
REMARK  status: ('A' for Active; 'I' for Inactive)
REMARK    1  A    between atoms: C_2  and  C_18
REMARK    2  A    between atoms: N_3  and  C_4
REMARK    3  A    between atoms: C_4  and  C_5
REMARK    4  A    between atoms: C_8  and  C_9
REMARK    5  A    between atoms: C_9  and  C_10
REMARK                            x       y       z     vdW  Elec       q    Type
REMARK                         _______ _______ _______ _____ _____    ______ ____
ROOT
ATOM      1  O   UNL     1      48.583   5.750  13.060  0.00  0.00    +0.000 OA
ATOM      2  C   UNL     1      47.580   6.373  13.401  0.00  0.00    +0.000 C 
ATOM      3  N   UNL     1      47.626   7.305  14.414  0.00  0.00    +0.000 N 
ATOM      4  H   UNL     1      46.763   7.651  14.822  0.00  0.00    +0.000 HD
ENDROOT
BRANCH   2   5
ATOM      5  C   UNL     1      46.300   6.175  12.712  0.00  0.00    +0.000 A 
ATOM      6  C   UNL     1      45.686   7.256  12.097  0.00  0.00    +0.000 A 
ATOM      7  S   UNL     1      44.217   6.866  11.326  0.00  0.00    +0.000 S 
ATOM      8  C   UNL     1      44.369   5.228  11.748  0.00  0.00    +0.000 A 
ATOM      9  N   UNL     1      43.444   4.318  11.351  0.00  0.00    +0.000 NA
ATOM     10  C   UNL     1      43.702   3.105  11.704  0.00  0.00    +0.000 A 
ATOM     11  N   UNL     1      44.799   2.724  12.439  0.00  0.00    +0.000 N 
ATOM     12  C   UNL     1      45.742   3.619  12.896  0.00  0.00    +0.000 A 
ATOM     13  O   UNL     1      46.669   3.251  13.604  0.00  0.00    +0.000 OA
ATOM     14  C   UNL     1      45.508   4.988  12.500  0.00  0.00    +0.000 A 
ATOM     15  H   UNL     1      44.932   1.756  12.696  0.00  0.00    +0.000 HD
ENDBRANCH   2   5
BRANCH   3  16
ATOM     16  C   UNL     1      48.849   7.473  15.174  0.00  0.00    +0.000 C 
BRANCH  16  17
ATOM     17  C   UNL     1      48.680   7.166  16.642  0.00  0.00    +0.000 A 
ATOM     18  C   UNL     1      48.407   8.209  17.532  0.00  0.00    +0.000 A 
ATOM     19  C   UNL     1      48.266   7.965  18.903  0.00  0.00    +0.000 A 
ATOM     20  C   UNL     1      48.407   6.670  19.423  0.00  0.00    +0.000 A 
ATOM     21  C   UNL     1      48.666   5.626  18.527  0.00  0.00    +0.000 A 
ATOM     22  C   UNL     1      48.807   5.868  17.146  0.00  0.00    +0.000 A 
BRANCH  20  23
ATOM     23  C   UNL     1      48.429   6.463  20.921  0.00  0.00    +0.000 C 
BRANCH  23  24
ATOM     24  C   UNL     1      49.733   6.478  21.760  0.00  0.00    +0.000 C 
ATOM     25  C   UNL     1      50.807   7.458  21.288  0.00  0.00    +0.000 C 
ATOM     26  C   UNL     1      51.639   6.913  20.138  0.00  0.00    +0.000 C 
ATOM     27  C   UNL     1      52.112   5.474  20.356  0.00  0.00    +0.000 C 
ATOM     28  N   UNL     1      51.128   4.550  20.912  0.00  0.00    +0.000 NA
ATOM     29  C   UNL     1      50.369   5.111  22.031  0.00  0.00    +0.000 C 
ATOM     30  H   UNL     1      50.491   4.255  20.176  0.00  0.00    +0.000 HD
ENDBRANCH  23  24
ENDBRANCH  20  23
ENDBRANCH  16  17
ENDBRANCH   3  16
TORSDOF 5
ENDMDL
