MODEL 1
REMARK VINA RESULT:    -7.465      0.000      0.000
REMARK INTER + INTRA:         -11.966
REMARK INTER:                 -10.738
REMARK INTRA:                  -1.228
REMARK UNBOUND:                -1.228
REMARK  Name = 
REMARK  10 active torsions:
REMARK  status: ('A' for Active; 'I' for Inactive)
REMARK    1  A    between atoms: C_1  and  C_2
REMARK    2  A    between atoms: C_2  and  C_3
REMARK    3  A    between atoms: C_3  and  C_4
REMARK    4  A    between atoms: C_3  and  O_13
REMARK    5  A    between atoms: C_4  and  C_5
REMARK    6  A    between atoms: C_9  and  C_10
REMARK    7  A    between atoms: C_10  and  N_11
REMARK    8  A    between atoms: O_13  and  C_14
REMARK    9  A    between atoms: C_17  and  C_18
REMARK   10  A    between atoms: C_21  and  C_22
REMARK                            x       y       z     vdW  Elec       q    Type
REMARK                         _______ _______ _______ _____ _____    ______ ____
ROOT
ATOM      1  C   UNL     1      44.263   3.755  11.387  0.00  0.00    +0.000 C 
ENDROOT
BRANCH   1   3
ATOM      2  C   UNL     1      42.473   5.596  11.810  0.00  0.00    +0.000 C 
ATOM      3  C   UNL     1      42.827   4.113  11.832  0.00  0.00    +0.000 C 
ENDBRANCH   1   3
BRANCH   1   4
ATOM      4  C   UNL     1      44.254   2.620  10.331  0.00  0.00    +0.000 C 
BRANCH   4   5
ATOM      5  C   UNL     1      45.129   2.946   9.141  0.00  0.00    +0.000 A 
ATOM      6  C   UNL     1      45.314   4.269   8.721  0.00  0.00    +0.000 A 
ATOM      7  C   UNL     1      46.230   4.564   7.711  0.00  0.00    +0.000 A 
ATOM      8  C   UNL     1      46.943   3.538   7.093  0.00  0.00    +0.000 A 
ATOM      9  C   UNL     1      46.716   2.201   7.441  0.00  0.00    +0.000 A 
ATOM     10  C   UNL     1      45.819   1.918   8.480  0.00  0.00    +0.000 A 
BRANCH   9  11
ATOM     11  C   UNL     1      47.435   1.085   6.728  0.00  0.00    +0.000 C 
BRANCH  11  12
ATOM     12  N   UNL     1      48.423   1.605   5.787  0.00  0.00    +0.000 NA
ATOM     13  H   UNL     1      48.024   1.572   4.851  0.00  0.00    +0.000 HD
ATOM     14  H   UNL     1      49.232   0.990   5.780  0.00  0.00    +0.000 HD
ENDBRANCH  11  12
ENDBRANCH   9  11
ENDBRANCH   4   5
ENDBRANCH   1   4
BRANCH   1  15
ATOM     15  O   UNL     1      45.051   3.339  12.517  0.00  0.00    +0.000 OA
BRANCH  15  16
ATOM     16  C   UNL     1      45.892   4.238  13.119  0.00  0.00    +0.000 A 
ATOM     17  C   UNL     1      46.478   4.110  14.374  0.00  0.00    +0.000 A 
ATOM     18  C   UNL     1      47.370   5.083  14.839  0.00  0.00    +0.000 A 
ATOM     19  C   UNL     1      47.715   6.198  14.054  0.00  0.00    +0.000 A 
ATOM     20  C   UNL     1      47.166   6.318  12.767  0.00  0.00    +0.000 A 
ATOM     21  C   UNL     1      47.569   7.381  11.787  0.00  0.00    +0.000 C 
ATOM     22  C   UNL     1      46.213   5.361  12.345  0.00  0.00    +0.000 A 
BRANCH  19  23
ATOM     23  C   UNL     1      48.721   7.127  14.655  0.00  0.00    +0.000 C 
ATOM     24  N   UNL     1      48.266   8.129  15.464  0.00  0.00    +0.000 N 
ATOM     25  O   UNL     1      49.918   6.969  14.474  0.00  0.00    +0.000 OA
ATOM     26  H   UNL     1      47.317   8.177  15.803  0.00  0.00    +0.000 HD
ATOM     27  H   UNL     1      48.973   8.681  15.935  0.00  0.00    +0.000 HD
ENDBRANCH  19  23
ENDBRANCH  15  16
ENDBRANCH   1  15
TORSDOF 8
ENDMDL
MODEL 2
REMARK VINA RESULT:    -7.168      2.242      6.755
REMARK INTER + INTRA:         -11.539
REMARK INTER:                 -11.532
REMARK INTRA:                  -0.007
REMARK UNBOUND:                -1.228
REMARK  Name = 
REMARK  10 active torsions:
REMARK  status: ('A' for Active; 'I' for Inactive)
REMARK    1  A    between atoms: C_1  and  C_2
REMARK    2  A    between atoms: C_2  and  C_3
REMARK    3  A    between atoms: C_3  and  C_4
REMARK    4  A    between atoms: C_3  and  O_13
REMARK    5  A    between atoms: C_4  and  C_5
REMARK    6  A    between atoms: C_9  and  C_10
REMARK    7  A    between atoms: C_10  and  N_11
REMARK    8  A    between atoms: O_13  and  C_14
REMARK    9  A    between atoms: C_17  and  C_18
REMARK   10  A    between atoms: C_21  and  C_22
REMARK                            x       y       z     vdW  Elec       q    Type
REMARK                         _______ _______ _______ _____ _____    ______ ____
ROOT
ATOM      1  C   UNL     1      44.302   4.141  11.506  0.00  0.00    +0.000 C 
ENDROOT
BRANCH   1   3
ATOM      2  C   UNL     1      42.263   5.725  11.834  0.00  0.00    +0.000 C 
ATOM      3  C   UNL     1      43.096   4.567  12.374  0.00  0.00    +0.000 C 
ENDBRANCH   1   3
BRANCH   1   4
ATOM      4  C   UNL     1      45.182   5.362  11.135  0.00  0.00    +0.000 C 
BRANCH   4   5
ATOM      5  C   UNL     1      46.257   5.620  12.167  0.00  0.00    +0.000 A 
ATOM      6  C   UNL     1      47.181   6.659  12.004  0.00  0.00    +0.000 A 
ATOM      7  C   UNL     1      48.076   6.970  13.027  0.00  0.00    +0.000 A 
ATOM      8  C   UNL     1      48.078   6.226  14.206  0.00  0.00    +0.000 A 
ATOM      9  C   UNL     1      47.217   5.131  14.359  0.00  0.00    +0.000 A 
ATOM     10  C   UNL     1      46.298   4.849  13.339  0.00  0.00    +0.000 A 
BRANCH   9  11
ATOM     11  C   UNL     1      47.262   4.283  15.603  0.00  0.00    +0.000 C 
BRANCH  11  12
ATOM     12  N   UNL     1      47.842   2.971  15.332  0.00  0.00    +0.000 NA
ATOM     13  H   UNL     1      47.976   2.879  14.327  0.00  0.00    +0.000 HD
ATOM     14  H   UNL     1      47.178   2.250  15.603  0.00  0.00    +0.000 HD
ENDBRANCH  11  12
ENDBRANCH   9  11
ENDBRANCH   4   5
ENDBRANCH   1   4
BRANCH   1  15
ATOM     15  O   UNL     1      43.852   3.501  10.299  0.00  0.00    +0.000 OA
BRANCH  15  16
ATOM     16  C   UNL     1      44.732   3.320   9.265  0.00  0.00    +0.000 A 
ATOM     17  C   UNL     1      45.348   4.318   8.518  0.00  0.00    +0.000 A 
ATOM     18  C   UNL     1      46.277   3.987   7.526  0.00  0.00    +0.000 A 
ATOM     19  C   UNL     1      46.630   2.650   7.267  0.00  0.00    +0.000 A 
ATOM     20  C   UNL     1      46.050   1.633   8.042  0.00  0.00    +0.000 A 
ATOM     21  C   UNL     1      46.453   0.190   7.957  0.00  0.00    +0.000 C 
ATOM     22  C   UNL     1      45.061   1.985   8.991  0.00  0.00    +0.000 A 
BRANCH  19  23
ATOM     23  C   UNL     1      47.675   2.447   6.218  0.00  0.00    +0.000 C 
ATOM     24  N   UNL     1      47.536   3.118   5.035  0.00  0.00    +0.000 N 
ATOM     25  O   UNL     1      48.654   1.747   6.423  0.00  0.00    +0.000 OA
ATOM     26  H   UNL     1      46.863   3.855   4.894  0.00  0.00    +0.000 HD
ATOM     27  H   UNL     1      48.307   3.039   4.382  0.00  0.00    +0.000 HD
ENDBRANCH  19  23
ENDBRANCH  15  16
ENDBRANCH   1  15
TORSDOF 8
ENDMDL
MODEL 3
REMARK VINA RESULT:    -6.987      2.381      6.772
REMARK INTER + INTRA:         -11.279
REMARK INTER:                 -10.427
REMARK INTRA:                  -0.852
REMARK UNBOUND:                -1.228
REMARK  Name = 
REMARK  10 active torsions:
REMARK  status: ('A' for Active; 'I' for Inactive)
REMARK    1  A    between atoms: C_1  and  C_2
REMARK    2  A    between atoms: C_2  and  C_3
REMARK    3  A    between atoms: C_3  and  C_4
REMARK    4  A    between atoms: C_3  and  O_13
REMARK    5  A    between atoms: C_4  and  C_5
REMARK    6  A    between atoms: C_9  and  C_10
REMARK    7  A    between atoms: C_10  and  N_11
REMARK    8  A    between atoms: O_13  and  C_14
REMARK    9  A    between atoms: C_17  and  C_18
REMARK   10  A    between atoms: C_21  and  C_22
REMARK                            x       y       z     vdW  Elec       q    Type
REMARK                         _______ _______ _______ _____ _____    ______ ____
ROOT
ATOM      1  C   UNL     1      44.774   4.417  11.524  0.00  0.00    +0.000 C 
ENDROOT
BRANCH   1   3
ATOM      2  C   UNL     1      42.841   4.722  13.240  0.00  0.00    +0.000 C 
ATOM      3  C   UNL     1      44.167   4.050  12.897  0.00  0.00    +0.000 C 
ENDBRANCH   1   3
BRANCH   1   4
ATOM      4  C   UNL     1      44.386   5.859  11.109  0.00  0.00    +0.000 C 
BRANCH   4   5
ATOM      5  C   UNL     1      45.365   6.884  11.638  0.00  0.00    +0.000 A 
ATOM      6  C   UNL     1      44.924   8.007  12.348  0.00  0.00    +0.000 A 
ATOM      7  C   UNL     1      45.845   8.867  12.946  0.00  0.00    +0.000 A 
ATOM      8  C   UNL     1      47.212   8.629  12.812  0.00  0.00    +0.000 A 
ATOM      9  C   UNL     1      47.677   7.558  12.040  0.00  0.00    +0.000 A 
ATOM     10  C   UNL     1      46.744   6.680  11.472  0.00  0.00    +0.000 A 
BRANCH   9  11
ATOM     11  C   UNL     1      49.154   7.337  11.837  0.00  0.00    +0.000 C 
BRANCH  11  12
ATOM     12  N   UNL     1      49.802   6.905  13.072  0.00  0.00    +0.000 NA
ATOM     13  H   UNL     1      49.306   7.320  13.858  0.00  0.00    +0.000 HD
ATOM     14  H   UNL     1      50.749   7.275  13.099  0.00  0.00    +0.000 HD
ENDBRANCH  11  12
ENDBRANCH   9  11
ENDBRANCH   4   5
ENDBRANCH   1   4
BRANCH   1  15
ATOM     15  O   UNL     1      44.321   3.500  10.512  0.00  0.00    +0.000 OA
BRANCH  15  16
ATOM     16  C   UNL     1      45.051   3.350   9.363  0.00  0.00    +0.000 A 
ATOM     17  C   UNL     1      45.543   4.371   8.557  0.00  0.00    +0.000 A 
ATOM     18  C   UNL     1      46.331   4.072   7.440  0.00  0.00    +0.000 A 
ATOM     19  C   UNL     1      46.663   2.745   7.109  0.00  0.00    +0.000 A 
ATOM     20  C   UNL     1      46.211   1.706   7.938  0.00  0.00    +0.000 A 
ATOM     21  C   UNL     1      46.619   0.271   7.771  0.00  0.00    +0.000 C 
ATOM     22  C   UNL     1      45.358   2.026   9.021  0.00  0.00    +0.000 A 
BRANCH  19  23
ATOM     23  C   UNL     1      47.555   2.577   5.922  0.00  0.00    +0.000 C 
ATOM     24  N   UNL     1      48.892   2.398   6.143  0.00  0.00    +0.000 N 
ATOM     25  O   UNL     1      47.105   2.548   4.787  0.00  0.00    +0.000 OA
ATOM     26  H   UNL     1      49.280   2.214   7.056  0.00  0.00    +0.000 HD
ATOM     27  H   UNL     1      49.457   2.189   5.329  0.00  0.00    +0.000 HD
ENDBRANCH  19  23
ENDBRANCH  15  16
ENDBRANCH   1  15
TORSDOF 8
ENDMDL
MODEL 4
REMARK VINA RESULT:    -6.760      2.196      6.612
REMARK INTER + INTRA:         -10.952
REMARK INTER:                 -10.687
REMARK INTRA:                  -0.265
REMARK UNBOUND:                -1.228
REMARK  Name = 
REMARK  10 active torsions:
REMARK  status: ('A' for Active; 'I' for Inactive)
REMARK    1  A    between atoms: C_1  and  C_2
REMARK    2  A    between atoms: C_2  and  C_3
REMARK    3  A    between atoms: C_3  and  C_4
REMARK    4  A    between atoms: C_3  and  O_13
REMARK    5  A    between atoms: C_4  and  C_5
REMARK    6  A    between atoms: C_9  and  C_10
REMARK    7  A    between atoms: C_10  and  N_11
REMARK    8  A    between atoms: O_13  and  C_14
REMARK    9  A    between atoms: C_17  and  C_18
REMARK   10  A    between atoms: C_21  and  C_22
REMARK                            x       y       z     vdW  Elec       q    Type
REMARK                         _______ _______ _______ _____ _____    ______ ____
ROOT
ATOM      1  C   UNL     1      43.907   3.229  12.028  0.00  0.00    +0.000 C 
ENDROOT
BRANCH   1   3
ATOM      2  C   UNL     1      42.464   5.393  11.917  0.00  0.00    +0.000 C 
ATOM      3  C   UNL     1      43.387   4.499  12.739  0.00  0.00    +0.000 C 
ENDBRANCH   1   3
BRANCH   1   4
ATOM      4  C   UNL     1      45.456   3.182  12.030  0.00  0.00    +0.000 C 
BRANCH   4   5
ATOM      5  C   UNL     1      46.057   4.357  12.771  0.00  0.00    +0.000 A 
ATOM      6  C   UNL     1      46.697   4.183  14.003  0.00  0.00    +0.000 A 
ATOM      7  C   UNL     1      47.365   5.250  14.605  0.00  0.00    +0.000 A 
ATOM      8  C   UNL     1      47.370   6.504  13.996  0.00  0.00    +0.000 A 
ATOM      9  C   UNL     1      46.668   6.721  12.803  0.00  0.00    +0.000 A 
ATOM     10  C   UNL     1      46.030   5.634  12.190  0.00  0.00    +0.000 A 
BRANCH   9  11
ATOM     11  C   UNL     1      46.615   8.090  12.178  0.00  0.00    +0.000 C 
BRANCH  11  12
ATOM     12  N   UNL     1      45.696   8.968  12.898  0.00  0.00    +0.000 NA
ATOM     13  H   UNL     1      44.754   8.596  12.802  0.00  0.00    +0.000 HD
ATOM     14  H   UNL     1      45.694   9.883  12.454  0.00  0.00    +0.000 HD
ENDBRANCH  11  12
ENDBRANCH   9  11
ENDBRANCH   4   5
ENDBRANCH   1   4
BRANCH   1  15
ATOM     15  O   UNL     1      43.437   3.185  10.669  0.00  0.00    +0.000 OA
BRANCH  15  16
ATOM     16  C   UNL     1      44.344   3.191   9.643  0.00  0.00    +0.000 A 
ATOM     17  C   UNL     1      44.899   4.313   9.036  0.00  0.00    +0.000 A 
ATOM     18  C   UNL     1      45.865   4.169   8.034  0.00  0.00    +0.000 A 
ATOM     19  C   UNL     1      46.316   2.900   7.626  0.00  0.00    +0.000 A 
ATOM     20  C   UNL     1      45.798   1.759   8.260  0.00  0.00    +0.000 A 
ATOM     21  C   UNL     1      46.305   0.368   8.014  0.00  0.00    +0.000 C 
ATOM     22  C   UNL     1      44.771   1.925   9.220  0.00  0.00    +0.000 A 
BRANCH  19  23
ATOM     23  C   UNL     1      47.390   2.898   6.586  0.00  0.00    +0.000 C 
ATOM     24  N   UNL     1      47.099   3.430   5.362  0.00  0.00    +0.000 N 
ATOM     25  O   UNL     1      48.512   2.483   6.832  0.00  0.00    +0.000 OA
ATOM     26  H   UNL     1      46.262   3.962   5.176  0.00  0.00    +0.000 HD
ATOM     27  H   UNL     1      47.871   3.505   4.711  0.00  0.00    +0.000 HD
ENDBRANCH  19  23
ENDBRANCH  15  16
ENDBRANCH   1  15
TORSDOF 8
ENDMDL
MODEL 5
REMARK VINA RESULT:    -6.681      2.443      6.694
REMARK INTER + INTRA:         -10.838
REMARK INTER:                 -10.199
REMARK INTRA:                  -0.639
REMARK UNBOUND:                -1.228
REMARK  Name = 
REMARK  10 active torsions:
REMARK  status: ('A' for Active; 'I' for Inactive)
REMARK    1  A    between atoms: C_1  and  C_2
REMARK    2  A    between atoms: C_2  and  C_3
REMARK    3  A    between atoms: C_3  and  C_4
REMARK    4  A    between atoms: C_3  and  O_13
REMARK    5  A    between atoms: C_4  and  C_5
REMARK    6  A    between atoms: C_9  and  C_10
REMARK    7  A    between atoms: C_10  and  N_11
REMARK    8  A    between atoms: O_13  and  C_14
REMARK    9  A    between atoms: C_17  and  C_18
REMARK   10  A    between atoms: C_21  and  C_22
REMARK                            x       y       z     vdW  Elec       q    Type
REMARK                         _______ _______ _______ _____ _____    ______ ____
ROOT
ATOM      1  C   UNL     1      43.774   5.280  11.045  0.00  0.00    +0.000 C 
ENDROOT
BRANCH   1   3
ATOM      2  C   UNL     1      43.168   4.281  13.371  0.00  0.00    +0.000 C 
ATOM      3  C   UNL     1      42.702   4.658  11.969  0.00  0.00    +0.000 C 
ENDBRANCH   1   3
BRANCH   1   4
ATOM      4  C   UNL     1      43.686   6.827  11.051  0.00  0.00    +0.000 C 
BRANCH   4   5
ATOM      5  C   UNL     1      44.897   7.461  11.698  0.00  0.00    +0.000 A 
ATOM      6  C   UNL     1      45.054   8.852  11.730  0.00  0.00    +0.000 A 
ATOM      7  C   UNL     1      46.103   9.424  12.450  0.00  0.00    +0.000 A 
ATOM      8  C   UNL     1      47.021   8.611  13.113  0.00  0.00    +0.000 A 
ATOM      9  C   UNL     1      46.930   7.216  13.029  0.00  0.00    +0.000 A 
ATOM     10  C   UNL     1      45.852   6.652  12.332  0.00  0.00    +0.000 A 
BRANCH   9  11
ATOM     11  C   UNL     1      47.958   6.335  13.689  0.00  0.00    +0.000 C 
BRANCH  11  12
ATOM     12  N   UNL     1      47.570   4.928  13.629  0.00  0.00    +0.000 NA
ATOM     13  H   UNL     1      47.415   4.596  14.578  0.00  0.00    +0.000 HD
ATOM     14  H   UNL     1      48.344   4.385  13.254  0.00  0.00    +0.000 HD
ENDBRANCH  11  12
ENDBRANCH   9  11
ENDBRANCH   4   5
ENDBRANCH   1   4
BRANCH   1  15
ATOM     15  O   UNL     1      43.614   4.804   9.697  0.00  0.00    +0.000 OA
BRANCH  15  16
ATOM     16  C   UNL     1      44.447   3.824   9.225  0.00  0.00    +0.000 A 
ATOM     17  C   UNL     1      44.443   2.485   9.601  0.00  0.00    +0.000 A 
ATOM     18  C   UNL     1      45.315   1.578   8.988  0.00  0.00    +0.000 A 
ATOM     19  C   UNL     1      46.199   1.981   7.971  0.00  0.00    +0.000 A 
ATOM     20  C   UNL     1      46.183   3.320   7.550  0.00  0.00    +0.000 A 
ATOM     21  C   UNL     1      46.972   3.834   6.381  0.00  0.00    +0.000 C 
ATOM     22  C   UNL     1      45.345   4.234   8.231  0.00  0.00    +0.000 A 
BRANCH  19  23
ATOM     23  C   UNL     1      47.032   0.895   7.369  0.00  0.00    +0.000 C 
ATOM     24  N   UNL     1      46.636  -0.399   7.559  0.00  0.00    +0.000 N 
ATOM     25  O   UNL     1      48.009   1.151   6.682  0.00  0.00    +0.000 OA
ATOM     26  H   UNL     1      45.737  -0.650   7.942  0.00  0.00    +0.000 HD
ATOM     27  H   UNL     1      47.161  -1.106   7.060  0.00  0.00    +0.000 HD
ENDBRANCH  19  23
ENDBRANCH  15  16
ENDBRANCH   1  15
TORSDOF 8
ENDMDL
MODEL 6
REMARK VINA RESULT:    -6.609      3.058      7.154
REMARK INTER + INTRA:         -10.735
REMARK INTER:                  -9.855
REMARK INTRA:                  -0.879
REMARK UNBOUND:                -1.228
REMARK  Name = 
REMARK  10 active torsions:
REMARK  status: ('A' for Active; 'I' for Inactive)
REMARK    1  A    between atoms: C_1  and  C_2
REMARK    2  A    between atoms: C_2  and  C_3
REMARK    3  A    between atoms: C_3  and  C_4
REMARK    4  A    between atoms: C_3  and  O_13
REMARK    5  A    between atoms: C_4  and  C_5
REMARK    6  A    between atoms: C_9  and  C_10
REMARK    7  A    between atoms: C_10  and  N_11
REMARK    8  A    between atoms: O_13  and  C_14
REMARK    9  A    between atoms: C_17  and  C_18
REMARK   10  A    between atoms: C_21  and  C_22
REMARK                            x       y       z     vdW  Elec       q    Type
REMARK                         _______ _______ _______ _____ _____    ______ ____
ROOT
ATOM      1  C   UNL     1      44.635   4.438  11.435  0.00  0.00    +0.000 C 
ENDROOT
BRANCH   1   3
ATOM      2  C   UNL     1      46.227   3.372  13.197  0.00  0.00    +0.000 C 
ATOM      3  C   UNL     1      44.796   3.693  12.780  0.00  0.00    +0.000 C 
ENDBRANCH   1   3
BRANCH   1   4
ATOM      4  C   UNL     1      43.596   5.583  11.552  0.00  0.00    +0.000 C 
BRANCH   4   5
ATOM      5  C   UNL     1      44.252   6.916  11.836  0.00  0.00    +0.000 A 
ATOM      6  C   UNL     1      45.306   7.023  12.751  0.00  0.00    +0.000 A 
ATOM      7  C   UNL     1      45.989   8.230  12.898  0.00  0.00    +0.000 A 
ATOM      8  C   UNL     1      45.602   9.347  12.159  0.00  0.00    +0.000 A 
ATOM      9  C   UNL     1      44.499   9.285  11.298  0.00  0.00    +0.000 A 
ATOM     10  C   UNL     1      43.842   8.058  11.131  0.00  0.00    +0.000 A 
BRANCH   9  11
ATOM     11  C   UNL     1      44.037  10.507  10.548  0.00  0.00    +0.000 C 
BRANCH  11  12
ATOM     12  N   UNL     1      43.475  10.153   9.248  0.00  0.00    +0.000 NA
ATOM     13  H   UNL     1      44.060  10.562   8.522  0.00  0.00    +0.000 HD
ATOM     14  H   UNL     1      42.556  10.578   9.155  0.00  0.00    +0.000 HD
ENDBRANCH  11  12
ENDBRANCH   9  11
ENDBRANCH   4   5
ENDBRANCH   1   4
BRANCH   1  15
ATOM     15  O   UNL     1      44.218   3.528  10.402  0.00  0.00    +0.000 OA
BRANCH  15  16
ATOM     16  C   UNL     1      44.994   3.378   9.283  0.00  0.00    +0.000 A 
ATOM     17  C   UNL     1      45.524   4.398   8.502  0.00  0.00    +0.000 A 
ATOM     18  C   UNL     1      46.355   4.098   7.417  0.00  0.00    +0.000 A 
ATOM     19  C   UNL     1      46.693   2.770   7.096  0.00  0.00    +0.000 A 
ATOM     20  C   UNL     1      46.201   1.731   7.902  0.00  0.00    +0.000 A 
ATOM     21  C   UNL     1      46.608   0.294   7.748  0.00  0.00    +0.000 C 
ATOM     22  C   UNL     1      45.306   2.053   8.951  0.00  0.00    +0.000 A 
BRANCH  19  23
ATOM     23  C   UNL     1      47.633   2.600   5.946  0.00  0.00    +0.000 C 
ATOM     24  N   UNL     1      48.963   2.448   6.220  0.00  0.00    +0.000 N 
ATOM     25  O   UNL     1      47.225   2.546   4.796  0.00  0.00    +0.000 OA
ATOM     26  H   UNL     1      49.319   2.284   7.150  0.00  0.00    +0.000 HD
ATOM     27  H   UNL     1      49.561   2.237   5.431  0.00  0.00    +0.000 HD
ENDBRANCH  19  23
ENDBRANCH  15  16
ENDBRANCH   1  15
TORSDOF 8
ENDMDL
MODEL 7
REMARK VINA RESULT:    -5.996      3.763      7.819
REMARK INTER + INTRA:          -9.853
REMARK INTER:                  -9.009
REMARK INTRA:                  -0.845
REMARK UNBOUND:                -1.228
REMARK  Name = 
REMARK  10 active torsions:
REMARK  status: ('A' for Active; 'I' for Inactive)
REMARK    1  A    between atoms: C_1  and  C_2
REMARK    2  A    between atoms: C_2  and  C_3
REMARK    3  A    between atoms: C_3  and  C_4
REMARK    4  A    between atoms: C_3  and  O_13
REMARK    5  A    between atoms: C_4  and  C_5
REMARK    6  A    between atoms: C_9  and  C_10
REMARK    7  A    between atoms: C_10  and  N_11
REMARK    8  A    between atoms: O_13  and  C_14
REMARK    9  A    between atoms: C_17  and  C_18
REMARK   10  A    between atoms: C_21  and  C_22
REMARK                            x       y       z     vdW  Elec       q    Type
REMARK                         _______ _______ _______ _____ _____    ______ ____
ROOT
ATOM      1  C   UNL     1      48.725   7.506  14.451  0.00  0.00    +0.000 C 
ENDROOT
BRANCH   1   3
ATOM      2  C   UNL     1      50.073   7.882  12.256  0.00  0.00    +0.000 C 
ATOM      3  C   UNL     1      50.084   7.809  13.779  0.00  0.00    +0.000 C 
ENDBRANCH   1   3
BRANCH   1   4
ATOM      4  C   UNL     1      48.853   7.508  15.995  0.00  0.00    +0.000 C 
BRANCH   4   5
ATOM      5  C   UNL     1      49.394   6.197  16.521  0.00  0.00    +0.000 A 
ATOM      6  C   UNL     1      50.763   6.021  16.753  0.00  0.00    +0.000 A 
ATOM      7  C   UNL     1      51.228   4.857  17.366  0.00  0.00    +0.000 A 
ATOM      8  C   UNL     1      50.334   3.849  17.721  0.00  0.00    +0.000 A 
ATOM      9  C   UNL     1      48.970   3.969  17.425  0.00  0.00    +0.000 A 
ATOM     10  C   UNL     1      48.509   5.156  16.841  0.00  0.00    +0.000 A 
BRANCH   9  11
ATOM     11  C   UNL     1      48.010   2.852  17.746  0.00  0.00    +0.000 C 
BRANCH  11  12
ATOM     12  N   UNL     1      46.627   3.255  17.509  0.00  0.00    +0.000 NA
ATOM     13  H   UNL     1      46.348   3.899  18.247  0.00  0.00    +0.000 HD
ATOM     14  H   UNL     1      46.024   2.441  17.590  0.00  0.00    +0.000 HD
ENDBRANCH  11  12
ENDBRANCH   9  11
ENDBRANCH   4   5
ENDBRANCH   1   4
BRANCH   1  15
ATOM     15  O   UNL     1      48.227   6.226  14.022  0.00  0.00    +0.000 OA
BRANCH  15  16
ATOM     16  C   UNL     1      47.011   6.152  13.396  0.00  0.00    +0.000 A 
ATOM     17  C   UNL     1      46.300   7.212  12.842  0.00  0.00    +0.000 A 
ATOM     18  C   UNL     1      45.092   6.980  12.175  0.00  0.00    +0.000 A 
ATOM     19  C   UNL     1      44.573   5.681  12.027  0.00  0.00    +0.000 A 
ATOM     20  C   UNL     1      45.300   4.596  12.541  0.00  0.00    +0.000 A 
ATOM     21  C   UNL     1      44.923   3.160  12.319  0.00  0.00    +0.000 C 
ATOM     22  C   UNL     1      46.483   4.860  13.273  0.00  0.00    +0.000 A 
BRANCH  19  23
ATOM     23  C   UNL     1      43.303   5.577  11.244  0.00  0.00    +0.000 C 
ATOM     24  N   UNL     1      42.166   6.098  11.794  0.00  0.00    +0.000 N 
ATOM     25  O   UNL     1      43.285   5.089  10.125  0.00  0.00    +0.000 OA
ATOM     26  H   UNL     1      42.168   6.684  12.615  0.00  0.00    +0.000 HD
ATOM     27  H   UNL     1      41.343   6.101  11.202  0.00  0.00    +0.000 HD
ENDBRANCH  19  23
ENDBRANCH  15  16
ENDBRANCH   1  15
TORSDOF 8
ENDMDL
MODEL 8
REMARK VINA RESULT:    -5.991      2.529      4.521
REMARK INTER + INTRA:          -9.846
REMARK INTER:                  -8.379
REMARK INTRA:                  -1.467
REMARK UNBOUND:                -1.228
REMARK  Name = 
REMARK  10 active torsions:
REMARK  status: ('A' for Active; 'I' for Inactive)
REMARK    1  A    between atoms: C_1  and  C_2
REMARK    2  A    between atoms: C_2  and  C_3
REMARK    3  A    between atoms: C_3  and  C_4
REMARK    4  A    between atoms: C_3  and  O_13
REMARK    5  A    between atoms: C_4  and  C_5
REMARK    6  A    between atoms: C_9  and  C_10
REMARK    7  A    between atoms: C_10  and  N_11
REMARK    8  A    between atoms: O_13  and  C_14
REMARK    9  A    between atoms: C_17  and  C_18
REMARK   10  A    between atoms: C_21  and  C_22
REMARK                            x       y       z     vdW  Elec       q    Type
REMARK                         _______ _______ _______ _____ _____    ______ ____
ROOT
ATOM      1  C   UNL     1      46.921   4.682  14.382  0.00  0.00    +0.000 C 
ENDROOT
BRANCH   1   3
ATOM      2  C   UNL     1      48.238   5.072  16.593  0.00  0.00    +0.000 C 
ATOM      3  C   UNL     1      47.299   4.176  15.793  0.00  0.00    +0.000 C 
ENDBRANCH   1   3
BRANCH   1   4
ATOM      4  C   UNL     1      46.382   3.527  13.501  0.00  0.00    +0.000 C 
BRANCH   4   5
ATOM      5  C   UNL     1      45.221   3.968  12.637  0.00  0.00    +0.000 A 
ATOM      6  C   UNL     1      44.078   4.546  13.203  0.00  0.00    +0.000 A 
ATOM      7  C   UNL     1      43.078   5.072  12.385  0.00  0.00    +0.000 A 
ATOM      8  C   UNL     1      43.197   4.995  10.998  0.00  0.00    +0.000 A 
ATOM      9  C   UNL     1      44.293   4.350  10.411  0.00  0.00    +0.000 A 
ATOM     10  C   UNL     1      45.308   3.856  11.241  0.00  0.00    +0.000 A 
BRANCH   9  11
ATOM     11  C   UNL     1      44.392   4.206   8.915  0.00  0.00    +0.000 C 
BRANCH  11  12
ATOM     12  N   UNL     1      45.560   4.908   8.389  0.00  0.00    +0.000 NA
ATOM     13  H   UNL     1      46.290   4.223   8.202  0.00  0.00    +0.000 HD
ATOM     14  H   UNL     1      45.923   5.533   9.103  0.00  0.00    +0.000 HD
ENDBRANCH  11  12
ENDBRANCH   9  11
ENDBRANCH   4   5
ENDBRANCH   1   4
BRANCH   1  15
ATOM     15  O   UNL     1      48.064   5.272  13.736  0.00  0.00    +0.000 OA
BRANCH  15  16
ATOM     16  C   UNL     1      48.013   6.584  13.345  0.00  0.00    +0.000 A 
ATOM     17  C   UNL     1      49.086   7.464  13.261  0.00  0.00    +0.000 A 
ATOM     18  C   UNL     1      48.897   8.766  12.784  0.00  0.00    +0.000 A 
ATOM     19  C   UNL     1      47.633   9.216  12.360  0.00  0.00    +0.000 A 
ATOM     20  C   UNL     1      46.548   8.326  12.398  0.00  0.00    +0.000 A 
ATOM     21  C   UNL     1      45.191   8.643  11.839  0.00  0.00    +0.000 C 
ATOM     22  C   UNL     1      46.747   7.037  12.949  0.00  0.00    +0.000 A 
BRANCH  19  23
ATOM     23  C   UNL     1      47.588  10.610  11.824  0.00  0.00    +0.000 C 
ATOM     24  N   UNL     1      46.953  11.565  12.567  0.00  0.00    +0.000 N 
ATOM     25  O   UNL     1      48.146  10.907  10.779  0.00  0.00    +0.000 OA
ATOM     26  H   UNL     1      46.656  11.416  13.520  0.00  0.00    +0.000 HD
ATOM     27  H   UNL     1      47.023  12.517  12.228  0.00  0.00    +0.000 HD
ENDBRANCH  19  23
ENDBRANCH  15  16
ENDBRANCH   1  15
TORSDOF 8
ENDMDL
MODEL 9
REMARK VINA RESULT:    -5.826      2.697      4.869
REMARK INTER + INTRA:          -9.607
REMARK INTER:                  -8.401
REMARK INTRA:                  -1.207
REMARK UNBOUND:                -1.228
REMARK  Name = 
REMARK  10 active torsions:
REMARK  status: ('A' for Active; 'I' for Inactive)
REMARK    1  A    between atoms: C_1  and  C_2
REMARK    2  A    between atoms: C_2  and  C_3
REMARK    3  A    between atoms: C_3  and  C_4
REMARK    4  A    between atoms: C_3  and  O_13
REMARK    5  A    between atoms: C_4  and  C_5
REMARK    6  A    between atoms: C_9  and  C_10
REMARK    7  A    between atoms: C_10  and  N_11
REMARK    8  A    between atoms: O_13  and  C_14
REMARK    9  A    between atoms: C_17  and  C_18
REMARK   10  A    between atoms: C_21  and  C_22
REMARK                            x       y       z     vdW  Elec       q    Type
REMARK                         _______ _______ _______ _____ _____    ______ ____
ROOT
ATOM      1  C   UNL     1      47.391   6.859  12.262  0.00  0.00    +0.000 C 
ENDROOT
BRANCH   1   3
ATOM      2  C   UNL     1      49.885   7.513  11.905  0.00  0.00    +0.000 C 
ATOM      3  C   UNL     1      48.444   7.609  11.415  0.00  0.00    +0.000 C 
ENDBRANCH   1   3
BRANCH   1   4
ATOM      4  C   UNL     1      45.954   7.174  11.774  0.00  0.00    +0.000 C 
BRANCH   4   5
ATOM      5  C   UNL     1      45.067   5.948  11.795  0.00  0.00    +0.000 A 
ATOM      6  C   UNL     1      44.121   5.759  12.809  0.00  0.00    +0.000 A 
ATOM      7  C   UNL     1      43.219   4.697  12.739  0.00  0.00    +0.000 A 
ATOM      8  C   UNL     1      43.278   3.799  11.674  0.00  0.00    +0.000 A 
ATOM      9  C   UNL     1      44.268   3.923  10.691  0.00  0.00    +0.000 A 
ATOM     10  C   UNL     1      45.147   5.013  10.752  0.00  0.00    +0.000 A 
BRANCH   9  11
ATOM     11  C   UNL     1      44.377   2.916   9.576  0.00  0.00    +0.000 C 
BRANCH  11  12
ATOM     12  N   UNL     1      44.368   3.566   8.268  0.00  0.00    +0.000 NA
ATOM     13  H   UNL     1      43.822   4.422   8.339  0.00  0.00    +0.000 HD
ATOM     14  H   UNL     1      43.886   2.968   7.602  0.00  0.00    +0.000 HD
ENDBRANCH  11  12
ENDBRANCH   9  11
ENDBRANCH   4   5
ENDBRANCH   1   4
BRANCH   1  15
ATOM     15  O   UNL     1      47.508   7.224  13.649  0.00  0.00    +0.000 OA
BRANCH  15  16
ATOM     16  C   UNL     1      47.686   6.245  14.590  0.00  0.00    +0.000 A 
ATOM     17  C   UNL     1      47.061   5.004  14.621  0.00  0.00    +0.000 A 
ATOM     18  C   UNL     1      47.386   4.073  15.614  0.00  0.00    +0.000 A 
ATOM     19  C   UNL     1      48.360   4.352  16.591  0.00  0.00    +0.000 A 
ATOM     20  C   UNL     1      49.031   5.584  16.547  0.00  0.00    +0.000 A 
ATOM     21  C   UNL     1      50.184   5.936  17.442  0.00  0.00    +0.000 C 
ATOM     22  C   UNL     1      48.636   6.537  15.578  0.00  0.00    +0.000 A 
BRANCH  19  23
ATOM     23  C   UNL     1      48.645   3.246  17.556  0.00  0.00    +0.000 C 
ATOM     24  N   UNL     1      47.818   3.107  18.635  0.00  0.00    +0.000 N 
ATOM     25  O   UNL     1      49.555   2.456  17.365  0.00  0.00    +0.000 OA
ATOM     26  H   UNL     1      46.944   3.601  18.728  0.00  0.00    +0.000 HD
ATOM     27  H   UNL     1      47.975   2.293  19.217  0.00  0.00    +0.000 HD
ENDBRANCH  19  23
ENDBRANCH  15  16
ENDBRANCH   1  15
TORSDOF 8
ENDMDL
