MODEL 1
REMARK VINA RESULT:    -7.361      0.000      0.000
REMARK INTER + INTRA:         -11.567
REMARK INTER:                 -10.803
REMARK INTRA:                  -0.764
REMARK UNBOUND:                -0.764
REMARK  Name = 
REMARK  10 active torsions:
REMARK  status: ('A' for Active; 'I' for Inactive)
REMARK    1  A    between atoms: C_1  and  C_2
REMARK    2  A    between atoms: C_2  and  N_3
REMARK    3  A    between atoms: N_3  and  C_4
REMARK    4  A    between atoms: N_3  and  C_14
REMARK    5  A    between atoms: C_4  and  C_5
REMARK    6  A    between atoms: C_5  and  C_6
REMARK    7  A    between atoms: C_10  and  C_11
REMARK    8  A    between atoms: C_11  and  N_12
REMARK    9  A    between atoms: C_18  and  C_19
REMARK   10  A    between atoms: C_19  and  O_21
REMARK                            x       y       z     vdW  Elec       q    Type
REMARK                         _______ _______ _______ _____ _____    ______ ____
ROOT
ATOM      1  N   UNL     1      45.077   5.091  11.749  0.00  0.00    +0.000 N 
ENDROOT
BRANCH   1   2
ATOM      2  C   UNL     1      46.051   5.309  12.737  0.00  0.00    +0.000 A 
ATOM      3  C   UNL     1      46.853   6.470  12.765  0.00  0.00    +0.000 A 
ATOM      4  C   UNL     1      47.822   6.698  13.750  0.00  0.00    +0.000 A 
ATOM      5  C   UNL     1      48.021   5.767  14.762  0.00  0.00    +0.000 A 
ATOM      6  C   UNL     1      47.228   4.620  14.790  0.00  0.00    +0.000 A 
ATOM      7  C   UNL     1      46.271   4.395  13.782  0.00  0.00    +0.000 A 
BRANCH   6   8
ATOM      8  C   UNL     1      47.385   3.587  15.844  0.00  0.00    +0.000 C 
ATOM      9  O   UNL     1      46.670   3.528  16.829  0.00  0.00    +0.000 OA
BRANCH   8  10
ATOM     10  O   UNL     1      48.418   2.744  15.631  0.00  0.00    +0.000 OA
ATOM     11  H   UNL     1      48.222   1.805  15.803  0.00  0.00    +0.000 HD
ENDBRANCH   8  10
ENDBRANCH   6   8
ENDBRANCH   1   2
BRANCH   1  13
ATOM     12  C   UNL     1      42.794   5.068  12.774  0.00  0.00    +0.000 C 
ATOM     13  C   UNL     1      43.888   4.279  12.065  0.00  0.00    +0.000 C 
ENDBRANCH   1  13
BRANCH   1  14
ATOM     14  C   UNL     1      45.464   5.324  10.337  0.00  0.00    +0.000 C 
BRANCH  14  15
ATOM     15  C   UNL     1      44.584   4.666   9.266  0.00  0.00    +0.000 C 
BRANCH  15  16
ATOM     16  C   UNL     1      45.296   3.493   8.624  0.00  0.00    +0.000 A 
ATOM     17  C   UNL     1      45.191   2.205   9.158  0.00  0.00    +0.000 A 
ATOM     18  C   UNL     1      45.809   1.125   8.524  0.00  0.00    +0.000 A 
ATOM     19  C   UNL     1      46.525   1.318   7.344  0.00  0.00    +0.000 A 
ATOM     20  C   UNL     1      46.635   2.596   6.782  0.00  0.00    +0.000 A 
ATOM     21  C   UNL     1      46.026   3.681   7.443  0.00  0.00    +0.000 A 
BRANCH  20  22
ATOM     22  C   UNL     1      47.390   2.816   5.496  0.00  0.00    +0.000 C 
BRANCH  22  23
ATOM     23  N   UNL     1      48.497   1.877   5.361  0.00  0.00    +0.000 NA
ATOM     24  H   UNL     1      49.002   2.092   4.501  0.00  0.00    +0.000 HD
ATOM     25  H   UNL     1      48.128   0.936   5.251  0.00  0.00    +0.000 HD
ENDBRANCH  22  23
ENDBRANCH  20  22
ENDBRANCH  15  16
ENDBRANCH  14  15
ENDBRANCH   1  14
TORSDOF 9
ENDMDL
MODEL 2
REMARK VINA RESULT:    -7.305      1.359      2.123
REMARK INTER + INTRA:         -11.485
REMARK INTER:                 -10.599
REMARK INTRA:                  -0.886
REMARK UNBOUND:                -0.764
REMARK  Name = 
REMARK  10 active torsions:
REMARK  status: ('A' for Active; 'I' for Inactive)
REMARK    1  A    between atoms: C_1  and  C_2
REMARK    2  A    between atoms: C_2  and  N_3
REMARK    3  A    between atoms: N_3  and  C_4
REMARK    4  A    between atoms: N_3  and  C_14
REMARK    5  A    between atoms: C_4  and  C_5
REMARK    6  A    between atoms: C_5  and  C_6
REMARK    7  A    between atoms: C_10  and  C_11
REMARK    8  A    between atoms: C_11  and  N_12
REMARK    9  A    between atoms: C_18  and  C_19
REMARK   10  A    between atoms: C_19  and  O_21
REMARK                            x       y       z     vdW  Elec       q    Type
REMARK                         _______ _______ _______ _____ _____    ______ ____
ROOT
ATOM      1  N   UNL     1      44.473   4.691  12.391  0.00  0.00    +0.000 N 
ENDROOT
BRANCH   1   2
ATOM      2  C   UNL     1      45.652   5.434  12.571  0.00  0.00    +0.000 A 
ATOM      3  C   UNL     1      46.079   6.409  11.645  0.00  0.00    +0.000 A 
ATOM      4  C   UNL     1      47.249   7.159  11.819  0.00  0.00    +0.000 A 
ATOM      5  C   UNL     1      48.039   6.968  12.945  0.00  0.00    +0.000 A 
ATOM      6  C   UNL     1      47.636   6.036  13.902  0.00  0.00    +0.000 A 
ATOM      7  C   UNL     1      46.468   5.276  13.704  0.00  0.00    +0.000 A 
BRANCH   6   8
ATOM      8  C   UNL     1      48.430   5.785  15.131  0.00  0.00    +0.000 C 
ATOM      9  O   UNL     1      48.097   4.984  15.986  0.00  0.00    +0.000 OA
BRANCH   8  10
ATOM     10  O   UNL     1      49.536   6.553  15.231  0.00  0.00    +0.000 OA
ATOM     11  H   UNL     1      50.134   6.513  14.463  0.00  0.00    +0.000 HD
ENDBRANCH   8  10
ENDBRANCH   6   8
ENDBRANCH   1   2
BRANCH   1  13
ATOM     12  C   UNL     1      42.253   5.666  11.771  0.00  0.00    +0.000 C 
ATOM     13  C   UNL     1      43.193   5.225  12.887  0.00  0.00    +0.000 C 
ENDBRANCH   1  13
BRANCH   1  14
ATOM     14  C   UNL     1      44.611   3.245  12.093  0.00  0.00    +0.000 C 
BRANCH  14  15
ATOM     15  C   UNL     1      43.897   2.733  10.834  0.00  0.00    +0.000 C 
BRANCH  15  16
ATOM     16  C   UNL     1      44.733   2.984   9.596  0.00  0.00    +0.000 A 
ATOM     17  C   UNL     1      44.896   4.276   9.086  0.00  0.00    +0.000 A 
ATOM     18  C   UNL     1      45.714   4.499   7.976  0.00  0.00    +0.000 A 
ATOM     19  C   UNL     1      46.388   3.437   7.374  0.00  0.00    +0.000 A 
ATOM     20  C   UNL     1      46.251   2.136   7.874  0.00  0.00    +0.000 A 
ATOM     21  C   UNL     1      45.406   1.921   8.980  0.00  0.00    +0.000 A 
BRANCH  20  22
ATOM     22  C   UNL     1      46.989   0.982   7.245  0.00  0.00    +0.000 C 
BRANCH  22  23
ATOM     23  N   UNL     1      48.127   1.442   6.459  0.00  0.00    +0.000 NA
ATOM     24  H   UNL     1      48.453   0.671   5.877  0.00  0.00    +0.000 HD
ATOM     25  H   UNL     1      48.895   1.677   7.084  0.00  0.00    +0.000 HD
ENDBRANCH  22  23
ENDBRANCH  20  22
ENDBRANCH  15  16
ENDBRANCH  14  15
ENDBRANCH   1  14
TORSDOF 9
ENDMDL
MODEL 3
REMARK VINA RESULT:    -7.228      2.562      3.354
REMARK INTER + INTRA:         -11.372
REMARK INTER:                 -10.514
REMARK INTRA:                  -0.859
REMARK UNBOUND:                -0.764
REMARK  Name = 
REMARK  10 active torsions:
REMARK  status: ('A' for Active; 'I' for Inactive)
REMARK    1  A    between atoms: C_1  and  C_2
REMARK    2  A    between atoms: C_2  and  N_3
REMARK    3  A    between atoms: N_3  and  C_4
REMARK    4  A    between atoms: N_3  and  C_14
REMARK    5  A    between atoms: C_4  and  C_5
REMARK    6  A    between atoms: C_5  and  C_6
REMARK    7  A    between atoms: C_10  and  C_11
REMARK    8  A    between atoms: C_11  and  N_12
REMARK    9  A    between atoms: C_18  and  C_19
REMARK   10  A    between atoms: C_19  and  O_21
REMARK                            x       y       z     vdW  Elec       q    Type
REMARK                         _______ _______ _______ _____ _____    ______ ____
ROOT
ATOM      1  N   UNL     1      44.316   4.597  12.412  0.00  0.00    +0.000 N 
ENDROOT
BRANCH   1   2
ATOM      2  C   UNL     1      45.383   5.440  12.767  0.00  0.00    +0.000 A 
ATOM      3  C   UNL     1      46.586   4.948  13.315  0.00  0.00    +0.000 A 
ATOM      4  C   UNL     1      47.657   5.780  13.665  0.00  0.00    +0.000 A 
ATOM      5  C   UNL     1      47.567   7.152  13.467  0.00  0.00    +0.000 A 
ATOM      6  C   UNL     1      46.407   7.678  12.899  0.00  0.00    +0.000 A 
ATOM      7  C   UNL     1      45.332   6.831  12.570  0.00  0.00    +0.000 A 
BRANCH   6   8
ATOM      8  C   UNL     1      46.247   9.134  12.657  0.00  0.00    +0.000 C 
ATOM      9  O   UNL     1      45.395   9.595  11.919  0.00  0.00    +0.000 OA
BRANCH   8  10
ATOM     10  O   UNL     1      47.157   9.896  13.299  0.00  0.00    +0.000 OA
ATOM     11  H   UNL     1      47.601  10.561  12.742  0.00  0.00    +0.000 HD
ENDBRANCH   8  10
ENDBRANCH   6   8
ENDBRANCH   1   2
BRANCH   1  13
ATOM     12  C   UNL     1      42.138   5.650  11.772  0.00  0.00    +0.000 C 
ATOM     13  C   UNL     1      42.948   4.933  12.845  0.00  0.00    +0.000 C 
ENDBRANCH   1  13
BRANCH   1  14
ATOM     14  C   UNL     1      44.644   3.216  11.986  0.00  0.00    +0.000 C 
BRANCH  14  15
ATOM     15  C   UNL     1      44.014   2.736  10.672  0.00  0.00    +0.000 C 
BRANCH  15  16
ATOM     16  C   UNL     1      44.909   3.056   9.493  0.00  0.00    +0.000 A 
ATOM     17  C   UNL     1      45.146   4.379   9.105  0.00  0.00    +0.000 A 
ATOM     18  C   UNL     1      46.018   4.660   8.050  0.00  0.00    +0.000 A 
ATOM     19  C   UNL     1      46.670   3.625   7.382  0.00  0.00    +0.000 A 
ATOM     20  C   UNL     1      46.459   2.294   7.759  0.00  0.00    +0.000 A 
ATOM     21  C   UNL     1      45.561   2.021   8.810  0.00  0.00    +0.000 A 
BRANCH  20  22
ATOM     22  C   UNL     1      47.174   1.166   7.058  0.00  0.00    +0.000 C 
BRANCH  22  23
ATOM     23  N   UNL     1      48.321   1.652   6.301  0.00  0.00    +0.000 NA
ATOM     24  H   UNL     1      48.699   0.879   5.753  0.00  0.00    +0.000 HD
ATOM     25  H   UNL     1      49.054   1.934   6.947  0.00  0.00    +0.000 HD
ENDBRANCH  22  23
ENDBRANCH  20  22
ENDBRANCH  15  16
ENDBRANCH  14  15
ENDBRANCH   1  14
TORSDOF 9
ENDMDL
MODEL 4
REMARK VINA RESULT:    -6.966      1.607      2.216
REMARK INTER + INTRA:         -10.987
REMARK INTER:                 -10.173
REMARK INTRA:                  -0.814
REMARK UNBOUND:                -0.764
REMARK  Name = 
REMARK  10 active torsions:
REMARK  status: ('A' for Active; 'I' for Inactive)
REMARK    1  A    between atoms: C_1  and  C_2
REMARK    2  A    between atoms: C_2  and  N_3
REMARK    3  A    between atoms: N_3  and  C_4
REMARK    4  A    between atoms: N_3  and  C_14
REMARK    5  A    between atoms: C_4  and  C_5
REMARK    6  A    between atoms: C_5  and  C_6
REMARK    7  A    between atoms: C_10  and  C_11
REMARK    8  A    between atoms: C_11  and  N_12
REMARK    9  A    between atoms: C_18  and  C_19
REMARK   10  A    between atoms: C_19  and  O_21
REMARK                            x       y       z     vdW  Elec       q    Type
REMARK                         _______ _______ _______ _____ _____    ______ ____
ROOT
ATOM      1  N   UNL     1      44.111   4.759  11.621  0.00  0.00    +0.000 N 
ENDROOT
BRANCH   1   2
ATOM      2  C   UNL     1      44.886   5.857  12.030  0.00  0.00    +0.000 A 
ATOM      3  C   UNL     1      44.507   7.190  11.764  0.00  0.00    +0.000 A 
ATOM      4  C   UNL     1      45.270   8.291  12.174  0.00  0.00    +0.000 A 
ATOM      5  C   UNL     1      46.448   8.098  12.884  0.00  0.00    +0.000 A 
ATOM      6  C   UNL     1      46.842   6.797  13.197  0.00  0.00    +0.000 A 
ATOM      7  C   UNL     1      46.076   5.699  12.761  0.00  0.00    +0.000 A 
BRANCH   6   8
ATOM      8  C   UNL     1      48.087   6.519  13.957  0.00  0.00    +0.000 C 
ATOM      9  O   UNL     1      49.194   6.538  13.448  0.00  0.00    +0.000 OA
BRANCH   8  10
ATOM     10  O   UNL     1      47.876   6.206  15.252  0.00  0.00    +0.000 OA
ATOM     11  H   UNL     1      47.222   5.499  15.402  0.00  0.00    +0.000 HD
ENDBRANCH   8  10
ENDBRANCH   6   8
ENDBRANCH   1   2
BRANCH   1  13
ATOM     12  C   UNL     1      43.291   2.407  11.866  0.00  0.00    +0.000 C 
ATOM     13  C   UNL     1      43.913   3.624  12.540  0.00  0.00    +0.000 C 
ENDBRANCH   1  13
BRANCH   1  14
ATOM     14  C   UNL     1      43.874   4.588  10.168  0.00  0.00    +0.000 C 
BRANCH  14  15
ATOM     15  C   UNL     1      45.039   4.946   9.235  0.00  0.00    +0.000 C 
BRANCH  15  16
ATOM     16  C   UNL     1      45.607   3.706   8.576  0.00  0.00    +0.000 A 
ATOM     17  C   UNL     1      45.374   2.435   9.111  0.00  0.00    +0.000 A 
ATOM     18  C   UNL     1      45.857   1.296   8.461  0.00  0.00    +0.000 A 
ATOM     19  C   UNL     1      46.565   1.415   7.266  0.00  0.00    +0.000 A 
ATOM     20  C   UNL     1      46.800   2.676   6.704  0.00  0.00    +0.000 A 
ATOM     21  C   UNL     1      46.327   3.818   7.379  0.00  0.00    +0.000 A 
BRANCH  20  22
ATOM     22  C   UNL     1      47.547   2.818   5.402  0.00  0.00    +0.000 C 
BRANCH  22  23
ATOM     23  N   UNL     1      48.530   1.755   5.233  0.00  0.00    +0.000 NA
ATOM     24  H   UNL     1      48.215   0.937   5.754  0.00  0.00    +0.000 HD
ATOM     25  H   UNL     1      49.411   2.043   5.651  0.00  0.00    +0.000 HD
ENDBRANCH  22  23
ENDBRANCH  20  22
ENDBRANCH  15  16
ENDBRANCH  14  15
ENDBRANCH   1  14
TORSDOF 9
ENDMDL
MODEL 5
REMARK VINA RESULT:    -6.850      3.064      3.704
REMARK INTER + INTRA:         -10.817
REMARK INTER:                  -9.924
REMARK INTRA:                  -0.893
REMARK UNBOUND:                -0.764
REMARK  Name = 
REMARK  10 active torsions:
REMARK  status: ('A' for Active; 'I' for Inactive)
REMARK    1  A    between atoms: C_1  and  C_2
REMARK    2  A    between atoms: C_2  and  N_3
REMARK    3  A    between atoms: N_3  and  C_4
REMARK    4  A    between atoms: N_3  and  C_14
REMARK    5  A    between atoms: C_4  and  C_5
REMARK    6  A    between atoms: C_5  and  C_6
REMARK    7  A    between atoms: C_10  and  C_11
REMARK    8  A    between atoms: C_11  and  N_12
REMARK    9  A    between atoms: C_18  and  C_19
REMARK   10  A    between atoms: C_19  and  O_21
REMARK                            x       y       z     vdW  Elec       q    Type
REMARK                         _______ _______ _______ _____ _____    ______ ____
ROOT
ATOM      1  N   UNL     1      44.656   5.212  11.872  0.00  0.00    +0.000 N 
ENDROOT
BRANCH   1   2
ATOM      2  C   UNL     1      45.421   6.347  12.190  0.00  0.00    +0.000 A 
ATOM      3  C   UNL     1      46.736   6.255  12.691  0.00  0.00    +0.000 A 
ATOM      4  C   UNL     1      47.508   7.381  13.005  0.00  0.00    +0.000 A 
ATOM      5  C   UNL     1      46.991   8.656  12.816  0.00  0.00    +0.000 A 
ATOM      6  C   UNL     1      45.705   8.792  12.292  0.00  0.00    +0.000 A 
ATOM      7  C   UNL     1      44.934   7.652  12.000  0.00  0.00    +0.000 A 
BRANCH   6   8
ATOM      8  C   UNL     1      45.093  10.125  12.061  0.00  0.00    +0.000 C 
ATOM      9  O   UNL     1      45.741  11.109  11.753  0.00  0.00    +0.000 OA
BRANCH   8  10
ATOM     10  O   UNL     1      43.759  10.153  12.262  0.00  0.00    +0.000 OA
ATOM     11  H   UNL     1      43.293   9.326  12.042  0.00  0.00    +0.000 HD
ENDBRANCH   8  10
ENDBRANCH   6   8
ENDBRANCH   1   2
BRANCH   1  13
ATOM     12  C   UNL     1      43.576   3.024  12.429  0.00  0.00    +0.000 C 
ATOM     13  C   UNL     1      44.600   4.083  12.818  0.00  0.00    +0.000 C 
ENDBRANCH   1  13
BRANCH   1  14
ATOM     14  C   UNL     1      44.279   5.012  10.453  0.00  0.00    +0.000 C 
BRANCH  14  15
ATOM     15  C   UNL     1      45.396   5.188   9.415  0.00  0.00    +0.000 C 
BRANCH  15  16
ATOM     16  C   UNL     1      45.726   3.871   8.745  0.00  0.00    +0.000 A 
ATOM     17  C   UNL     1      45.289   2.657   9.287  0.00  0.00    +0.000 A 
ATOM     18  C   UNL     1      45.555   1.454   8.628  0.00  0.00    +0.000 A 
ATOM     19  C   UNL     1      46.247   1.452   7.419  0.00  0.00    +0.000 A 
ATOM     20  C   UNL     1      46.685   2.654   6.850  0.00  0.00    +0.000 A 
ATOM     21  C   UNL     1      46.430   3.859   7.534  0.00  0.00    +0.000 A 
BRANCH  20  22
ATOM     22  C   UNL     1      47.417   2.668   5.532  0.00  0.00    +0.000 C 
BRANCH  22  23
ATOM     23  N   UNL     1      48.576   1.783   5.557  0.00  0.00    +0.000 NA
ATOM     24  H   UNL     1      49.420   2.354   5.554  0.00  0.00    +0.000 HD
ATOM     25  H   UNL     1      48.596   1.232   4.702  0.00  0.00    +0.000 HD
ENDBRANCH  22  23
ENDBRANCH  20  22
ENDBRANCH  15  16
ENDBRANCH  14  15
ENDBRANCH   1  14
TORSDOF 9
ENDMDL
MODEL 6
REMARK VINA RESULT:    -6.230      3.043      4.152
REMARK INTER + INTRA:          -9.907
REMARK INTER:                  -8.868
REMARK INTRA:                  -1.039
REMARK UNBOUND:                -0.764
REMARK  Name = 
REMARK  10 active torsions:
REMARK  status: ('A' for Active; 'I' for Inactive)
REMARK    1  A    between atoms: C_1  and  C_2
REMARK    2  A    between atoms: C_2  and  N_3
REMARK    3  A    between atoms: N_3  and  C_4
REMARK    4  A    between atoms: N_3  and  C_14
REMARK    5  A    between atoms: C_4  and  C_5
REMARK    6  A    between atoms: C_5  and  C_6
REMARK    7  A    between atoms: C_10  and  C_11
REMARK    8  A    between atoms: C_11  and  N_12
REMARK    9  A    between atoms: C_18  and  C_19
REMARK   10  A    between atoms: C_19  and  O_21
REMARK                            x       y       z     vdW  Elec       q    Type
REMARK                         _______ _______ _______ _____ _____    ______ ____
ROOT
ATOM      1  N   UNL     1      46.300   6.451  13.214  0.00  0.00    +0.000 N 
ENDROOT
BRANCH   1   2
ATOM      2  C   UNL     1      47.002   7.575  12.747  0.00  0.00    +0.000 A 
ATOM      3  C   UNL     1      46.438   8.868  12.738  0.00  0.00    +0.000 A 
ATOM      4  C   UNL     1      47.133   9.995  12.280  0.00  0.00    +0.000 A 
ATOM      5  C   UNL     1      48.438   9.871  11.820  0.00  0.00    +0.000 A 
ATOM      6  C   UNL     1      49.045   8.615  11.841  0.00  0.00    +0.000 A 
ATOM      7  C   UNL     1      48.327   7.488  12.285  0.00  0.00    +0.000 A 
BRANCH   6   8
ATOM      8  C   UNL     1      50.436   8.412  11.367  0.00  0.00    +0.000 C 
ATOM      9  O   UNL     1      51.116   9.308  10.899  0.00  0.00    +0.000 OA
BRANCH   8  10
ATOM     10  O   UNL     1      50.865   7.136  11.467  0.00  0.00    +0.000 OA
ATOM     11  H   UNL     1      50.586   6.672  12.277  0.00  0.00    +0.000 HD
ENDBRANCH   8  10
ENDBRANCH   6   8
ENDBRANCH   1   2
BRANCH   1  13
ATOM     12  C   UNL     1      46.783   4.018  13.541  0.00  0.00    +0.000 C 
ATOM     13  C   UNL     1      46.998   5.444  14.032  0.00  0.00    +0.000 C 
ENDBRANCH   1  13
BRANCH   1  14
ATOM     14  C   UNL     1      45.026   6.108  12.539  0.00  0.00    +0.000 C 
BRANCH  14  15
ATOM     15  C   UNL     1      45.001   6.243  11.010  0.00  0.00    +0.000 C 
BRANCH  15  16
ATOM     16  C   UNL     1      44.923   4.883  10.347  0.00  0.00    +0.000 A 
ATOM     17  C   UNL     1      44.217   3.832  10.939  0.00  0.00    +0.000 A 
ATOM     18  C   UNL     1      44.107   2.600  10.290  0.00  0.00    +0.000 A 
ATOM     19  C   UNL     1      44.690   2.411   9.038  0.00  0.00    +0.000 A 
ATOM     20  C   UNL     1      45.392   3.451   8.418  0.00  0.00    +0.000 A 
ATOM     21  C   UNL     1      45.514   4.682   9.092  0.00  0.00    +0.000 A 
BRANCH  20  22
ATOM     22  C   UNL     1      46.010   3.268   7.055  0.00  0.00    +0.000 C 
BRANCH  22  23
ATOM     23  N   UNL     1      46.977   4.320   6.762  0.00  0.00    +0.000 NA
ATOM     24  H   UNL     1      46.853   5.071   7.441  0.00  0.00    +0.000 HD
ATOM     25  H   UNL     1      46.773   4.718   5.849  0.00  0.00    +0.000 HD
ENDBRANCH  22  23
ENDBRANCH  20  22
ENDBRANCH  15  16
ENDBRANCH  14  15
ENDBRANCH   1  14
TORSDOF 9
ENDMDL
MODEL 7
REMARK VINA RESULT:    -6.224      3.391      6.933
REMARK INTER + INTRA:          -9.899
REMARK INTER:                  -9.133
REMARK INTRA:                  -0.766
REMARK UNBOUND:                -0.764
REMARK  Name = 
REMARK  10 active torsions:
REMARK  status: ('A' for Active; 'I' for Inactive)
REMARK    1  A    between atoms: C_1  and  C_2
REMARK    2  A    between atoms: C_2  and  N_3
REMARK    3  A    between atoms: N_3  and  C_4
REMARK    4  A    between atoms: N_3  and  C_14
REMARK    5  A    between atoms: C_4  and  C_5
REMARK    6  A    between atoms: C_5  and  C_6
REMARK    7  A    between atoms: C_10  and  C_11
REMARK    8  A    between atoms: C_11  and  N_12
REMARK    9  A    between atoms: C_18  and  C_19
REMARK   10  A    between atoms: C_19  and  O_21
REMARK                            x       y       z     vdW  Elec       q    Type
REMARK                         _______ _______ _______ _____ _____    ______ ____
ROOT
ATOM      1  N   UNL     1      44.410   5.375  10.807  0.00  0.00    +0.000 N 
ENDROOT
BRANCH   1   2
ATOM      2  C   UNL     1      44.714   4.238  10.040  0.00  0.00    +0.000 A 
ATOM      3  C   UNL     1      44.135   2.977  10.295  0.00  0.00    +0.000 A 
ATOM      4  C   UNL     1      44.428   1.839   9.533  0.00  0.00    +0.000 A 
ATOM      5  C   UNL     1      45.313   1.924   8.466  0.00  0.00    +0.000 A 
ATOM      6  C   UNL     1      45.885   3.159   8.159  0.00  0.00    +0.000 A 
ATOM      7  C   UNL     1      45.597   4.289   8.947  0.00  0.00    +0.000 A 
BRANCH   6   8
ATOM      8  C   UNL     1      46.836   3.320   7.032  0.00  0.00    +0.000 C 
ATOM      9  O   UNL     1      46.674   4.130   6.136  0.00  0.00    +0.000 OA
BRANCH   8  10
ATOM     10  O   UNL     1      47.876   2.461   7.069  0.00  0.00    +0.000 OA
ATOM     11  H   UNL     1      48.743   2.873   7.239  0.00  0.00    +0.000 HD
ENDBRANCH   8  10
ENDBRANCH   6   8
ENDBRANCH   1   2
BRANCH   1  13
ATOM     12  C   UNL     1      42.878   5.062  12.761  0.00  0.00    +0.000 C 
ATOM     13  C   UNL     1      43.044   5.557  11.329  0.00  0.00    +0.000 C 
ENDBRANCH   1  13
BRANCH   1  14
ATOM     14  C   UNL     1      45.332   6.532  10.716  0.00  0.00    +0.000 C 
BRANCH  14  15
ATOM     15  C   UNL     1      45.330   7.506  11.903  0.00  0.00    +0.000 C 
BRANCH  15  16
ATOM     16  C   UNL     1      46.417   7.151  12.897  0.00  0.00    +0.000 A 
ATOM     17  C   UNL     1      47.406   8.078  13.244  0.00  0.00    +0.000 A 
ATOM     18  C   UNL     1      48.370   7.756  14.203  0.00  0.00    +0.000 A 
ATOM     19  C   UNL     1      48.348   6.512  14.832  0.00  0.00    +0.000 A 
ATOM     20  C   UNL     1      47.362   5.572  14.510  0.00  0.00    +0.000 A 
ATOM     21  C   UNL     1      46.408   5.900  13.526  0.00  0.00    +0.000 A 
BRANCH  20  22
ATOM     22  C   UNL     1      47.314   4.231  15.197  0.00  0.00    +0.000 C 
BRANCH  22  23
ATOM     23  N   UNL     1      47.284   3.138  14.231  0.00  0.00    +0.000 NA
ATOM     24  H   UNL     1      46.538   2.495  14.492  0.00  0.00    +0.000 HD
ATOM     25  H   UNL     1      48.153   2.613  14.292  0.00  0.00    +0.000 HD
ENDBRANCH  22  23
ENDBRANCH  20  22
ENDBRANCH  15  16
ENDBRANCH  14  15
ENDBRANCH   1  14
TORSDOF 9
ENDMDL
MODEL 8
REMARK VINA RESULT:    -6.206      3.562      4.633
REMARK INTER + INTRA:          -9.873
REMARK INTER:                  -8.871
REMARK INTRA:                  -1.002
REMARK UNBOUND:                -0.764
REMARK  Name = 
REMARK  10 active torsions:
REMARK  status: ('A' for Active; 'I' for Inactive)
REMARK    1  A    between atoms: C_1  and  C_2
REMARK    2  A    between atoms: C_2  and  N_3
REMARK    3  A    between atoms: N_3  and  C_4
REMARK    4  A    between atoms: N_3  and  C_14
REMARK    5  A    between atoms: C_4  and  C_5
REMARK    6  A    between atoms: C_5  and  C_6
REMARK    7  A    between atoms: C_10  and  C_11
REMARK    8  A    between atoms: C_11  and  N_12
REMARK    9  A    between atoms: C_18  and  C_19
REMARK   10  A    between atoms: C_19  and  O_21
REMARK                            x       y       z     vdW  Elec       q    Type
REMARK                         _______ _______ _______ _____ _____    ______ ____
ROOT
ATOM      1  N   UNL     1      46.403   6.419  13.195  0.00  0.00    +0.000 N 
ENDROOT
BRANCH   1   2
ATOM      2  C   UNL     1      47.151   7.482  12.662  0.00  0.00    +0.000 A 
ATOM      3  C   UNL     1      48.449   7.305  12.139  0.00  0.00    +0.000 A 
ATOM      4  C   UNL     1      49.200   8.359  11.601  0.00  0.00    +0.000 A 
ATOM      5  C   UNL     1      48.668   9.641  11.554  0.00  0.00    +0.000 A 
ATOM      6  C   UNL     1      47.375   9.854  12.031  0.00  0.00    +0.000 A 
ATOM      7  C   UNL     1      46.640   8.790  12.587  0.00  0.00    +0.000 A 
BRANCH   6   8
ATOM      8  C   UNL     1      46.746  11.198  12.007  0.00  0.00    +0.000 C 
ATOM      9  O   UNL     1      47.368  12.219  11.775  0.00  0.00    +0.000 OA
BRANCH   8  10
ATOM     10  O   UNL     1      45.429  11.188  12.307  0.00  0.00    +0.000 OA
ATOM     11  H   UNL     1      44.836  11.352  11.551  0.00  0.00    +0.000 HD
ENDBRANCH   8  10
ENDBRANCH   6   8
ENDBRANCH   1   2
BRANCH   1  13
ATOM     12  C   UNL     1      46.747   3.965  13.545  0.00  0.00    +0.000 C 
ATOM     13  C   UNL     1      47.078   5.383  13.995  0.00  0.00    +0.000 C 
ENDBRANCH   1  13
BRANCH   1  14
ATOM     14  C   UNL     1      45.071   6.150  12.602  0.00  0.00    +0.000 C 
BRANCH  14  15
ATOM     15  C   UNL     1      44.967   6.255  11.074  0.00  0.00    +0.000 C 
BRANCH  15  16
ATOM     16  C   UNL     1      44.874   4.882  10.441  0.00  0.00    +0.000 A 
ATOM     17  C   UNL     1      44.096   3.873  11.018  0.00  0.00    +0.000 A 
ATOM     18  C   UNL     1      43.976   2.629  10.394  0.00  0.00    +0.000 A 
ATOM     19  C   UNL     1      44.622   2.385   9.183  0.00  0.00    +0.000 A 
ATOM     20  C   UNL     1      45.398   3.382   8.579  0.00  0.00    +0.000 A 
ATOM     21  C   UNL     1      45.528   4.625   9.229  0.00  0.00    +0.000 A 
BRANCH  20  22
ATOM     22  C   UNL     1      46.085   3.139   7.260  0.00  0.00    +0.000 C 
BRANCH  22  23
ATOM     23  N   UNL     1      46.776   4.334   6.791  0.00  0.00    +0.000 NA
ATOM     24  H   UNL     1      46.328   5.151   7.204  0.00  0.00    +0.000 HD
ATOM     25  H   UNL     1      46.658   4.417   5.784  0.00  0.00    +0.000 HD
ENDBRANCH  22  23
ENDBRANCH  20  22
ENDBRANCH  15  16
ENDBRANCH  14  15
ENDBRANCH   1  14
TORSDOF 9
ENDMDL
MODEL 9
REMARK VINA RESULT:    -6.188      1.746      3.116
REMARK INTER + INTRA:          -9.845
REMARK INTER:                  -9.039
REMARK INTRA:                  -0.807
REMARK UNBOUND:                -0.764
REMARK  Name = 
REMARK  10 active torsions:
REMARK  status: ('A' for Active; 'I' for Inactive)
REMARK    1  A    between atoms: C_1  and  C_2
REMARK    2  A    between atoms: C_2  and  N_3
REMARK    3  A    between atoms: N_3  and  C_4
REMARK    4  A    between atoms: N_3  and  C_14
REMARK    5  A    between atoms: C_4  and  C_5
REMARK    6  A    between atoms: C_5  and  C_6
REMARK    7  A    between atoms: C_10  and  C_11
REMARK    8  A    between atoms: C_11  and  N_12
REMARK    9  A    between atoms: C_18  and  C_19
REMARK   10  A    between atoms: C_19  and  O_21
REMARK                            x       y       z     vdW  Elec       q    Type
REMARK                         _______ _______ _______ _____ _____    ______ ____
ROOT
ATOM      1  N   UNL     1      47.440   7.561  12.846  0.00  0.00    +0.000 N 
ENDROOT
BRANCH   1   2
ATOM      2  C   UNL     1      47.857   6.991  14.060  0.00  0.00    +0.000 A 
ATOM      3  C   UNL     1      48.688   7.676  14.972  0.00  0.00    +0.000 A 
ATOM      4  C   UNL     1      49.104   7.117  16.187  0.00  0.00    +0.000 A 
ATOM      5  C   UNL     1      48.688   5.841  16.546  0.00  0.00    +0.000 A 
ATOM      6  C   UNL     1      47.840   5.141  15.689  0.00  0.00    +0.000 A 
ATOM      7  C   UNL     1      47.447   5.707  14.461  0.00  0.00    +0.000 A 
BRANCH   6   8
ATOM      8  C   UNL     1      47.357   3.776  16.012  0.00  0.00    +0.000 C 
ATOM      9  O   UNL     1      46.699   3.521  17.005  0.00  0.00    +0.000 OA
BRANCH   8  10
ATOM     10  O   UNL     1      47.746   2.835  15.125  0.00  0.00    +0.000 OA
ATOM     11  H   UNL     1      48.162   3.183  14.316  0.00  0.00    +0.000 HD
ENDBRANCH   8  10
ENDBRANCH   6   8
ENDBRANCH   1   2
BRANCH   1  13
ATOM     12  C   UNL     1      47.829   9.874  11.973  0.00  0.00    +0.000 C 
ATOM     13  C   UNL     1      46.961   8.955  12.823  0.00  0.00    +0.000 C 
ENDBRANCH   1  13
BRANCH   1  14
ATOM     14  C   UNL     1      47.107   6.642  11.733  0.00  0.00    +0.000 C 
BRANCH  14  15
ATOM     15  C   UNL     1      45.639   6.611  11.284  0.00  0.00    +0.000 C 
BRANCH  15  16
ATOM     16  C   UNL     1      45.285   5.268  10.681  0.00  0.00    +0.000 A 
ATOM     17  C   UNL     1      44.537   4.330  11.399  0.00  0.00    +0.000 A 
ATOM     18  C   UNL     1      44.171   3.117  10.810  0.00  0.00    +0.000 A 
ATOM     19  C   UNL     1      44.536   2.836   9.494  0.00  0.00    +0.000 A 
ATOM     20  C   UNL     1      45.274   3.764   8.750  0.00  0.00    +0.000 A 
ATOM     21  C   UNL     1      45.656   4.974   9.362  0.00  0.00    +0.000 A 
BRANCH  20  22
ATOM     22  C   UNL     1      45.658   3.482   7.319  0.00  0.00    +0.000 C 
BRANCH  22  23
ATOM     23  N   UNL     1      46.921   4.124   6.971  0.00  0.00    +0.000 NA
ATOM     24  H   UNL     1      46.809   4.591   6.072  0.00  0.00    +0.000 HD
ATOM     25  H   UNL     1      47.635   3.411   6.841  0.00  0.00    +0.000 HD
ENDBRANCH  22  23
ENDBRANCH  20  22
ENDBRANCH  15  16
ENDBRANCH  14  15
ENDBRANCH   1  14
TORSDOF 9
ENDMDL
