MODEL 1
REMARK VINA RESULT:    -7.327      0.000      0.000
REMARK INTER + INTRA:         -11.261
REMARK INTER:                 -10.753
REMARK INTRA:                  -0.508
REMARK UNBOUND:                -0.508
REMARK  Name = 
REMARK  9 active torsions:
REMARK  status: ('A' for Active; 'I' for Inactive)
REMARK    1  A    between atoms: N_1  and  C_2
REMARK    2  A    between atoms: C_2  and  C_3
REMARK    3  A    between atoms: C_2  and  C_26
REMARK    4  A    between atoms: C_3  and  C_4
REMARK    5  A    between atoms: C_7  and  CA_8
REMARK    6  A    between atoms: CA_8  and  C_9
REMARK    7  A    between atoms: CA_8  and  N_11
REMARK    8  A    between atoms: C_9  and  O_10
REMARK    9  A    between atoms: C_12  and  C_14
REMARK                            x       y       z     vdW  Elec       q    Type
REMARK                         _______ _______ _______ _____ _____    ______ ____
ROOT
ATOM      1  C   UNL     1      46.266   4.956  12.515  0.00  0.00    +0.000 A 
ATOM      2  C   UNL     1      46.597   4.330  13.719  0.00  0.00    +0.000 A 
ATOM      3  C   UNL     1      47.355   5.001  14.679  0.00  0.00    +0.000 A 
ATOM      4  C   UNL     1      47.817   6.312  14.461  0.00  0.00    +0.000 A 
ATOM      5  C   UNL     1      47.543   6.907  13.223  0.00  0.00    +0.000 A 
ATOM      6  C   UNL     1      46.774   6.237  12.262  0.00  0.00    +0.000 A 
ENDROOT
BRANCH   1   7
ATOM      7  C   UNL     1      45.322   4.282  11.545  0.00  0.00    +0.000 C 
BRANCH   7   8
ATOM      8  C   UNL     1      44.815   5.178  10.392  0.00  0.00    +0.000 C 
BRANCH   8   9
ATOM      9  C   UNL     1      45.629   4.986   9.080  0.00  0.00    +0.000 C 
ATOM     10  O   UNL     1      46.444   5.845   8.724  0.00  0.00    +0.000 OA
ATOM     11  N   UNL     1      45.425   3.842   8.321  0.00  0.00    +0.000 N 
ATOM     12  C   UNL     1      44.526   2.727   8.628  0.00  0.00    +0.000 C 
ATOM     13  C   UNL     1      45.345   1.459   8.900  0.00  0.00    +0.000 C 
ATOM     14  O   UNL     1      46.181   1.149   7.771  0.00  0.00    +0.000 OA
ATOM     15  C   UNL     1      47.095   2.227   7.496  0.00  0.00    +0.000 C 
ATOM     16  C   UNL     1      46.347   3.540   7.218  0.00  0.00    +0.000 C 
ENDBRANCH   8   9
BRANCH   8  17
ATOM     17  N   UNL     1      43.374   4.991  10.097  0.00  0.00    +0.000 NA
ATOM     18  H   UNL     1      42.811   5.438  10.816  0.00  0.00    +0.000 HD
ATOM     19  H   UNL     1      43.188   3.983  10.171  0.00  0.00    +0.000 HD
ENDBRANCH   8  17
ENDBRANCH   7   8
ENDBRANCH   1   7
BRANCH   4  20
ATOM     20  CA  UNL     1      48.518   7.026  15.608  0.00  0.00    +0.000 C 
BRANCH  20  21
ATOM     21  N   UNL     1      49.566   6.165  16.142  0.00  0.00    +0.000 N 
ATOM     22  C   UNL     1      49.488   5.588  17.379  0.00  0.00    +0.000 C 
ATOM     23  O   UNL     1      48.482   5.677  18.078  0.00  0.00    +0.000 OA
ATOM     24  H   UNL     1      50.469   6.238  15.684  0.00  0.00    +0.000 HD
BRANCH  22  25
ATOM     25  C   UNL     1      50.675   4.853  17.823  0.00  0.00    +0.000 A 
ATOM     26  C   UNL     1      51.717   5.517  18.457  0.00  0.00    +0.000 A 
ATOM     27  S   UNL     1      53.030   4.495  18.839  0.00  0.00    +0.000 S 
ATOM     28  C   UNL     1      52.265   3.151  18.129  0.00  0.00    +0.000 A 
ATOM     29  N   UNL     1      52.890   1.945  18.049  0.00  0.00    +0.000 NA
ATOM     30  C   UNL     1      52.209   1.033  17.437  0.00  0.00    +0.000 A 
ATOM     31  N   UNL     1      50.951   1.206  16.924  0.00  0.00    +0.000 N 
ATOM     32  C   UNL     1      50.247   2.380  17.061  0.00  0.00    +0.000 A 
ATOM     33  O   UNL     1      49.069   2.460  16.733  0.00  0.00    +0.000 OA
ATOM     34  C   UNL     1      51.001   3.461  17.665  0.00  0.00    +0.000 A 
ATOM     35  H   UNL     1      50.453   0.437  16.498  0.00  0.00    +0.000 HD
ENDBRANCH  22  25
ENDBRANCH  20  21
BRANCH  20  36
ATOM     36  C   UNL     1      49.100   8.425  15.287  0.00  0.00    +0.000 C 
BRANCH  36  37
ATOM     37  O   UNL     1      48.164   9.489  15.489  0.00  0.00    +0.000 OA
ATOM     38  H   UNL     1      48.107   9.672  16.448  0.00  0.00    +0.000 HD
ENDBRANCH  36  37
ENDBRANCH  20  36
ENDBRANCH   4  20
TORSDOF 9
ENDMDL
MODEL 2
REMARK VINA RESULT:    -7.250      2.272      2.985
REMARK INTER + INTRA:         -11.148
REMARK INTER:                  -9.705
REMARK INTRA:                  -1.443
REMARK UNBOUND:                -0.508
REMARK  Name = 
REMARK  9 active torsions:
REMARK  status: ('A' for Active; 'I' for Inactive)
REMARK    1  A    between atoms: N_1  and  C_2
REMARK    2  A    between atoms: C_2  and  C_3
REMARK    3  A    between atoms: C_2  and  C_26
REMARK    4  A    between atoms: C_3  and  C_4
REMARK    5  A    between atoms: C_7  and  CA_8
REMARK    6  A    between atoms: CA_8  and  C_9
REMARK    7  A    between atoms: CA_8  and  N_11
REMARK    8  A    between atoms: C_9  and  O_10
REMARK    9  A    between atoms: C_12  and  C_14
REMARK                            x       y       z     vdW  Elec       q    Type
REMARK                         _______ _______ _______ _____ _____    ______ ____
ROOT
ATOM      1  C   UNL     1      45.304   6.235  12.818  0.00  0.00    +0.000 A 
ATOM      2  C   UNL     1      46.400   5.576  13.380  0.00  0.00    +0.000 A 
ATOM      3  C   UNL     1      47.652   6.192  13.414  0.00  0.00    +0.000 A 
ATOM      4  C   UNL     1      47.850   7.477  12.877  0.00  0.00    +0.000 A 
ATOM      5  C   UNL     1      46.764   8.100  12.250  0.00  0.00    +0.000 A 
ATOM      6  C   UNL     1      45.504   7.488  12.225  0.00  0.00    +0.000 A 
ENDROOT
BRANCH   1   7
ATOM      7  C   UNL     1      43.922   5.628  12.918  0.00  0.00    +0.000 C 
BRANCH   7   8
ATOM      8  C   UNL     1      43.273   5.247  11.568  0.00  0.00    +0.000 C 
BRANCH   8   9
ATOM      9  C   UNL     1      43.627   3.800  11.119  0.00  0.00    +0.000 C 
ATOM     10  O   UNL     1      42.913   2.851  11.464  0.00  0.00    +0.000 OA
ATOM     11  N   UNL     1      44.751   3.594  10.330  0.00  0.00    +0.000 N 
ATOM     12  C   UNL     1      45.668   4.613   9.816  0.00  0.00    +0.000 C 
ATOM     13  C   UNL     1      45.565   4.679   8.287  0.00  0.00    +0.000 C 
ATOM     14  O   UNL     1      45.849   3.394   7.708  0.00  0.00    +0.000 OA
ATOM     15  C   UNL     1      44.920   2.400   8.179  0.00  0.00    +0.000 C 
ATOM     16  C   UNL     1      44.959   2.278   9.711  0.00  0.00    +0.000 C 
ENDBRANCH   8   9
BRANCH   8  17
ATOM     17  N   UNL     1      41.799   5.407  11.564  0.00  0.00    +0.000 NA
ATOM     18  H   UNL     1      41.376   4.717  10.948  0.00  0.00    +0.000 HD
ATOM     19  H   UNL     1      41.604   6.325  11.146  0.00  0.00    +0.000 HD
ENDBRANCH   8  17
ENDBRANCH   7   8
ENDBRANCH   1   7
BRANCH   4  20
ATOM     20  CA  UNL     1      49.208   8.135  13.075  0.00  0.00    +0.000 C 
BRANCH  20  21
ATOM     21  N   UNL     1      49.978   7.369  14.048  0.00  0.00    +0.000 N 
ATOM     22  C   UNL     1      50.681   7.958  15.061  0.00  0.00    +0.000 C 
ATOM     23  O   UNL     1      50.627   9.166  15.276  0.00  0.00    +0.000 OA
ATOM     24  H   UNL     1      50.198   6.415  13.779  0.00  0.00    +0.000 HD
BRANCH  22  25
ATOM     25  C   UNL     1      51.504   7.064  15.879  0.00  0.00    +0.000 A 
ATOM     26  C   UNL     1      52.889   7.164  15.856  0.00  0.00    +0.000 A 
ATOM     27  S   UNL     1      53.664   5.995  16.829  0.00  0.00    +0.000 S 
ATOM     28  C   UNL     1      52.177   5.294  17.270  0.00  0.00    +0.000 A 
ATOM     29  N   UNL     1      52.126   4.180  18.050  0.00  0.00    +0.000 NA
ATOM     30  C   UNL     1      50.933   3.730  18.257  0.00  0.00    +0.000 A 
ATOM     31  N   UNL     1      49.784   4.307  17.784  0.00  0.00    +0.000 N 
ATOM     32  C   UNL     1      49.783   5.482  17.069  0.00  0.00    +0.000 A 
ATOM     33  O   UNL     1      48.738   6.059  16.792  0.00  0.00    +0.000 OA
ATOM     34  C   UNL     1      51.103   5.980  16.736  0.00  0.00    +0.000 A 
ATOM     35  H   UNL     1      48.878   3.932  18.024  0.00  0.00    +0.000 HD
ENDBRANCH  22  25
ENDBRANCH  20  21
BRANCH  20  36
ATOM     36  C   UNL     1      50.052   8.357  11.795  0.00  0.00    +0.000 C 
BRANCH  36  37
ATOM     37  O   UNL     1      50.902   7.250  11.478  0.00  0.00    +0.000 OA
ATOM     38  H   UNL     1      51.827   7.565  11.461  0.00  0.00    +0.000 HD
ENDBRANCH  36  37
ENDBRANCH  20  36
ENDBRANCH   4  20
TORSDOF 9
ENDMDL
MODEL 3
REMARK VINA RESULT:    -7.190      5.596      8.127
REMARK INTER + INTRA:         -11.060
REMARK INTER:                  -9.521
REMARK INTRA:                  -1.539
REMARK UNBOUND:                -0.508
REMARK  Name = 
REMARK  9 active torsions:
REMARK  status: ('A' for Active; 'I' for Inactive)
REMARK    1  A    between atoms: N_1  and  C_2
REMARK    2  A    between atoms: C_2  and  C_3
REMARK    3  A    between atoms: C_2  and  C_26
REMARK    4  A    between atoms: C_3  and  C_4
REMARK    5  A    between atoms: C_7  and  CA_8
REMARK    6  A    between atoms: CA_8  and  C_9
REMARK    7  A    between atoms: CA_8  and  N_11
REMARK    8  A    between atoms: C_9  and  O_10
REMARK    9  A    between atoms: C_12  and  C_14
REMARK                            x       y       z     vdW  Elec       q    Type
REMARK                         _______ _______ _______ _____ _____    ______ ____
ROOT
ATOM      1  C   UNL     1      50.976   9.441  11.006  0.00  0.00    +0.000 A 
ATOM      2  C   UNL     1      51.094   8.094  11.356  0.00  0.00    +0.000 A 
ATOM      3  C   UNL     1      50.123   7.483  12.150  0.00  0.00    +0.000 A 
ATOM      4  C   UNL     1      49.011   8.200  12.628  0.00  0.00    +0.000 A 
ATOM      5  C   UNL     1      48.937   9.568  12.334  0.00  0.00    +0.000 A 
ATOM      6  C   UNL     1      49.907  10.180  11.529  0.00  0.00    +0.000 A 
ENDROOT
BRANCH   1   7
ATOM      7  C   UNL     1      51.949  10.057  10.026  0.00  0.00    +0.000 C 
BRANCH   7   8
ATOM      8  C   UNL     1      53.045   9.102   9.501  0.00  0.00    +0.000 C 
BRANCH   8   9
ATOM      9  C   UNL     1      53.264   9.224   7.966  0.00  0.00    +0.000 C 
ATOM     10  O   UNL     1      53.732  10.262   7.486  0.00  0.00    +0.000 OA
ATOM     11  N   UNL     1      52.924   8.153   7.149  0.00  0.00    +0.000 N 
ATOM     12  C   UNL     1      52.395   6.854   7.570  0.00  0.00    +0.000 C 
ATOM     13  C   UNL     1      53.419   5.754   7.267  0.00  0.00    +0.000 C 
ATOM     14  O   UNL     1      53.749   5.745   5.868  0.00  0.00    +0.000 OA
ATOM     15  C   UNL     1      54.311   7.008   5.463  0.00  0.00    +0.000 C 
ATOM     16  C   UNL     1      53.341   8.167   5.741  0.00  0.00    +0.000 C 
ENDBRANCH   8   9
BRANCH   8  17
ATOM     17  N   UNL     1      54.348   9.275  10.189  0.00  0.00    +0.000 NA
ATOM     18  H   UNL     1      55.092   8.863   9.633  0.00  0.00    +0.000 HD
ATOM     19  H   UNL     1      54.298   8.726  11.056  0.00  0.00    +0.000 HD
ENDBRANCH   8  17
ENDBRANCH   7   8
ENDBRANCH   1   7
BRANCH   4  20
ATOM     20  CA  UNL     1      47.927   7.432  13.370  0.00  0.00    +0.000 C 
BRANCH  20  21
ATOM     21  N   UNL     1      47.327   6.455  12.469  0.00  0.00    +0.000 N 
ATOM     22  C   UNL     1      46.235   6.736  11.697  0.00  0.00    +0.000 C 
ATOM     23  O   UNL     1      45.752   7.864  11.637  0.00  0.00    +0.000 OA
ATOM     24  H   UNL     1      47.574   5.486  12.648  0.00  0.00    +0.000 HD
BRANCH  22  25
ATOM     25  C   UNL     1      45.675   5.614  10.941  0.00  0.00    +0.000 A 
ATOM     26  C   UNL     1      45.766   5.584   9.555  0.00  0.00    +0.000 A 
ATOM     27  S   UNL     1      44.999   4.226   8.860  0.00  0.00    +0.000 S 
ATOM     28  C   UNL     1      44.485   3.666  10.383  0.00  0.00    +0.000 A 
ATOM     29  N   UNL     1      43.702   2.560  10.500  0.00  0.00    +0.000 NA
ATOM     30  C   UNL     1      43.346   2.286  11.711  0.00  0.00    +0.000 A 
ATOM     31  N   UNL     1      43.724   2.996  12.820  0.00  0.00    +0.000 N 
ATOM     32  C   UNL     1      44.586   4.067  12.757  0.00  0.00    +0.000 A 
ATOM     33  O   UNL     1      45.032   4.587  13.773  0.00  0.00    +0.000 OA
ATOM     34  C   UNL     1      44.946   4.467  11.411  0.00  0.00    +0.000 A 
ATOM     35  H   UNL     1      43.450   2.700  13.745  0.00  0.00    +0.000 HD
ENDBRANCH  22  25
ENDBRANCH  20  21
BRANCH  20  36
ATOM     36  C   UNL     1      48.361   6.738  14.685  0.00  0.00    +0.000 C 
BRANCH  36  37
ATOM     37  O   UNL     1      47.511   5.648  15.057  0.00  0.00    +0.000 OA
ATOM     38  H   UNL     1      47.785   5.331  15.940  0.00  0.00    +0.000 HD
ENDBRANCH  36  37
ENDBRANCH  20  36
ENDBRANCH   4  20
TORSDOF 9
ENDMDL
MODEL 4
REMARK VINA RESULT:    -7.124      5.222      6.906
REMARK INTER + INTRA:         -10.964
REMARK INTER:                  -9.584
REMARK INTRA:                  -1.379
REMARK UNBOUND:                -0.508
REMARK  Name = 
REMARK  9 active torsions:
REMARK  status: ('A' for Active; 'I' for Inactive)
REMARK    1  A    between atoms: N_1  and  C_2
REMARK    2  A    between atoms: C_2  and  C_3
REMARK    3  A    between atoms: C_2  and  C_26
REMARK    4  A    between atoms: C_3  and  C_4
REMARK    5  A    between atoms: C_7  and  CA_8
REMARK    6  A    between atoms: CA_8  and  C_9
REMARK    7  A    between atoms: CA_8  and  N_11
REMARK    8  A    between atoms: C_9  and  O_10
REMARK    9  A    between atoms: C_12  and  C_14
REMARK                            x       y       z     vdW  Elec       q    Type
REMARK                         _______ _______ _______ _____ _____    ______ ____
ROOT
ATOM      1  C   UNL     1      44.447   9.776  11.436  0.00  0.00    +0.000 A 
ATOM      2  C   UNL     1      43.879   8.572  11.012  0.00  0.00    +0.000 A 
ATOM      3  C   UNL     1      44.441   7.354  11.393  0.00  0.00    +0.000 A 
ATOM      4  C   UNL     1      45.594   7.299  12.198  0.00  0.00    +0.000 A 
ATOM      5  C   UNL     1      46.200   8.510  12.558  0.00  0.00    +0.000 A 
ATOM      6  C   UNL     1      45.630   9.734  12.184  0.00  0.00    +0.000 A 
ENDROOT
BRANCH   1   7
ATOM      7  C   UNL     1      43.749  11.086  11.145  0.00  0.00    +0.000 C 
BRANCH   7   8
ATOM      8  C   UNL     1      42.248  10.966  10.796  0.00  0.00    +0.000 C 
BRANCH   8   9
ATOM      9  C   UNL     1      41.329  11.626  11.863  0.00  0.00    +0.000 C 
ATOM     10  O   UNL     1      41.745  12.572  12.542  0.00  0.00    +0.000 OA
ATOM     11  N   UNL     1      40.041  11.136  12.041  0.00  0.00    +0.000 N 
ATOM     12  C   UNL     1      39.398  10.052  11.294  0.00  0.00    +0.000 C 
ATOM     13  C   UNL     1      38.235  10.611  10.467  0.00  0.00    +0.000 C 
ATOM     14  O   UNL     1      37.289  11.281  11.317  0.00  0.00    +0.000 OA
ATOM     15  C   UNL     1      37.910  12.375  12.017  0.00  0.00    +0.000 C 
ATOM     16  C   UNL     1      39.095  11.894  12.870  0.00  0.00    +0.000 C 
ENDBRANCH   8   9
BRANCH   8  17
ATOM     17  N   UNL     1      41.914  11.522   9.462  0.00  0.00    +0.000 NA
ATOM     18  H   UNL     1      41.011  11.168   9.154  0.00  0.00    +0.000 HD
ATOM     19  H   UNL     1      42.609  11.148   8.805  0.00  0.00    +0.000 HD
ENDBRANCH   8  17
ENDBRANCH   7   8
ENDBRANCH   1   7
BRANCH   4  20
ATOM     20  CA  UNL     1      46.066   5.937  12.685  0.00  0.00    +0.000 C 
BRANCH  20  21
ATOM     21  N   UNL     1      46.672   6.080  14.004  0.00  0.00    +0.000 N 
ATOM     22  C   UNL     1      48.024   6.119  14.195  0.00  0.00    +0.000 C 
ATOM     23  O   UNL     1      48.815   6.137  13.254  0.00  0.00    +0.000 OA
ATOM     24  H   UNL     1      46.065   5.868  14.790  0.00  0.00    +0.000 HD
BRANCH  22  25
ATOM     25  C   UNL     1      48.479   6.140  15.587  0.00  0.00    +0.000 A 
ATOM     26  C   UNL     1      49.218   7.212  16.070  0.00  0.00    +0.000 A 
ATOM     27  S   UNL     1      49.702   7.016  17.695  0.00  0.00    +0.000 S 
ATOM     28  C   UNL     1      48.981   5.477  17.784  0.00  0.00    +0.000 A 
ATOM     29  N   UNL     1      49.090   4.712  18.903  0.00  0.00    +0.000 NA
ATOM     30  C   UNL     1      48.539   3.547  18.807  0.00  0.00    +0.000 A 
ATOM     31  N   UNL     1      47.864   3.088  17.707  0.00  0.00    +0.000 N 
ATOM     32  C   UNL     1      47.653   3.861  16.589  0.00  0.00    +0.000 A 
ATOM     33  O   UNL     1      46.916   3.487  15.684  0.00  0.00    +0.000 OA
ATOM     34  C   UNL     1      48.326   5.145  16.614  0.00  0.00    +0.000 A 
ATOM     35  H   UNL     1      47.414   2.184  17.713  0.00  0.00    +0.000 HD
ENDBRANCH  22  25
ENDBRANCH  20  21
BRANCH  20  36
ATOM     36  C   UNL     1      44.998   4.816  12.717  0.00  0.00    +0.000 C 
BRANCH  36  37
ATOM     37  O   UNL     1      45.537   3.528  13.033  0.00  0.00    +0.000 OA
ATOM     38  H   UNL     1      44.907   3.065  13.619  0.00  0.00    +0.000 HD
ENDBRANCH  36  37
ENDBRANCH  20  36
ENDBRANCH   4  20
TORSDOF 9
ENDMDL
MODEL 5
REMARK VINA RESULT:    -6.917      3.452      8.803
REMARK INTER + INTRA:         -10.659
REMARK INTER:                  -8.773
REMARK INTRA:                  -1.886
REMARK UNBOUND:                -0.508
REMARK  Name = 
REMARK  9 active torsions:
REMARK  status: ('A' for Active; 'I' for Inactive)
REMARK    1  A    between atoms: N_1  and  C_2
REMARK    2  A    between atoms: C_2  and  C_3
REMARK    3  A    between atoms: C_2  and  C_26
REMARK    4  A    between atoms: C_3  and  C_4
REMARK    5  A    between atoms: C_7  and  CA_8
REMARK    6  A    between atoms: CA_8  and  C_9
REMARK    7  A    between atoms: CA_8  and  N_11
REMARK    8  A    between atoms: C_9  and  O_10
REMARK    9  A    between atoms: C_12  and  C_14
REMARK                            x       y       z     vdW  Elec       q    Type
REMARK                         _______ _______ _______ _____ _____    ______ ____
ROOT
ATOM      1  C   UNL     1      50.255   7.245  18.698  0.00  0.00    +0.000 A 
ATOM      2  C   UNL     1      48.901   7.483  18.455  0.00  0.00    +0.000 A 
ATOM      3  C   UNL     1      48.472   7.898  17.193  0.00  0.00    +0.000 A 
ATOM      4  C   UNL     1      49.383   8.100  16.141  0.00  0.00    +0.000 A 
ATOM      5  C   UNL     1      50.747   7.931  16.412  0.00  0.00    +0.000 A 
ATOM      6  C   UNL     1      51.177   7.505  17.676  0.00  0.00    +0.000 A 
ENDROOT
BRANCH   1   7
ATOM      7  C   UNL     1      50.695   6.654  20.018  0.00  0.00    +0.000 C 
BRANCH   7   8
ATOM      8  C   UNL     1      50.468   5.132  20.164  0.00  0.00    +0.000 C 
BRANCH   8   9
ATOM      9  C   UNL     1      51.574   4.290  19.466  0.00  0.00    +0.000 C 
ATOM     10  O   UNL     1      52.646   4.073  20.041  0.00  0.00    +0.000 OA
ATOM     11  N   UNL     1      51.337   3.790  18.192  0.00  0.00    +0.000 N 
ATOM     12  C   UNL     1      50.113   3.931  17.401  0.00  0.00    +0.000 C 
ATOM     13  C   UNL     1      49.453   2.559  17.216  0.00  0.00    +0.000 C 
ATOM     14  O   UNL     1      50.366   1.642  16.589  0.00  0.00    +0.000 OA
ATOM     15  C   UNL     1      51.551   1.468  17.389  0.00  0.00    +0.000 C 
ATOM     16  C   UNL     1      52.269   2.806  17.624  0.00  0.00    +0.000 C 
ENDBRANCH   8   9
BRANCH   8  17
ATOM     17  N   UNL     1      50.346   4.693  21.575  0.00  0.00    +0.000 NA
ATOM     18  H   UNL     1      49.384   4.792  21.889  0.00  0.00    +0.000 HD
ATOM     19  H   UNL     1      50.902   5.349  22.136  0.00  0.00    +0.000 HD
ENDBRANCH   8  17
ENDBRANCH   7   8
ENDBRANCH   1   7
BRANCH   4  20
ATOM     20  CA  UNL     1      48.826   8.418  14.760  0.00  0.00    +0.000 C 
BRANCH  20  21
ATOM     21  N   UNL     1      47.796   7.444  14.421  0.00  0.00    +0.000 N 
ATOM     22  C   UNL     1      47.970   6.490  13.459  0.00  0.00    +0.000 C 
ATOM     23  O   UNL     1      49.047   6.328  12.889  0.00  0.00    +0.000 OA
ATOM     24  H   UNL     1      46.855   7.679  14.723  0.00  0.00    +0.000 HD
BRANCH  22  25
ATOM     25  C   UNL     1      46.800   5.667  13.147  0.00  0.00    +0.000 A 
ATOM     26  C   UNL     1      46.822   4.297  13.373  0.00  0.00    +0.000 A 
ATOM     27  S   UNL     1      45.386   3.513  12.887  0.00  0.00    +0.000 S 
ATOM     28  C   UNL     1      44.714   4.969  12.318  0.00  0.00    +0.000 A 
ATOM     29  N   UNL     1      43.503   4.994  11.701  0.00  0.00    +0.000 NA
ATOM     30  C   UNL     1      43.146   6.161  11.274  0.00  0.00    +0.000 A 
ATOM     31  N   UNL     1      43.874   7.310  11.435  0.00  0.00    +0.000 N 
ATOM     32  C   UNL     1      45.060   7.347  12.131  0.00  0.00    +0.000 A 
ATOM     33  O   UNL     1      45.612   8.409  12.394  0.00  0.00    +0.000 OA
ATOM     34  C   UNL     1      45.546   6.048  12.554  0.00  0.00    +0.000 A 
ATOM     35  H   UNL     1      43.515   8.200  11.120  0.00  0.00    +0.000 HD
ENDBRANCH  22  25
ENDBRANCH  20  21
BRANCH  20  36
ATOM     36  C   UNL     1      48.280   9.854  14.559  0.00  0.00    +0.000 C 
BRANCH  36  37
ATOM     37  O   UNL     1      47.647  10.046  13.290  0.00  0.00    +0.000 OA
ATOM     38  H   UNL     1      47.427   9.169  12.918  0.00  0.00    +0.000 HD
ENDBRANCH  36  37
ENDBRANCH  20  36
ENDBRANCH   4  20
TORSDOF 9
ENDMDL
MODEL 6
REMARK VINA RESULT:    -6.916      3.782      8.306
REMARK INTER + INTRA:         -10.659
REMARK INTER:                  -9.209
REMARK INTRA:                  -1.449
REMARK UNBOUND:                -0.508
REMARK  Name = 
REMARK  9 active torsions:
REMARK  status: ('A' for Active; 'I' for Inactive)
REMARK    1  A    between atoms: N_1  and  C_2
REMARK    2  A    between atoms: C_2  and  C_3
REMARK    3  A    between atoms: C_2  and  C_26
REMARK    4  A    between atoms: C_3  and  C_4
REMARK    5  A    between atoms: C_7  and  CA_8
REMARK    6  A    between atoms: CA_8  and  C_9
REMARK    7  A    between atoms: CA_8  and  N_11
REMARK    8  A    between atoms: C_9  and  O_10
REMARK    9  A    between atoms: C_12  and  C_14
REMARK                            x       y       z     vdW  Elec       q    Type
REMARK                         _______ _______ _______ _____ _____    ______ ____
ROOT
ATOM      1  C   UNL     1      49.197   7.467  19.018  0.00  0.00    +0.000 A 
ATOM      2  C   UNL     1      48.042   8.165  18.658  0.00  0.00    +0.000 A 
ATOM      3  C   UNL     1      47.999   8.897  17.472  0.00  0.00    +0.000 A 
ATOM      4  C   UNL     1      49.112   8.966  16.614  0.00  0.00    +0.000 A 
ATOM      5  C   UNL     1      50.291   8.325  17.016  0.00  0.00    +0.000 A 
ATOM      6  C   UNL     1      50.331   7.581  18.203  0.00  0.00    +0.000 A 
ENDROOT
BRANCH   1   7
ATOM      7  C   UNL     1      49.187   6.557  20.225  0.00  0.00    +0.000 C 
BRANCH   7   8
ATOM      8  C   UNL     1      48.995   5.055  19.913  0.00  0.00    +0.000 C 
BRANCH   8   9
ATOM      9  C   UNL     1      50.251   4.412  19.259  0.00  0.00    +0.000 C 
ATOM     10  O   UNL     1      51.303   4.312  19.900  0.00  0.00    +0.000 OA
ATOM     11  N   UNL     1      50.170   3.955  17.950  0.00  0.00    +0.000 N 
ATOM     12  C   UNL     1      48.992   3.972  17.080  0.00  0.00    +0.000 C 
ATOM     13  C   UNL     1      48.545   2.535  16.785  0.00  0.00    +0.000 C 
ATOM     14  O   UNL     1      49.616   1.787  16.185  0.00  0.00    +0.000 OA
ATOM     15  C   UNL     1      50.759   1.733  17.059  0.00  0.00    +0.000 C 
ATOM     16  C   UNL     1      51.266   3.141  17.407  0.00  0.00    +0.000 C 
ENDBRANCH   8   9
BRANCH   8  17
ATOM     17  N   UNL     1      48.608   4.258  21.102  0.00  0.00    +0.000 NA
ATOM     18  H   UNL     1      48.843   4.764  21.952  0.00  0.00    +0.000 HD
ATOM     19  H   UNL     1      49.197   3.416  21.096  0.00  0.00    +0.000 HD
ENDBRANCH   8  17
ENDBRANCH   7   8
ENDBRANCH   1   7
BRANCH   4  20
ATOM     20  CA  UNL     1      48.944   9.669  15.274  0.00  0.00    +0.000 C 
BRANCH  20  21
ATOM     21  N   UNL     1      47.804   9.095  14.569  0.00  0.00    +0.000 N 
ATOM     22  C   UNL     1      47.935   8.105  13.637  0.00  0.00    +0.000 C 
ATOM     23  O   UNL     1      49.014   7.564  13.408  0.00  0.00    +0.000 OA
ATOM     24  H   UNL     1      46.953   9.649  14.590  0.00  0.00    +0.000 HD
BRANCH  22  25
ATOM     25  C   UNL     1      46.713   7.722  12.927  0.00  0.00    +0.000 A 
ATOM     26  C   UNL     1      46.019   8.655  12.167  0.00  0.00    +0.000 A 
ATOM     27  S   UNL     1      44.592   8.027  11.471  0.00  0.00    +0.000 S 
ATOM     28  C   UNL     1      44.836   6.509  12.202  0.00  0.00    +0.000 A 
ATOM     29  N   UNL     1      43.923   5.510  12.072  0.00  0.00    +0.000 NA
ATOM     30  C   UNL     1      44.215   4.434  12.725  0.00  0.00    +0.000 A 
ATOM     31  N   UNL     1      45.349   4.254  13.472  0.00  0.00    +0.000 N 
ATOM     32  C   UNL     1      46.340   5.204  13.559  0.00  0.00    +0.000 A 
ATOM     33  O   UNL     1      47.411   4.961  14.102  0.00  0.00    +0.000 OA
ATOM     34  C   UNL     1      46.020   6.462  12.913  0.00  0.00    +0.000 A 
ATOM     35  H   UNL     1      45.541   3.369  13.920  0.00  0.00    +0.000 HD
ENDBRANCH  22  25
ENDBRANCH  20  21
BRANCH  20  36
ATOM     36  C   UNL     1      48.809  11.211  15.326  0.00  0.00    +0.000 C 
BRANCH  36  37
ATOM     37  O   UNL     1      48.373  11.783  14.088  0.00  0.00    +0.000 OA
ATOM     38  H   UNL     1      48.450  11.103  13.390  0.00  0.00    +0.000 HD
ENDBRANCH  36  37
ENDBRANCH  20  36
ENDBRANCH   4  20
TORSDOF 9
ENDMDL
MODEL 7
REMARK VINA RESULT:    -6.860      5.813      7.768
REMARK INTER + INTRA:         -10.576
REMARK INTER:                  -9.120
REMARK INTRA:                  -1.457
REMARK UNBOUND:                -0.508
REMARK  Name = 
REMARK  9 active torsions:
REMARK  status: ('A' for Active; 'I' for Inactive)
REMARK    1  A    between atoms: N_1  and  C_2
REMARK    2  A    between atoms: C_2  and  C_3
REMARK    3  A    between atoms: C_2  and  C_26
REMARK    4  A    between atoms: C_3  and  C_4
REMARK    5  A    between atoms: C_7  and  CA_8
REMARK    6  A    between atoms: CA_8  and  C_9
REMARK    7  A    between atoms: CA_8  and  N_11
REMARK    8  A    between atoms: C_9  and  O_10
REMARK    9  A    between atoms: C_12  and  C_14
REMARK                            x       y       z     vdW  Elec       q    Type
REMARK                         _______ _______ _______ _____ _____    ______ ____
ROOT
ATOM      1  C   UNL     1      47.066   8.554  12.122  0.00  0.00    +0.000 A 
ATOM      2  C   UNL     1      47.881   7.470  11.787  0.00  0.00    +0.000 A 
ATOM      3  C   UNL     1      49.239   7.660  11.529  0.00  0.00    +0.000 A 
ATOM      4  C   UNL     1      49.822   8.939  11.584  0.00  0.00    +0.000 A 
ATOM      5  C   UNL     1      48.986  10.030  11.848  0.00  0.00    +0.000 A 
ATOM      6  C   UNL     1      47.624   9.839  12.118  0.00  0.00    +0.000 A 
ENDROOT
BRANCH   1   7
ATOM      7  C   UNL     1      45.633   8.323  12.545  0.00  0.00    +0.000 C 
BRANCH   7   8
ATOM      8  C   UNL     1      44.832   7.352  11.647  0.00  0.00    +0.000 C 
BRANCH   8   9
ATOM      9  C   UNL     1      44.667   5.943  12.284  0.00  0.00    +0.000 C 
ATOM     10  O   UNL     1      44.301   5.831  13.459  0.00  0.00    +0.000 OA
ATOM     11  N   UNL     1      44.937   4.819  11.514  0.00  0.00    +0.000 N 
ATOM     12  C   UNL     1      45.343   4.789  10.107  0.00  0.00    +0.000 C 
ATOM     13  C   UNL     1      44.238   4.143   9.262  0.00  0.00    +0.000 C 
ATOM     14  O   UNL     1      43.948   2.819   9.741  0.00  0.00    +0.000 OA
ATOM     15  C   UNL     1      43.506   2.853  11.111  0.00  0.00    +0.000 C 
ATOM     16  C   UNL     1      44.562   3.494  12.025  0.00  0.00    +0.000 C 
ENDBRANCH   8   9
BRANCH   8  17
ATOM     17  N   UNL     1      43.495   7.873  11.274  0.00  0.00    +0.000 NA
ATOM     18  H   UNL     1      43.241   8.647  11.883  0.00  0.00    +0.000 HD
ATOM     19  H   UNL     1      42.822   7.121  11.467  0.00  0.00    +0.000 HD
ENDBRANCH   8  17
ENDBRANCH   7   8
ENDBRANCH   1   7
BRANCH   4  20
ATOM     20  CA  UNL     1      51.332   9.046  11.427  0.00  0.00    +0.000 C 
BRANCH  20  21
ATOM     21  N   UNL     1      51.761   8.209  10.313  0.00  0.00    +0.000 N 
ATOM     22  C   UNL     1      52.990   7.614  10.267  0.00  0.00    +0.000 C 
ATOM     23  O   UNL     1      53.774   7.664  11.211  0.00  0.00    +0.000 OA
ATOM     24  H   UNL     1      51.228   8.316   9.454  0.00  0.00    +0.000 HD
BRANCH  22  25
ATOM     25  C   UNL     1      53.319   6.909   9.026  0.00  0.00    +0.000 A 
ATOM     26  C   UNL     1      53.670   5.565   9.053  0.00  0.00    +0.000 A 
ATOM     27  S   UNL     1      54.075   4.946   7.514  0.00  0.00    +0.000 S 
ATOM     28  C   UNL     1      53.841   6.463   6.779  0.00  0.00    +0.000 A 
ATOM     29  N   UNL     1      54.093   6.652   5.456  0.00  0.00    +0.000 NA
ATOM     30  C   UNL     1      53.922   7.867   5.050  0.00  0.00    +0.000 A 
ATOM     31  N   UNL     1      53.493   8.903   5.836  0.00  0.00    +0.000 N 
ATOM     32  C   UNL     1      53.141   8.738   7.156  0.00  0.00    +0.000 A 
ATOM     33  O   UNL     1      52.614   9.642   7.793  0.00  0.00    +0.000 OA
ATOM     34  C   UNL     1      53.397   7.412   7.681  0.00  0.00    +0.000 A 
ATOM     35  H   UNL     1      53.333   9.820   5.445  0.00  0.00    +0.000 HD
ENDBRANCH  22  25
ENDBRANCH  20  21
BRANCH  20  36
ATOM     36  C   UNL     1      51.901  10.478  11.258  0.00  0.00    +0.000 C 
BRANCH  36  37
ATOM     37  O   UNL     1      51.706  11.012   9.945  0.00  0.00    +0.000 OA
ATOM     38  H   UNL     1      51.871  10.301   9.294  0.00  0.00    +0.000 HD
ENDBRANCH  36  37
ENDBRANCH  20  36
ENDBRANCH   4  20
TORSDOF 9
ENDMDL
MODEL 8
REMARK VINA RESULT:    -6.324      4.033      8.310
REMARK INTER + INTRA:          -9.790
REMARK INTER:                  -7.831
REMARK INTRA:                  -1.958
REMARK UNBOUND:                -0.508
REMARK  Name = 
REMARK  9 active torsions:
REMARK  status: ('A' for Active; 'I' for Inactive)
REMARK    1  A    between atoms: N_1  and  C_2
REMARK    2  A    between atoms: C_2  and  C_3
REMARK    3  A    between atoms: C_2  and  C_26
REMARK    4  A    between atoms: C_3  and  C_4
REMARK    5  A    between atoms: C_7  and  CA_8
REMARK    6  A    between atoms: CA_8  and  C_9
REMARK    7  A    between atoms: CA_8  and  N_11
REMARK    8  A    between atoms: C_9  and  O_10
REMARK    9  A    between atoms: C_12  and  C_14
REMARK                            x       y       z     vdW  Elec       q    Type
REMARK                         _______ _______ _______ _____ _____    ______ ____
ROOT
ATOM      1  C   UNL     1      52.015   7.019  17.344  0.00  0.00    +0.000 A 
ATOM      2  C   UNL     1      51.316   8.094  17.897  0.00  0.00    +0.000 A 
ATOM      3  C   UNL     1      50.756   9.071  17.073  0.00  0.00    +0.000 A 
ATOM      4  C   UNL     1      50.888   9.012  15.674  0.00  0.00    +0.000 A 
ATOM      5  C   UNL     1      51.653   7.972  15.131  0.00  0.00    +0.000 A 
ATOM      6  C   UNL     1      52.207   6.985  15.956  0.00  0.00    +0.000 A 
ENDROOT
BRANCH   1   7
ATOM      7  C   UNL     1      52.490   5.888  18.228  0.00  0.00    +0.000 C 
BRANCH   7   8
ATOM      8  C   UNL     1      51.366   5.056  18.888  0.00  0.00    +0.000 C 
BRANCH   8   9
ATOM      9  C   UNL     1      50.643   4.118  17.879  0.00  0.00    +0.000 C 
ATOM     10  O   UNL     1      51.177   3.063  17.519  0.00  0.00    +0.000 OA
ATOM     11  N   UNL     1      49.395   4.485  17.392  0.00  0.00    +0.000 N 
ATOM     12  C   UNL     1      48.624   5.678  17.750  0.00  0.00    +0.000 C 
ATOM     13  C   UNL     1      47.348   5.268  18.496  0.00  0.00    +0.000 C 
ATOM     14  O   UNL     1      46.563   4.370  17.693  0.00  0.00    +0.000 OA
ATOM     15  C   UNL     1      47.305   3.177  17.380  0.00  0.00    +0.000 C 
ATOM     16  C   UNL     1      48.607   3.507  16.632  0.00  0.00    +0.000 C 
ENDBRANCH   8   9
BRANCH   8  17
ATOM     17  N   UNL     1      51.837   4.252  20.042  0.00  0.00    +0.000 NA
ATOM     18  H   UNL     1      52.063   3.308  19.739  0.00  0.00    +0.000 HD
ATOM     19  H   UNL     1      51.040   4.165  20.684  0.00  0.00    +0.000 HD
ENDBRANCH   8  17
ENDBRANCH   7   8
ENDBRANCH   1   7
BRANCH   4  20
ATOM     20  CA  UNL     1      50.134  10.036  14.838  0.00  0.00    +0.000 C 
BRANCH  20  21
ATOM     21  N   UNL     1      48.887   9.447  14.365  0.00  0.00    +0.000 N 
ATOM     22  C   UNL     1      48.736   8.956  13.098  0.00  0.00    +0.000 C 
ATOM     23  O   UNL     1      49.676   8.888  12.310  0.00  0.00    +0.000 OA
ATOM     24  H   UNL     1      48.061   9.672  14.912  0.00  0.00    +0.000 HD
BRANCH  22  25
ATOM     25  C   UNL     1      47.388   8.513  12.735  0.00  0.00    +0.000 A 
ATOM     26  C   UNL     1      46.512   9.379  12.092  0.00  0.00    +0.000 A 
ATOM     27  S   UNL     1      44.975   8.692  11.812  0.00  0.00    +0.000 S 
ATOM     28  C   UNL     1      45.420   7.240  12.580  0.00  0.00    +0.000 A 
ATOM     29  N   UNL     1      44.525   6.230  12.752  0.00  0.00    +0.000 NA
ATOM     30  C   UNL     1      44.989   5.212  13.400  0.00  0.00    +0.000 A 
ATOM     31  N   UNL     1      46.272   5.097  13.864  0.00  0.00    +0.000 N 
ATOM     32  C   UNL     1      47.233   6.055  13.634  0.00  0.00    +0.000 A 
ATOM     33  O   UNL     1      48.409   5.860  13.923  0.00  0.00    +0.000 OA
ATOM     34  C   UNL     1      46.740   7.254  12.988  0.00  0.00    +0.000 A 
ATOM     35  H   UNL     1      46.585   4.253  14.321  0.00  0.00    +0.000 HD
ENDBRANCH  22  25
ENDBRANCH  20  21
BRANCH  20  36
ATOM     36  C   UNL     1      49.847  11.397  15.521  0.00  0.00    +0.000 C 
BRANCH  36  37
ATOM     37  O   UNL     1      48.532  11.483  16.080  0.00  0.00    +0.000 OA
ATOM     38  H   UNL     1      48.401  12.390  16.421  0.00  0.00    +0.000 HD
ENDBRANCH  36  37
ENDBRANCH  20  36
ENDBRANCH   4  20
TORSDOF 9
ENDMDL
MODEL 9
REMARK VINA RESULT:    -6.294      4.778      8.155
REMARK INTER + INTRA:          -9.746
REMARK INTER:                  -8.596
REMARK INTRA:                  -1.150
REMARK UNBOUND:                -0.508
REMARK  Name = 
REMARK  9 active torsions:
REMARK  status: ('A' for Active; 'I' for Inactive)
REMARK    1  A    between atoms: N_1  and  C_2
REMARK    2  A    between atoms: C_2  and  C_3
REMARK    3  A    between atoms: C_2  and  C_26
REMARK    4  A    between atoms: C_3  and  C_4
REMARK    5  A    between atoms: C_7  and  CA_8
REMARK    6  A    between atoms: CA_8  and  C_9
REMARK    7  A    between atoms: CA_8  and  N_11
REMARK    8  A    between atoms: C_9  and  O_10
REMARK    9  A    between atoms: C_12  and  C_14
REMARK                            x       y       z     vdW  Elec       q    Type
REMARK                         _______ _______ _______ _____ _____    ______ ____
ROOT
ATOM      1  C   UNL     1      49.926   8.476  12.606  0.00  0.00    +0.000 A 
ATOM      2  C   UNL     1      49.061   7.657  11.877  0.00  0.00    +0.000 A 
ATOM      3  C   UNL     1      48.234   6.744  12.533  0.00  0.00    +0.000 A 
ATOM      4  C   UNL     1      48.254   6.612  13.933  0.00  0.00    +0.000 A 
ATOM      5  C   UNL     1      49.176   7.384  14.651  0.00  0.00    +0.000 A 
ATOM      6  C   UNL     1      50.000   8.309  13.995  0.00  0.00    +0.000 A 
ENDROOT
BRANCH   1   7
ATOM      7  C   UNL     1      50.708   9.564  11.905  0.00  0.00    +0.000 C 
BRANCH   7   8
ATOM      8  C   UNL     1      52.197   9.239  11.646  0.00  0.00    +0.000 C 
BRANCH   8   9
ATOM      9  C   UNL     1      52.567   9.282  10.135  0.00  0.00    +0.000 C 
ATOM     10  O   UNL     1      52.809  10.362   9.585  0.00  0.00    +0.000 OA
ATOM     11  N   UNL     1      52.619   8.093   9.419  0.00  0.00    +0.000 N 
ATOM     12  C   UNL     1      52.393   6.741   9.936  0.00  0.00    +0.000 C 
ATOM     13  C   UNL     1      53.696   5.934   9.864  0.00  0.00    +0.000 C 
ATOM     14  O   UNL     1      54.189   5.893   8.514  0.00  0.00    +0.000 OA
ATOM     15  C   UNL     1      54.453   7.220   8.022  0.00  0.00    +0.000 C 
ATOM     16  C   UNL     1      53.191   8.096   8.067  0.00  0.00    +0.000 C 
ENDBRANCH   8   9
BRANCH   8  17
ATOM     17  N   UNL     1      53.125  10.120  12.395  0.00  0.00    +0.000 NA
ATOM     18  H   UNL     1      53.911  10.380  11.804  0.00  0.00    +0.000 HD
ATOM     19  H   UNL     1      53.514   9.555  13.159  0.00  0.00    +0.000 HD
ENDBRANCH   8  17
ENDBRANCH   7   8
ENDBRANCH   1   7
BRANCH   4  20
ATOM     20  CA  UNL     1      47.227   5.696  14.583  0.00  0.00    +0.000 C 
BRANCH  20  21
ATOM     21  N   UNL     1      46.554   4.918  13.550  0.00  0.00    +0.000 N 
ATOM     22  C   UNL     1      45.316   5.241  13.072  0.00  0.00    +0.000 C 
ATOM     23  O   UNL     1      44.734   6.269  13.411  0.00  0.00    +0.000 OA
ATOM     24  H   UNL     1      46.913   3.978  13.406  0.00  0.00    +0.000 HD
BRANCH  22  25
ATOM     25  C   UNL     1      44.721   4.292  12.128  0.00  0.00    +0.000 A 
ATOM     26  C   UNL     1      43.953   3.230  12.588  0.00  0.00    +0.000 A 
ATOM     27  S   UNL     1      43.404   2.207  11.337  0.00  0.00    +0.000 S 
ATOM     28  C   UNL     1      44.214   3.124  10.154  0.00  0.00    +0.000 A 
ATOM     29  N   UNL     1      44.214   2.746   8.847  0.00  0.00    +0.000 NA
ATOM     30  C   UNL     1      44.915   3.508   8.073  0.00  0.00    +0.000 A 
ATOM     31  N   UNL     1      45.589   4.629   8.479  0.00  0.00    +0.000 N 
ATOM     32  C   UNL     1      45.542   5.098   9.771  0.00  0.00    +0.000 A 
ATOM     33  O   UNL     1      46.023   6.183  10.074  0.00  0.00    +0.000 OA
ATOM     34  C   UNL     1      44.840   4.230  10.696  0.00  0.00    +0.000 A 
ATOM     35  H   UNL     1      46.079   5.209   7.813  0.00  0.00    +0.000 HD
ENDBRANCH  22  25
ENDBRANCH  20  21
BRANCH  20  36
ATOM     36  C   UNL     1      47.759   4.752  15.690  0.00  0.00    +0.000 C 
BRANCH  36  37
ATOM     37  O   UNL     1      47.559   3.365  15.396  0.00  0.00    +0.000 OA
ATOM     38  H   UNL     1      47.470   3.265  14.428  0.00  0.00    +0.000 HD
ENDBRANCH  36  37
ENDBRANCH  20  36
ENDBRANCH   4  20
TORSDOF 9
ENDMDL
