MODEL 1
REMARK VINA RESULT:    -8.622      0.000      0.000
REMARK INTER + INTRA:         -11.897
REMARK INTER:                 -11.142
REMARK INTRA:                  -0.755
REMARK UNBOUND:                -0.755
REMARK  Name = 
REMARK  6 active torsions:
REMARK  status: ('A' for Active; 'I' for Inactive)
REMARK    1  A    between atoms: C_1  and  C_2
REMARK    2  A    between atoms: C_2  and  N_3
REMARK    3  A    between atoms: C_2  and  C_16
REMARK    4  A    between atoms: C_4  and  C_6
REMARK    5  A    between atoms: C_19  and  O_20
REMARK    6  A    between atoms: O_20  and  C_21
REMARK                            x       y       z     vdW  Elec       q    Type
REMARK                         _______ _______ _______ _____ _____    ______ ____
ROOT
ATOM      1  C   UNL     1      45.497   8.900  12.855  0.00  0.00    +0.000 C 
ATOM      2  C   UNL     1      46.505   7.764  12.633  0.00  0.00    +0.000 C 
ENDROOT
BRANCH   2   3
ATOM      3  C   UNL     1      45.876   6.665  11.792  0.00  0.00    +0.000 A 
ATOM      4  C   UNL     1      44.850   5.869  12.321  0.00  0.00    +0.000 A 
ATOM      5  C   UNL     1      44.337   4.795  11.589  0.00  0.00    +0.000 A 
ATOM      6  C   UNL     1      44.788   4.540  10.291  0.00  0.00    +0.000 A 
ATOM      7  C   UNL     1      45.786   5.344   9.745  0.00  0.00    +0.000 A 
ATOM      8  C   UNL     1      46.326   6.396  10.488  0.00  0.00    +0.000 A 
BRANCH   6   9
ATOM      9  O   UNL     1      44.377   3.485   9.504  0.00  0.00    +0.000 OA
BRANCH   9  10
ATOM     10  C   UNL     1      45.212   2.964   8.544  0.00  0.00    +0.000 A 
ATOM     11  C   UNL     1      45.652   3.669   7.421  0.00  0.00    +0.000 A 
ATOM     12  C   UNL     1      46.472   3.054   6.479  0.00  0.00    +0.000 A 
ATOM     13  C   UNL     1      46.921   1.754   6.694  0.00  0.00    +0.000 A 
ATOM     14  C   UNL     1      46.544   1.065   7.847  0.00  0.00    +0.000 A 
ATOM     15  C   UNL     1      45.684   1.666   8.770  0.00  0.00    +0.000 A 
ENDBRANCH   9  10
ENDBRANCH   6   9
ENDBRANCH   2   3
BRANCH   2  16
ATOM     16  N   UNL     1      46.986   7.223  13.888  0.00  0.00    +0.000 N 
ATOM     17  C   UNL     1      48.292   6.852  14.073  0.00  0.00    +0.000 C 
ATOM     18  O   UNL     1      49.155   6.983  13.207  0.00  0.00    +0.000 OA
ATOM     19  H   UNL     1      46.278   6.794  14.487  0.00  0.00    +0.000 HD
BRANCH  17  20
ATOM     20  C   UNL     1      48.639   6.340  15.399  0.00  0.00    +0.000 A 
ATOM     21  C   UNL     1      49.606   6.984  16.160  0.00  0.00    +0.000 A 
ATOM     22  S   UNL     1      49.885   6.238  17.668  0.00  0.00    +0.000 S 
ATOM     23  C   UNL     1      48.749   5.013  17.335  0.00  0.00    +0.000 A 
ATOM     24  N   UNL     1      48.526   4.003  18.213  0.00  0.00    +0.000 NA
ATOM     25  C   UNL     1      47.657   3.132  17.814  0.00  0.00    +0.000 A 
ATOM     26  N   UNL     1      46.988   3.189  16.620  0.00  0.00    +0.000 N 
ATOM     27  C   UNL     1      47.153   4.208  15.719  0.00  0.00    +0.000 A 
ATOM     28  O   UNL     1      46.487   4.269  14.688  0.00  0.00    +0.000 OA
ATOM     29  C   UNL     1      48.138   5.195  16.107  0.00  0.00    +0.000 A 
ATOM     30  H   UNL     1      46.298   2.488  16.379  0.00  0.00    +0.000 HD
ENDBRANCH  17  20
ENDBRANCH   2  16
TORSDOF 5
ENDMDL
MODEL 2
REMARK VINA RESULT:    -8.333      1.408      2.057
REMARK INTER + INTRA:         -11.524
REMARK INTER:                 -10.731
REMARK INTRA:                  -0.793
REMARK UNBOUND:                -0.755
REMARK  Name = 
REMARK  6 active torsions:
REMARK  status: ('A' for Active; 'I' for Inactive)
REMARK    1  A    between atoms: C_1  and  C_2
REMARK    2  A    between atoms: C_2  and  N_3
REMARK    3  A    between atoms: C_2  and  C_16
REMARK    4  A    between atoms: C_4  and  C_6
REMARK    5  A    between atoms: C_19  and  O_20
REMARK    6  A    between atoms: O_20  and  C_21
REMARK                            x       y       z     vdW  Elec       q    Type
REMARK                         _______ _______ _______ _____ _____    ______ ____
ROOT
ATOM      1  C   UNL     1      45.482   8.310  12.899  0.00  0.00    +0.000 C 
ATOM      2  C   UNL     1      46.408   7.099  12.722  0.00  0.00    +0.000 C 
ENDROOT
BRANCH   2   3
ATOM      3  C   UNL     1      45.840   6.156  11.673  0.00  0.00    +0.000 A 
ATOM      4  C   UNL     1      44.909   5.173  12.036  0.00  0.00    +0.000 A 
ATOM      5  C   UNL     1      44.457   4.242  11.096  0.00  0.00    +0.000 A 
ATOM      6  C   UNL     1      44.873   4.320   9.764  0.00  0.00    +0.000 A 
ATOM      7  C   UNL     1      45.774   5.313   9.387  0.00  0.00    +0.000 A 
ATOM      8  C   UNL     1      46.254   6.223  10.331  0.00  0.00    +0.000 A 
BRANCH   6   9
ATOM      9  O   UNL     1      44.520   3.429   8.772  0.00  0.00    +0.000 OA
BRANCH   9  10
ATOM     10  C   UNL     1      45.483   2.834   7.994  0.00  0.00    +0.000 A 
ATOM     11  C   UNL     1      46.080   3.439   6.885  0.00  0.00    +0.000 A 
ATOM     12  C   UNL     1      47.026   2.751   6.131  0.00  0.00    +0.000 A 
ATOM     13  C   UNL     1      47.440   1.482   6.526  0.00  0.00    +0.000 A 
ATOM     14  C   UNL     1      46.901   0.897   7.672  0.00  0.00    +0.000 A 
ATOM     15  C   UNL     1      45.917   1.568   8.403  0.00  0.00    +0.000 A 
ENDBRANCH   9  10
ENDBRANCH   6   9
ENDBRANCH   2   3
BRANCH   2  16
ATOM     16  N   UNL     1      46.614   6.394  13.970  0.00  0.00    +0.000 N 
ATOM     17  C   UNL     1      47.847   5.946  14.365  0.00  0.00    +0.000 C 
ATOM     18  O   UNL     1      48.870   6.139  13.711  0.00  0.00    +0.000 OA
ATOM     19  H   UNL     1      45.790   5.930  14.359  0.00  0.00    +0.000 HD
BRANCH  17  20
ATOM     20  C   UNL     1      47.907   5.269  15.660  0.00  0.00    +0.000 A 
ATOM     21  C   UNL     1      47.379   3.992  15.801  0.00  0.00    +0.000 A 
ATOM     22  S   UNL     1      47.528   3.371  17.383  0.00  0.00    +0.000 S 
ATOM     23  C   UNL     1      48.271   4.801  17.934  0.00  0.00    +0.000 A 
ATOM     24  N   UNL     1      48.626   4.953  19.235  0.00  0.00    +0.000 NA
ATOM     25  C   UNL     1      49.153   6.101  19.513  0.00  0.00    +0.000 A 
ATOM     26  N   UNL     1      49.366   7.102  18.603  0.00  0.00    +0.000 N 
ATOM     27  C   UNL     1      49.059   6.980  17.273  0.00  0.00    +0.000 A 
ATOM     28  O   UNL     1      49.326   7.869  16.468  0.00  0.00    +0.000 OA
ATOM     29  C   UNL     1      48.437   5.722  16.916  0.00  0.00    +0.000 A 
ATOM     30  H   UNL     1      49.810   7.969  18.880  0.00  0.00    +0.000 HD
ENDBRANCH  17  20
ENDBRANCH   2  16
TORSDOF 5
ENDMDL
MODEL 3
REMARK VINA RESULT:    -8.209      2.692      4.044
REMARK INTER + INTRA:         -11.363
REMARK INTER:                 -10.253
REMARK INTRA:                  -1.110
REMARK UNBOUND:                -0.755
REMARK  Name = 
REMARK  6 active torsions:
REMARK  status: ('A' for Active; 'I' for Inactive)
REMARK    1  A    between atoms: C_1  and  C_2
REMARK    2  A    between atoms: C_2  and  N_3
REMARK    3  A    between atoms: C_2  and  C_16
REMARK    4  A    between atoms: C_4  and  C_6
REMARK    5  A    between atoms: C_19  and  O_20
REMARK    6  A    between atoms: O_20  and  C_21
REMARK                            x       y       z     vdW  Elec       q    Type
REMARK                         _______ _______ _______ _____ _____    ______ ____
ROOT
ATOM      1  C   UNL     1      46.589   4.689  14.410  0.00  0.00    +0.000 C 
ATOM      2  C   UNL     1      46.176   5.747  13.377  0.00  0.00    +0.000 C 
ENDROOT
BRANCH   2   3
ATOM      3  C   UNL     1      45.686   5.072  12.106  0.00  0.00    +0.000 A 
ATOM      4  C   UNL     1      45.149   3.778  12.155  0.00  0.00    +0.000 A 
ATOM      5  C   UNL     1      44.788   3.115  10.978  0.00  0.00    +0.000 A 
ATOM      6  C   UNL     1      44.890   3.758   9.741  0.00  0.00    +0.000 A 
ATOM      7  C   UNL     1      45.394   5.056   9.686  0.00  0.00    +0.000 A 
ATOM      8  C   UNL     1      45.789   5.707  10.856  0.00  0.00    +0.000 A 
BRANCH   6   9
ATOM      9  O   UNL     1      44.600   3.180   8.524  0.00  0.00    +0.000 OA
BRANCH   9  10
ATOM     10  C   UNL     1      45.610   2.730   7.707  0.00  0.00    +0.000 A 
ATOM     11  C   UNL     1      46.068   3.413   6.578  0.00  0.00    +0.000 A 
ATOM     12  C   UNL     1      47.075   2.870   5.785  0.00  0.00    +0.000 A 
ATOM     13  C   UNL     1      47.686   1.677   6.160  0.00  0.00    +0.000 A 
ATOM     14  C   UNL     1      47.283   1.021   7.324  0.00  0.00    +0.000 A 
ATOM     15  C   UNL     1      46.241   1.543   8.095  0.00  0.00    +0.000 A 
ENDBRANCH   9  10
ENDBRANCH   6   9
ENDBRANCH   2   3
BRANCH   2  16
ATOM     16  N   UNL     1      47.264   6.654  13.075  0.00  0.00    +0.000 N 
ATOM     17  C   UNL     1      47.106   8.015  13.075  0.00  0.00    +0.000 C 
ATOM     18  O   UNL     1      46.045   8.565  13.364  0.00  0.00    +0.000 OA
ATOM     19  H   UNL     1      48.028   6.262  12.521  0.00  0.00    +0.000 HD
BRANCH  17  20
ATOM     20  C   UNL     1      48.298   8.807  12.772  0.00  0.00    +0.000 A 
ATOM     21  C   UNL     1      48.212   9.884  11.899  0.00  0.00    +0.000 A 
ATOM     22  S   UNL     1      49.703  10.677  11.658  0.00  0.00    +0.000 S 
ATOM     23  C   UNL     1      50.513   9.585  12.684  0.00  0.00    +0.000 A 
ATOM     24  N   UNL     1      51.852   9.672  12.887  0.00  0.00    +0.000 NA
ATOM     25  C   UNL     1      52.333   8.760  13.667  0.00  0.00    +0.000 A 
ATOM     26  N   UNL     1      51.592   7.777  14.267  0.00  0.00    +0.000 N 
ATOM     27  C   UNL     1      50.233   7.671  14.121  0.00  0.00    +0.000 A 
ATOM     28  O   UNL     1      49.586   6.821  14.727  0.00  0.00    +0.000 OA
ATOM     29  C   UNL     1      49.650   8.654  13.232  0.00  0.00    +0.000 A 
ATOM     30  H   UNL     1      52.027   7.108  14.891  0.00  0.00    +0.000 HD
ENDBRANCH  17  20
ENDBRANCH   2  16
TORSDOF 5
ENDMDL
MODEL 4
REMARK VINA RESULT:    -8.010      1.965      2.426
REMARK INTER + INTRA:         -11.106
REMARK INTER:                 -10.177
REMARK INTRA:                  -0.929
REMARK UNBOUND:                -0.755
REMARK  Name = 
REMARK  6 active torsions:
REMARK  status: ('A' for Active; 'I' for Inactive)
REMARK    1  A    between atoms: C_1  and  C_2
REMARK    2  A    between atoms: C_2  and  N_3
REMARK    3  A    between atoms: C_2  and  C_16
REMARK    4  A    between atoms: C_4  and  C_6
REMARK    5  A    between atoms: C_19  and  O_20
REMARK    6  A    between atoms: O_20  and  C_21
REMARK                            x       y       z     vdW  Elec       q    Type
REMARK                         _______ _______ _______ _____ _____    ______ ____
ROOT
ATOM      1  C   UNL     1      47.088   8.361  13.618  0.00  0.00    +0.000 C 
ATOM      2  C   UNL     1      47.587   6.912  13.537  0.00  0.00    +0.000 C 
ENDROOT
BRANCH   2   3
ATOM      3  C   UNL     1      46.727   6.117  12.567  0.00  0.00    +0.000 A 
ATOM      4  C   UNL     1      46.165   4.895  12.958  0.00  0.00    +0.000 A 
ATOM      5  C   UNL     1      45.456   4.113  12.040  0.00  0.00    +0.000 A 
ATOM      6  C   UNL     1      45.237   4.572  10.738  0.00  0.00    +0.000 A 
ATOM      7  C   UNL     1      45.766   5.801  10.349  0.00  0.00    +0.000 A 
ATOM      8  C   UNL     1      46.505   6.567  11.253  0.00  0.00    +0.000 A 
BRANCH   6   9
ATOM      9  O   UNL     1      44.589   3.863   9.749  0.00  0.00    +0.000 OA
BRANCH   9  10
ATOM     10  C   UNL     1      45.305   3.231   8.760  0.00  0.00    +0.000 A 
ATOM     11  C   UNL     1      45.832   3.877   7.639  0.00  0.00    +0.000 A 
ATOM     12  C   UNL     1      46.517   3.154   6.667  0.00  0.00    +0.000 A 
ATOM     13  C   UNL     1      46.750   1.793   6.849  0.00  0.00    +0.000 A 
ATOM     14  C   UNL     1      46.289   1.153   7.999  0.00  0.00    +0.000 A 
ATOM     15  C   UNL     1      45.560   1.869   8.952  0.00  0.00    +0.000 A 
ENDBRANCH   9  10
ENDBRANCH   6   9
ENDBRANCH   2   3
BRANCH   2  16
ATOM     16  N   UNL     1      47.595   6.275  14.838  0.00  0.00    +0.000 N 
ATOM     17  C   UNL     1      48.725   6.192  15.607  0.00  0.00    +0.000 C 
ATOM     18  O   UNL     1      49.802   6.681  15.270  0.00  0.00    +0.000 OA
ATOM     19  H   UNL     1      46.855   5.588  15.000  0.00  0.00    +0.000 HD
BRANCH  17  20
ATOM     20  C   UNL     1      48.578   5.539  16.908  0.00  0.00    +0.000 A 
ATOM     21  C   UNL     1      48.724   4.161  17.013  0.00  0.00    +0.000 A 
ATOM     22  S   UNL     1      48.505   3.579  18.602  0.00  0.00    +0.000 S 
ATOM     23  C   UNL     1      48.175   5.144  19.189  0.00  0.00    +0.000 A 
ATOM     24  N   UNL     1      47.856   5.354  20.491  0.00  0.00    +0.000 NA
ATOM     25  C   UNL     1      47.604   6.588  20.786  0.00  0.00    +0.000 A 
ATOM     26  N   UNL     1      47.653   7.628  19.896  0.00  0.00    +0.000 N 
ATOM     27  C   UNL     1      48.006   7.470  18.581  0.00  0.00    +0.000 A 
ATOM     28  O   UNL     1      48.109   8.431  17.824  0.00  0.00    +0.000 OA
ATOM     29  C   UNL     1      48.270   6.100  18.194  0.00  0.00    +0.000 A 
ATOM     30  H   UNL     1      47.471   8.577  20.198  0.00  0.00    +0.000 HD
ENDBRANCH  17  20
ENDBRANCH   2  16
TORSDOF 5
ENDMDL
MODEL 5
REMARK VINA RESULT:    -7.761      4.210      9.452
REMARK INTER + INTRA:         -10.784
REMARK INTER:                  -9.520
REMARK INTRA:                  -1.264
REMARK UNBOUND:                -0.755
REMARK  Name = 
REMARK  6 active torsions:
REMARK  status: ('A' for Active; 'I' for Inactive)
REMARK    1  A    between atoms: C_1  and  C_2
REMARK    2  A    between atoms: C_2  and  N_3
REMARK    3  A    between atoms: C_2  and  C_16
REMARK    4  A    between atoms: C_4  and  C_6
REMARK    5  A    between atoms: C_19  and  O_20
REMARK    6  A    between atoms: O_20  and  C_21
REMARK                            x       y       z     vdW  Elec       q    Type
REMARK                         _______ _______ _______ _____ _____    ______ ____
ROOT
ATOM      1  C   UNL     1      47.740   3.082  16.900  0.00  0.00    +0.000 C 
ATOM      2  C   UNL     1      48.055   4.455  16.290  0.00  0.00    +0.000 C 
ENDROOT
BRANCH   2   3
ATOM      3  C   UNL     1      48.102   5.512  17.381  0.00  0.00    +0.000 A 
ATOM      4  C   UNL     1      49.018   6.570  17.303  0.00  0.00    +0.000 A 
ATOM      5  C   UNL     1      49.133   7.488  18.351  0.00  0.00    +0.000 A 
ATOM      6  C   UNL     1      48.287   7.409  19.461  0.00  0.00    +0.000 A 
ATOM      7  C   UNL     1      47.351   6.379  19.533  0.00  0.00    +0.000 A 
ATOM      8  C   UNL     1      47.259   5.438  18.505  0.00  0.00    +0.000 A 
BRANCH   6   9
ATOM      9  O   UNL     1      48.346   8.237  20.561  0.00  0.00    +0.000 OA
BRANCH   9  10
ATOM     10  C   UNL     1      47.395   9.211  20.753  0.00  0.00    +0.000 A 
ATOM     11  C   UNL     1      46.978  10.106  19.765  0.00  0.00    +0.000 A 
ATOM     12  C   UNL     1      46.032  11.084  20.054  0.00  0.00    +0.000 A 
ATOM     13  C   UNL     1      45.437  11.125  21.312  0.00  0.00    +0.000 A 
ATOM     14  C   UNL     1      45.795  10.191  22.285  0.00  0.00    +0.000 A 
ATOM     15  C   UNL     1      46.780   9.238  22.009  0.00  0.00    +0.000 A 
ENDBRANCH   9  10
ENDBRANCH   6   9
ENDBRANCH   2   3
BRANCH   2  16
ATOM     16  N   UNL     1      47.091   4.824  15.275  0.00  0.00    +0.000 N 
ATOM     17  C   UNL     1      47.430   5.574  14.180  0.00  0.00    +0.000 C 
ATOM     18  O   UNL     1      48.578   5.957  13.960  0.00  0.00    +0.000 OA
ATOM     19  H   UNL     1      46.113   4.827  15.572  0.00  0.00    +0.000 HD
BRANCH  17  20
ATOM     20  C   UNL     1      46.356   5.853  13.226  0.00  0.00    +0.000 A 
ATOM     21  C   UNL     1      46.036   7.167  12.906  0.00  0.00    +0.000 A 
ATOM     22  S   UNL     1      44.752   7.295  11.790  0.00  0.00    +0.000 S 
ATOM     23  C   UNL     1      44.563   5.603  11.729  0.00  0.00    +0.000 A 
ATOM     24  N   UNL     1      43.589   5.031  10.978  0.00  0.00    +0.000 NA
ATOM     25  C   UNL     1      43.548   3.741  11.051  0.00  0.00    +0.000 A 
ATOM     26  N   UNL     1      44.401   2.974  11.800  0.00  0.00    +0.000 N 
ATOM     27  C   UNL     1      45.423   3.504  12.544  0.00  0.00    +0.000 A 
ATOM     28  O   UNL     1      46.216   2.787  13.149  0.00  0.00    +0.000 OA
ATOM     29  C   UNL     1      45.493   4.950  12.518  0.00  0.00    +0.000 A 
ATOM     30  H   UNL     1      44.333   1.964  11.791  0.00  0.00    +0.000 HD
ENDBRANCH  17  20
ENDBRANCH   2  16
TORSDOF 5
ENDMDL
MODEL 6
REMARK VINA RESULT:    -7.663      2.471      4.495
REMARK INTER + INTRA:         -10.658
REMARK INTER:                 -10.700
REMARK INTRA:                   0.042
REMARK UNBOUND:                -0.755
REMARK  Name = 
REMARK  6 active torsions:
REMARK  status: ('A' for Active; 'I' for Inactive)
REMARK    1  A    between atoms: C_1  and  C_2
REMARK    2  A    between atoms: C_2  and  N_3
REMARK    3  A    between atoms: C_2  and  C_16
REMARK    4  A    between atoms: C_4  and  C_6
REMARK    5  A    between atoms: C_19  and  O_20
REMARK    6  A    between atoms: O_20  and  C_21
REMARK                            x       y       z     vdW  Elec       q    Type
REMARK                         _______ _______ _______ _____ _____    ______ ____
ROOT
ATOM      1  C   UNL     1      47.051   4.531  14.408  0.00  0.00    +0.000 C 
ATOM      2  C   UNL     1      46.030   5.488  13.778  0.00  0.00    +0.000 C 
ENDROOT
BRANCH   2   3
ATOM      3  C   UNL     1      45.563   4.943  12.438  0.00  0.00    +0.000 A 
ATOM      4  C   UNL     1      44.949   3.685  12.360  0.00  0.00    +0.000 A 
ATOM      5  C   UNL     1      44.607   3.137  11.121  0.00  0.00    +0.000 A 
ATOM      6  C   UNL     1      44.806   3.865   9.944  0.00  0.00    +0.000 A 
ATOM      7  C   UNL     1      45.387   5.129  10.013  0.00  0.00    +0.000 A 
ATOM      8  C   UNL     1      45.763   5.664  11.248  0.00  0.00    +0.000 A 
BRANCH   6   9
ATOM      9  O   UNL     1      44.542   3.400   8.673  0.00  0.00    +0.000 OA
BRANCH   9  10
ATOM     10  C   UNL     1      45.543   2.848   7.910  0.00  0.00    +0.000 A 
ATOM     11  C   UNL     1      46.171   3.502   6.848  0.00  0.00    +0.000 A 
ATOM     12  C   UNL     1      47.155   2.857   6.104  0.00  0.00    +0.000 A 
ATOM     13  C   UNL     1      47.574   1.580   6.468  0.00  0.00    +0.000 A 
ATOM     14  C   UNL     1      47.002   0.945   7.571  0.00  0.00    +0.000 A 
ATOM     15  C   UNL     1      45.982   1.574   8.288  0.00  0.00    +0.000 A 
ENDBRANCH   9  10
ENDBRANCH   6   9
ENDBRANCH   2   3
BRANCH   2  16
ATOM     16  N   UNL     1      46.574   6.820  13.616  0.00  0.00    +0.000 N 
ATOM     17  C   UNL     1      47.858   7.041  13.194  0.00  0.00    +0.000 C 
ATOM     18  O   UNL     1      48.629   6.133  12.889  0.00  0.00    +0.000 OA
ATOM     19  H   UNL     1      46.115   7.556  14.158  0.00  0.00    +0.000 HD
BRANCH  17  20
ATOM     20  C   UNL     1      48.264   8.440  13.056  0.00  0.00    +0.000 A 
ATOM     21  C   UNL     1      49.555   8.825  13.394  0.00  0.00    +0.000 A 
ATOM     22  S   UNL     1      49.839  10.493  13.181  0.00  0.00    +0.000 S 
ATOM     23  C   UNL     1      48.237  10.757  12.664  0.00  0.00    +0.000 A 
ATOM     24  N   UNL     1      47.793  12.001  12.356  0.00  0.00    +0.000 NA
ATOM     25  C   UNL     1      46.550  12.052  12.007  0.00  0.00    +0.000 A 
ATOM     26  N   UNL     1      45.716  10.968  11.928  0.00  0.00    +0.000 N 
ATOM     27  C   UNL     1      46.130   9.688  12.193  0.00  0.00    +0.000 A 
ATOM     28  O   UNL     1      45.379   8.727  12.046  0.00  0.00    +0.000 OA
ATOM     29  C   UNL     1      47.510   9.582  12.618  0.00  0.00    +0.000 A 
ATOM     30  H   UNL     1      44.757  11.072  11.620  0.00  0.00    +0.000 HD
ENDBRANCH  17  20
ENDBRANCH   2  16
TORSDOF 5
ENDMDL
MODEL 7
REMARK VINA RESULT:    -7.585      3.413      7.769
REMARK INTER + INTRA:         -10.557
REMARK INTER:                  -9.440
REMARK INTRA:                  -1.116
REMARK UNBOUND:                -0.755
REMARK  Name = 
REMARK  6 active torsions:
REMARK  status: ('A' for Active; 'I' for Inactive)
REMARK    1  A    between atoms: C_1  and  C_2
REMARK    2  A    between atoms: C_2  and  N_3
REMARK    3  A    between atoms: C_2  and  C_16
REMARK    4  A    between atoms: C_4  and  C_6
REMARK    5  A    between atoms: C_19  and  O_20
REMARK    6  A    between atoms: O_20  and  C_21
REMARK                            x       y       z     vdW  Elec       q    Type
REMARK                         _______ _______ _______ _____ _____    ______ ____
ROOT
ATOM      1  C   UNL     1      49.612   7.990  12.094  0.00  0.00    +0.000 C 
ATOM      2  C   UNL     1      48.383   7.515  12.883  0.00  0.00    +0.000 C 
ENDROOT
BRANCH   2   3
ATOM      3  C   UNL     1      48.810   6.969  14.235  0.00  0.00    +0.000 A 
ATOM      4  C   UNL     1      50.018   7.380  14.815  0.00  0.00    +0.000 A 
ATOM      5  C   UNL     1      50.463   6.808  16.010  0.00  0.00    +0.000 A 
ATOM      6  C   UNL     1      49.677   5.868  16.683  0.00  0.00    +0.000 A 
ATOM      7  C   UNL     1      48.460   5.475  16.130  0.00  0.00    +0.000 A 
ATOM      8  C   UNL     1      48.030   6.019  14.918  0.00  0.00    +0.000 A 
BRANCH   6   9
ATOM      9  O   UNL     1      50.043   5.216  17.842  0.00  0.00    +0.000 OA
BRANCH   9  10
ATOM     10  C   UNL     1      50.728   4.026  17.787  0.00  0.00    +0.000 A 
ATOM     11  C   UNL     1      50.172   2.820  17.353  0.00  0.00    +0.000 A 
ATOM     12  C   UNL     1      50.928   1.652  17.360  0.00  0.00    +0.000 A 
ATOM     13  C   UNL     1      52.271   1.697  17.726  0.00  0.00    +0.000 A 
ATOM     14  C   UNL     1      52.855   2.909  18.094  0.00  0.00    +0.000 A 
ATOM     15  C   UNL     1      52.083   4.073  18.132  0.00  0.00    +0.000 A 
ENDBRANCH   9  10
ENDBRANCH   6   9
ENDBRANCH   2   3
BRANCH   2  16
ATOM     16  N   UNL     1      47.631   6.516  12.153  0.00  0.00    +0.000 N 
ATOM     17  C   UNL     1      46.368   6.751  11.677  0.00  0.00    +0.000 C 
ATOM     18  O   UNL     1      45.796   7.832  11.802  0.00  0.00    +0.000 OA
ATOM     19  H   UNL     1      47.907   5.545  12.317  0.00  0.00    +0.000 HD
BRANCH  17  20
ATOM     20  C   UNL     1      45.738   5.655  10.940  0.00  0.00    +0.000 A 
ATOM     21  C   UNL     1      45.843   5.599   9.556  0.00  0.00    +0.000 A 
ATOM     22  S   UNL     1      45.035   4.262   8.872  0.00  0.00    +0.000 S 
ATOM     23  C   UNL     1      44.492   3.738  10.399  0.00  0.00    +0.000 A 
ATOM     24  N   UNL     1      43.696   2.647  10.526  0.00  0.00    +0.000 NA
ATOM     25  C   UNL     1      43.339   2.386  11.741  0.00  0.00    +0.000 A 
ATOM     26  N   UNL     1      43.718   3.113  12.839  0.00  0.00    +0.000 N 
ATOM     27  C   UNL     1      44.551   4.199  12.763  0.00  0.00    +0.000 A 
ATOM     28  O   UNL     1      44.929   4.789  13.772  0.00  0.00    +0.000 OA
ATOM     29  C   UNL     1      44.954   4.551  11.418  0.00  0.00    +0.000 A 
ATOM     30  H   UNL     1      43.427   2.838  13.769  0.00  0.00    +0.000 HD
ENDBRANCH  17  20
ENDBRANCH   2  16
TORSDOF 5
ENDMDL
MODEL 8
REMARK VINA RESULT:    -7.139      1.690      2.180
REMARK INTER + INTRA:          -9.981
REMARK INTER:                  -8.858
REMARK INTRA:                  -1.122
REMARK UNBOUND:                -0.755
REMARK  Name = 
REMARK  6 active torsions:
REMARK  status: ('A' for Active; 'I' for Inactive)
REMARK    1  A    between atoms: C_1  and  C_2
REMARK    2  A    between atoms: C_2  and  N_3
REMARK    3  A    between atoms: C_2  and  C_16
REMARK    4  A    between atoms: C_4  and  C_6
REMARK    5  A    between atoms: C_19  and  O_20
REMARK    6  A    between atoms: O_20  and  C_21
REMARK                            x       y       z     vdW  Elec       q    Type
REMARK                         _______ _______ _______ _____ _____    ______ ____
ROOT
ATOM      1  C   UNL     1      47.664  10.007  12.989  0.00  0.00    +0.000 C 
ATOM      2  C   UNL     1      47.976   8.550  13.358  0.00  0.00    +0.000 C 
ENDROOT
BRANCH   2   3
ATOM      3  C   UNL     1      46.971   7.618  12.699  0.00  0.00    +0.000 A 
ATOM      4  C   UNL     1      47.176   6.232  12.713  0.00  0.00    +0.000 A 
ATOM      5  C   UNL     1      46.309   5.378  12.025  0.00  0.00    +0.000 A 
ATOM      6  C   UNL     1      45.183   5.887  11.372  0.00  0.00    +0.000 A 
ATOM      7  C   UNL     1      44.953   7.262  11.379  0.00  0.00    +0.000 A 
ATOM      8  C   UNL     1      45.838   8.120  12.035  0.00  0.00    +0.000 A 
BRANCH   6   9
ATOM      9  O   UNL     1      44.291   5.138  10.634  0.00  0.00    +0.000 OA
BRANCH   9  10
ATOM     10  C   UNL     1      44.743   4.216   9.721  0.00  0.00    +0.000 A 
ATOM     11  C   UNL     1      45.534   4.531   8.613  0.00  0.00    +0.000 A 
ATOM     12  C   UNL     1      45.922   3.538   7.718  0.00  0.00    +0.000 A 
ATOM     13  C   UNL     1      45.588   2.210   7.968  0.00  0.00    +0.000 A 
ATOM     14  C   UNL     1      44.858   1.875   9.108  0.00  0.00    +0.000 A 
ATOM     15  C   UNL     1      44.429   2.878   9.982  0.00  0.00    +0.000 A 
ENDBRANCH   9  10
ENDBRANCH   6   9
ENDBRANCH   2   3
BRANCH   2  16
ATOM     16  N   UNL     1      47.981   8.349  14.792  0.00  0.00    +0.000 N 
ATOM     17  C   UNL     1      48.989   7.681  15.435  0.00  0.00    +0.000 C 
ATOM     18  O   UNL     1      49.977   7.237  14.852  0.00  0.00    +0.000 OA
ATOM     19  H   UNL     1      47.067   8.390  15.249  0.00  0.00    +0.000 HD
BRANCH  17  20
ATOM     20  C   UNL     1      48.871   7.573  16.889  0.00  0.00    +0.000 A 
ATOM     21  C   UNL     1      48.940   8.714  17.679  0.00  0.00    +0.000 A 
ATOM     22  S   UNL     1      48.796   8.389  19.347  0.00  0.00    +0.000 S 
ATOM     23  C   UNL     1      48.674   6.713  19.067  0.00  0.00    +0.000 A 
ATOM     24  N   UNL     1      48.570   5.835  20.096  0.00  0.00    +0.000 NA
ATOM     25  C   UNL     1      48.513   4.595  19.734  0.00  0.00    +0.000 A 
ATOM     26  N   UNL     1      48.541   4.159  18.435  0.00  0.00    +0.000 N 
ATOM     27  C   UNL     1      48.607   5.011  17.363  0.00  0.00    +0.000 A 
ATOM     28  O   UNL     1      48.560   4.595  16.208  0.00  0.00    +0.000 OA
ATOM     29  C   UNL     1      48.702   6.412  17.718  0.00  0.00    +0.000 A 
ATOM     30  H   UNL     1      48.465   3.173  18.217  0.00  0.00    +0.000 HD
ENDBRANCH  17  20
ENDBRANCH   2  16
TORSDOF 5
ENDMDL
MODEL 9
REMARK VINA RESULT:    -7.074      4.125      9.641
REMARK INTER + INTRA:          -9.897
REMARK INTER:                  -8.641
REMARK INTRA:                  -1.255
REMARK UNBOUND:                -0.755
REMARK  Name = 
REMARK  6 active torsions:
REMARK  status: ('A' for Active; 'I' for Inactive)
REMARK    1  A    between atoms: C_1  and  C_2
REMARK    2  A    between atoms: C_2  and  N_3
REMARK    3  A    between atoms: C_2  and  C_16
REMARK    4  A    between atoms: C_4  and  C_6
REMARK    5  A    between atoms: C_19  and  O_20
REMARK    6  A    between atoms: O_20  and  C_21
REMARK                            x       y       z     vdW  Elec       q    Type
REMARK                         _______ _______ _______ _____ _____    ______ ____
ROOT
ATOM      1  C   UNL     1      47.466   2.975  17.098  0.00  0.00    +0.000 C 
ATOM      2  C   UNL     1      47.805   4.296  16.392  0.00  0.00    +0.000 C 
ENDROOT
BRANCH   2   3
ATOM      3  C   UNL     1      47.954   5.411  17.414  0.00  0.00    +0.000 A 
ATOM      4  C   UNL     1      48.918   6.412  17.233  0.00  0.00    +0.000 A 
ATOM      5  C   UNL     1      49.128   7.382  18.217  0.00  0.00    +0.000 A 
ATOM      6  C   UNL     1      48.330   7.413  19.365  0.00  0.00    +0.000 A 
ATOM      7  C   UNL     1      47.348   6.440  19.540  0.00  0.00    +0.000 A 
ATOM      8  C   UNL     1      47.161   5.448  18.575  0.00  0.00    +0.000 A 
BRANCH   6   9
ATOM      9  O   UNL     1      48.482   8.299  20.409  0.00  0.00    +0.000 OA
BRANCH   9  10
ATOM     10  C   UNL     1      47.514   9.240  20.672  0.00  0.00    +0.000 A 
ATOM     11  C   UNL     1      47.072  10.189  19.748  0.00  0.00    +0.000 A 
ATOM     12  C   UNL     1      46.110  11.128  20.107  0.00  0.00    +0.000 A 
ATOM     13  C   UNL     1      45.525  11.075  21.370  0.00  0.00    +0.000 A 
ATOM     14  C   UNL     1      45.910  10.087  22.276  0.00  0.00    +0.000 A 
ATOM     15  C   UNL     1      46.909   9.173  21.932  0.00  0.00    +0.000 A 
ENDBRANCH   9  10
ENDBRANCH   6   9
ENDBRANCH   2   3
BRANCH   2  16
ATOM     16  N   UNL     1      46.803   4.649  15.407  0.00  0.00    +0.000 N 
ATOM     17  C   UNL     1      46.831   4.163  14.127  0.00  0.00    +0.000 C 
ATOM     18  O   UNL     1      47.680   3.367  13.730  0.00  0.00    +0.000 OA
ATOM     19  H   UNL     1      46.306   5.527  15.575  0.00  0.00    +0.000 HD
BRANCH  17  20
ATOM     20  C   UNL     1      45.742   4.590  13.247  0.00  0.00    +0.000 A 
ATOM     21  C   UNL     1      44.830   3.658  12.769  0.00  0.00    +0.000 A 
ATOM     22  S   UNL     1      43.643   4.338  11.750  0.00  0.00    +0.000 S 
ATOM     23  C   UNL     1      44.332   5.889  11.889  0.00  0.00    +0.000 A 
ATOM     24  N   UNL     1      43.818   6.950  11.217  0.00  0.00    +0.000 NA
ATOM     25  C   UNL     1      44.461   8.057  11.397  0.00  0.00    +0.000 A 
ATOM     26  N   UNL     1      45.564   8.198  12.197  0.00  0.00    +0.000 N 
ATOM     27  C   UNL     1      46.096   7.164  12.923  0.00  0.00    +0.000 A 
ATOM     28  O   UNL     1      47.043   7.336  13.686  0.00  0.00    +0.000 OA
ATOM     29  C   UNL     1      45.428   5.894  12.733  0.00  0.00    +0.000 A 
ATOM     30  H   UNL     1      46.006   9.101  12.317  0.00  0.00    +0.000 HD
ENDBRANCH  17  20
ENDBRANCH   2  16
TORSDOF 5
ENDMDL
