MODEL 1
REMARK VINA RESULT:    -7.937      0.000      0.000
REMARK INTER + INTRA:         -11.046
REMARK INTER:                 -10.257
REMARK INTRA:                  -0.789
REMARK UNBOUND:                -0.789
REMARK  Name = 
REMARK  5 active torsions:
REMARK  status: ('A' for Active; 'I' for Inactive)
REMARK    1  A    between atoms: C_2  and  C_3
REMARK    2  A    between atoms: C_5  and  O_6
REMARK    3  A    between atoms: O_6  and  C_7
REMARK    4  A    between atoms: C_7  and  C_8
REMARK    5  A    between atoms: C_12  and  C_13
REMARK                            x       y       z     vdW  Elec       q    Type
REMARK                         _______ _______ _______ _____ _____    ______ ____
ROOT
ATOM      1  C   UNL     1      44.009   5.090  10.873  0.00  0.00    +0.000 A 
ATOM      2  C   UNL     1      43.189   4.205  11.579  0.00  0.00    +0.000 A 
ATOM      3  C   UNL     1      43.246   2.838  11.317  0.00  0.00    +0.000 A 
ATOM      4  C   UNL     1      44.106   2.351  10.330  0.00  0.00    +0.000 A 
ATOM      5  C   UNL     1      44.916   3.213   9.568  0.00  0.00    +0.000 A 
ATOM      6  C   UNL     1      44.887   4.582   9.899  0.00  0.00    +0.000 A 
ENDROOT
BRANCH   5   7
ATOM      7  C   UNL     1      45.658   2.726   8.381  0.00  0.00    +0.000 A 
ATOM      8  C   UNL     1      45.945   3.604   7.317  0.00  0.00    +0.000 A 
ATOM      9  C   UNL     1      46.743   3.219   6.237  0.00  0.00    +0.000 A 
ATOM     10  C   UNL     1      47.282   1.939   6.200  0.00  0.00    +0.000 A 
ATOM     11  C   UNL     1      47.002   1.042   7.226  0.00  0.00    +0.000 A 
ATOM     12  C   UNL     1      46.188   1.427   8.298  0.00  0.00    +0.000 A 
ENDBRANCH   5   7
BRANCH   1  13
ATOM     13  C   UNL     1      43.910   6.578  11.103  0.00  0.00    +0.000 C 
BRANCH  13  14
ATOM     14  O   UNL     1      44.318   6.888  12.433  0.00  0.00    +0.000 OA
BRANCH  14  17
ATOM     15  C   UNL     1      47.115   5.042  13.983  0.00  0.00    +0.000 A 
ATOM     16  C   UNL     1      45.790   5.372  13.698  0.00  0.00    +0.000 A 
ATOM     17  C   UNL     1      45.547   6.426  12.823  0.00  0.00    +0.000 A 
ATOM     18  C   UNL     1      46.629   7.105  12.268  0.00  0.00    +0.000 A 
ATOM     19  C   UNL     1      47.911   6.708  12.608  0.00  0.00    +0.000 A 
ATOM     20  N   UNL     1      48.178   5.692  13.454  0.00  0.00    +0.000 NA
BRANCH  15  22
ATOM     21  N   UNL     1      47.711   3.088  15.588  0.00  0.00    +0.000 NA
ATOM     22  C   UNL     1      47.418   3.970  14.887  0.00  0.00    +0.000 C 
ENDBRANCH  15  22
ENDBRANCH  14  17
ENDBRANCH  13  14
ENDBRANCH   1  13
TORSDOF 5
ENDMDL
MODEL 2
REMARK VINA RESULT:    -7.774      0.934      2.129
REMARK INTER + INTRA:         -10.835
REMARK INTER:                  -9.848
REMARK INTRA:                  -0.988
REMARK UNBOUND:                -0.789
REMARK  Name = 
REMARK  5 active torsions:
REMARK  status: ('A' for Active; 'I' for Inactive)
REMARK    1  A    between atoms: C_2  and  C_3
REMARK    2  A    between atoms: C_5  and  O_6
REMARK    3  A    between atoms: O_6  and  C_7
REMARK    4  A    between atoms: C_7  and  C_8
REMARK    5  A    between atoms: C_12  and  C_13
REMARK                            x       y       z     vdW  Elec       q    Type
REMARK                         _______ _______ _______ _____ _____    ______ ____
ROOT
ATOM      1  C   UNL     1      44.065   5.041  10.986  0.00  0.00    +0.000 A 
ATOM      2  C   UNL     1      43.249   4.137  11.673  0.00  0.00    +0.000 A 
ATOM      3  C   UNL     1      43.293   2.780  11.365  0.00  0.00    +0.000 A 
ATOM      4  C   UNL     1      44.136   2.321  10.350  0.00  0.00    +0.000 A 
ATOM      5  C   UNL     1      44.941   3.203   9.607  0.00  0.00    +0.000 A 
ATOM      6  C   UNL     1      44.926   4.560   9.984  0.00  0.00    +0.000 A 
ENDROOT
BRANCH   5   7
ATOM      7  C   UNL     1      45.663   2.751   8.394  0.00  0.00    +0.000 A 
ATOM      8  C   UNL     1      45.923   3.657   7.346  0.00  0.00    +0.000 A 
ATOM      9  C   UNL     1      46.703   3.304   6.243  0.00  0.00    +0.000 A 
ATOM     10  C   UNL     1      47.251   2.031   6.163  0.00  0.00    +0.000 A 
ATOM     11  C   UNL     1      46.998   1.106   7.172  0.00  0.00    +0.000 A 
ATOM     12  C   UNL     1      46.202   1.458   8.270  0.00  0.00    +0.000 A 
ENDBRANCH   5   7
BRANCH   1  13
ATOM     13  C   UNL     1      43.979   6.520  11.267  0.00  0.00    +0.000 C 
BRANCH  13  14
ATOM     14  O   UNL     1      44.493   6.794  12.568  0.00  0.00    +0.000 OA
BRANCH  14  17
ATOM     15  C   UNL     1      48.180   6.954  12.468  0.00  0.00    +0.000 A 
ATOM     16  C   UNL     1      46.866   7.307  12.159  0.00  0.00    +0.000 A 
ATOM     17  C   UNL     1      45.834   6.590  12.755  0.00  0.00    +0.000 A 
ATOM     18  C   UNL     1      46.151   5.557  13.634  0.00  0.00    +0.000 A 
ATOM     19  C   UNL     1      47.483   5.277  13.882  0.00  0.00    +0.000 A 
ATOM     20  N   UNL     1      48.505   5.952  13.318  0.00  0.00    +0.000 NA
BRANCH  15  22
ATOM     21  N   UNL     1      50.146   8.276  11.402  0.00  0.00    +0.000 NA
ATOM     22  C   UNL     1      49.279   7.656  11.871  0.00  0.00    +0.000 C 
ENDBRANCH  15  22
ENDBRANCH  14  17
ENDBRANCH  13  14
ENDBRANCH   1  13
TORSDOF 5
ENDMDL
MODEL 3
REMARK VINA RESULT:    -7.586      1.295      1.527
REMARK INTER + INTRA:         -10.593
REMARK INTER:                  -9.783
REMARK INTRA:                  -0.810
REMARK UNBOUND:                -0.789
REMARK  Name = 
REMARK  5 active torsions:
REMARK  status: ('A' for Active; 'I' for Inactive)
REMARK    1  A    between atoms: C_2  and  C_3
REMARK    2  A    between atoms: C_5  and  O_6
REMARK    3  A    between atoms: O_6  and  C_7
REMARK    4  A    between atoms: C_7  and  C_8
REMARK    5  A    between atoms: C_12  and  C_13
REMARK                            x       y       z     vdW  Elec       q    Type
REMARK                         _______ _______ _______ _____ _____    ______ ____
ROOT
ATOM      1  C   UNL     1      44.846   4.879  11.671  0.00  0.00    +0.000 A 
ATOM      2  C   UNL     1      43.685   4.242  12.120  0.00  0.00    +0.000 A 
ATOM      3  C   UNL     1      43.233   3.086  11.488  0.00  0.00    +0.000 A 
ATOM      4  C   UNL     1      43.926   2.574  10.389  0.00  0.00    +0.000 A 
ATOM      5  C   UNL     1      45.073   3.209   9.881  0.00  0.00    +0.000 A 
ATOM      6  C   UNL     1      45.546   4.338  10.578  0.00  0.00    +0.000 A 
ENDROOT
BRANCH   5   7
ATOM      7  C   UNL     1      45.676   2.797   8.591  0.00  0.00    +0.000 A 
ATOM      8  C   UNL     1      45.891   3.748   7.574  0.00  0.00    +0.000 A 
ATOM      9  C   UNL     1      46.564   3.426   6.393  0.00  0.00    +0.000 A 
ATOM     10  C   UNL     1      47.048   2.138   6.204  0.00  0.00    +0.000 A 
ATOM     11  C   UNL     1      46.835   1.170   7.181  0.00  0.00    +0.000 A 
ATOM     12  C   UNL     1      46.146   1.493   8.356  0.00  0.00    +0.000 A 
ENDBRANCH   5   7
BRANCH   1  13
ATOM     13  C   UNL     1      45.309   6.167  12.306  0.00  0.00    +0.000 C 
BRANCH  13  14
ATOM     14  O   UNL     1      46.731   6.171  12.406  0.00  0.00    +0.000 OA
BRANCH  14  17
ATOM     15  C   UNL     1      47.540   4.777  15.727  0.00  0.00    +0.000 A 
ATOM     16  C   UNL     1      46.886   4.884  14.500  0.00  0.00    +0.000 A 
ATOM     17  C   UNL     1      47.262   5.913  13.642  0.00  0.00    +0.000 A 
ATOM     18  C   UNL     1      48.271   6.788  14.039  0.00  0.00    +0.000 A 
ATOM     19  C   UNL     1      48.864   6.604  15.276  0.00  0.00    +0.000 A 
ATOM     20  N   UNL     1      48.521   5.619  16.129  0.00  0.00    +0.000 NA
BRANCH  15  22
ATOM     21  N   UNL     1      46.910   2.932  17.445  0.00  0.00    +0.000 NA
ATOM     22  C   UNL     1      47.182   3.740  16.652  0.00  0.00    +0.000 C 
ENDBRANCH  15  22
ENDBRANCH  14  17
ENDBRANCH  13  14
ENDBRANCH   1  13
TORSDOF 5
ENDMDL
MODEL 4
REMARK VINA RESULT:    -7.490      3.017      6.432
REMARK INTER + INTRA:         -10.468
REMARK INTER:                  -9.423
REMARK INTRA:                  -1.046
REMARK UNBOUND:                -0.789
REMARK  Name = 
REMARK  5 active torsions:
REMARK  status: ('A' for Active; 'I' for Inactive)
REMARK    1  A    between atoms: C_2  and  C_3
REMARK    2  A    between atoms: C_5  and  O_6
REMARK    3  A    between atoms: O_6  and  C_7
REMARK    4  A    between atoms: C_7  and  C_8
REMARK    5  A    between atoms: C_12  and  C_13
REMARK                            x       y       z     vdW  Elec       q    Type
REMARK                         _______ _______ _______ _____ _____    ______ ____
ROOT
ATOM      1  C   UNL     1      44.699   4.163  11.922  0.00  0.00    +0.000 A 
ATOM      2  C   UNL     1      45.590   3.521  12.787  0.00  0.00    +0.000 A 
ATOM      3  C   UNL     1      46.500   4.267  13.532  0.00  0.00    +0.000 A 
ATOM      4  C   UNL     1      46.541   5.656  13.398  0.00  0.00    +0.000 A 
ATOM      5  C   UNL     1      45.690   6.335  12.508  0.00  0.00    +0.000 A 
ATOM      6  C   UNL     1      44.735   5.564  11.816  0.00  0.00    +0.000 A 
ENDROOT
BRANCH   5   7
ATOM      7  C   UNL     1      45.880   7.774  12.203  0.00  0.00    +0.000 A 
ATOM      8  C   UNL     1      44.811   8.537  11.694  0.00  0.00    +0.000 A 
ATOM      9  C   UNL     1      44.913   9.917  11.508  0.00  0.00    +0.000 A 
ATOM     10  C   UNL     1      46.094  10.572  11.835  0.00  0.00    +0.000 A 
ATOM     11  C   UNL     1      47.175   9.844  12.321  0.00  0.00    +0.000 A 
ATOM     12  C   UNL     1      47.074   8.458  12.492  0.00  0.00    +0.000 A 
ENDBRANCH   5   7
BRANCH   1  13
ATOM     13  C   UNL     1      43.753   3.361  11.062  0.00  0.00    +0.000 C 
BRANCH  13  14
ATOM     14  O   UNL     1      43.823   3.818   9.713  0.00  0.00    +0.000 OA
BRANCH  14  17
ATOM     15  C   UNL     1      46.233   1.621   7.983  0.00  0.00    +0.000 A 
ATOM     16  C   UNL     1      45.168   1.960   8.818  0.00  0.00    +0.000 A 
ATOM     17  C   UNL     1      44.831   3.304   8.942  0.00  0.00    +0.000 A 
ATOM     18  C   UNL     1      45.564   4.251   8.231  0.00  0.00    +0.000 A 
ATOM     19  C   UNL     1      46.604   3.822   7.426  0.00  0.00    +0.000 A 
ATOM     20  N   UNL     1      46.956   2.528   7.287  0.00  0.00    +0.000 NA
BRANCH  15  22
ATOM     21  N   UNL     1      46.917  -0.864   7.653  0.00  0.00    +0.000 NA
ATOM     22  C   UNL     1      46.626   0.249   7.829  0.00  0.00    +0.000 C 
ENDBRANCH  15  22
ENDBRANCH  14  17
ENDBRANCH  13  14
ENDBRANCH   1  13
TORSDOF 5
ENDMDL
MODEL 5
REMARK VINA RESULT:    -7.328      2.208      2.582
REMARK INTER + INTRA:         -10.259
REMARK INTER:                  -9.370
REMARK INTRA:                  -0.889
REMARK UNBOUND:                -0.789
REMARK  Name = 
REMARK  5 active torsions:
REMARK  status: ('A' for Active; 'I' for Inactive)
REMARK    1  A    between atoms: C_2  and  C_3
REMARK    2  A    between atoms: C_5  and  O_6
REMARK    3  A    between atoms: O_6  and  C_7
REMARK    4  A    between atoms: C_7  and  C_8
REMARK    5  A    between atoms: C_12  and  C_13
REMARK                            x       y       z     vdW  Elec       q    Type
REMARK                         _______ _______ _______ _____ _____    ______ ____
ROOT
ATOM      1  C   UNL     1      44.228   5.041  11.342  0.00  0.00    +0.000 A 
ATOM      2  C   UNL     1      43.320   4.165  11.945  0.00  0.00    +0.000 A 
ATOM      3  C   UNL     1      43.239   2.841  11.523  0.00  0.00    +0.000 A 
ATOM      4  C   UNL     1      44.050   2.390  10.478  0.00  0.00    +0.000 A 
ATOM      5  C   UNL     1      44.945   3.250   9.818  0.00  0.00    +0.000 A 
ATOM      6  C   UNL     1      45.054   4.565  10.308  0.00  0.00    +0.000 A 
ENDROOT
BRANCH   5   7
ATOM      7  C   UNL     1      45.639   2.834   8.575  0.00  0.00    +0.000 A 
ATOM      8  C   UNL     1      45.912   3.780   7.567  0.00  0.00    +0.000 A 
ATOM      9  C   UNL     1      46.667   3.457   6.437  0.00  0.00    +0.000 A 
ATOM     10  C   UNL     1      47.177   2.173   6.292  0.00  0.00    +0.000 A 
ATOM     11  C   UNL     1      46.910   1.210   7.261  0.00  0.00    +0.000 A 
ATOM     12  C   UNL     1      46.139   1.534   8.384  0.00  0.00    +0.000 A 
ENDBRANCH   5   7
BRANCH   1  13
ATOM     13  C   UNL     1      44.279   6.493  11.747  0.00  0.00    +0.000 C 
BRANCH  13  14
ATOM     14  O   UNL     1      45.277   6.679  12.747  0.00  0.00    +0.000 OA
BRANCH  14  17
ATOM     15  C   UNL     1      48.509   8.199  11.812  0.00  0.00    +0.000 A 
ATOM     16  C   UNL     1      47.595   7.182  12.085  0.00  0.00    +0.000 A 
ATOM     17  C   UNL     1      46.299   7.539  12.444  0.00  0.00    +0.000 A 
ATOM     18  C   UNL     1      45.967   8.890  12.513  0.00  0.00    +0.000 A 
ATOM     19  C   UNL     1      46.940   9.831  12.225  0.00  0.00    +0.000 A 
ATOM     20  N   UNL     1      48.203   9.517  11.876  0.00  0.00    +0.000 NA
BRANCH  15  22
ATOM     21  N   UNL     1      50.948   7.654  11.101  0.00  0.00    +0.000 NA
ATOM     22  C   UNL     1      49.860   7.883  11.447  0.00  0.00    +0.000 C 
ENDBRANCH  15  22
ENDBRANCH  14  17
ENDBRANCH  13  14
ENDBRANCH   1  13
TORSDOF 5
ENDMDL
MODEL 6
REMARK VINA RESULT:    -7.256      2.134      3.127
REMARK INTER + INTRA:         -10.166
REMARK INTER:                  -9.305
REMARK INTRA:                  -0.861
REMARK UNBOUND:                -0.789
REMARK  Name = 
REMARK  5 active torsions:
REMARK  status: ('A' for Active; 'I' for Inactive)
REMARK    1  A    between atoms: C_2  and  C_3
REMARK    2  A    between atoms: C_5  and  O_6
REMARK    3  A    between atoms: O_6  and  C_7
REMARK    4  A    between atoms: C_7  and  C_8
REMARK    5  A    between atoms: C_12  and  C_13
REMARK                            x       y       z     vdW  Elec       q    Type
REMARK                         _______ _______ _______ _____ _____    ______ ____
ROOT
ATOM      1  C   UNL     1      44.178   5.177  11.099  0.00  0.00    +0.000 A 
ATOM      2  C   UNL     1      43.314   4.306  11.770  0.00  0.00    +0.000 A 
ATOM      3  C   UNL     1      43.293   2.953  11.444  0.00  0.00    +0.000 A 
ATOM      4  C   UNL     1      44.118   2.466  10.427  0.00  0.00    +0.000 A 
ATOM      5  C   UNL     1      44.970   3.316   9.700  0.00  0.00    +0.000 A 
ATOM      6  C   UNL     1      45.020   4.667  10.094  0.00  0.00    +0.000 A 
ENDROOT
BRANCH   5   7
ATOM      7  C   UNL     1      45.675   2.845   8.484  0.00  0.00    +0.000 A 
ATOM      8  C   UNL     1      45.995   3.753   7.455  0.00  0.00    +0.000 A 
ATOM      9  C   UNL     1      46.763   3.376   6.351  0.00  0.00    +0.000 A 
ATOM     10  C   UNL     1      47.238   2.075   6.253  0.00  0.00    +0.000 A 
ATOM     11  C   UNL     1      46.924   1.148   7.243  0.00  0.00    +0.000 A 
ATOM     12  C   UNL     1      46.141   1.526   8.341  0.00  0.00    +0.000 A 
ENDBRANCH   5   7
BRANCH   1  13
ATOM     13  C   UNL     1      44.164   6.655  11.399  0.00  0.00    +0.000 C 
BRANCH  13  14
ATOM     14  O   UNL     1      44.995   6.926  12.525  0.00  0.00    +0.000 OA
BRANCH  14  17
ATOM     15  C   UNL     1      47.423   9.668  12.058  0.00  0.00    +0.000 A 
ATOM     16  C   UNL     1      46.191   9.069  12.320  0.00  0.00    +0.000 A 
ATOM     17  C   UNL     1      46.115   7.680  12.295  0.00  0.00    +0.000 A 
ATOM     18  C   UNL     1      47.266   6.947  12.013  0.00  0.00    +0.000 A 
ATOM     19  C   UNL     1      48.445   7.626  11.765  0.00  0.00    +0.000 A 
ATOM     20  N   UNL     1      48.550   8.970  11.780  0.00  0.00    +0.000 NA
BRANCH  15  22
ATOM     21  N   UNL     1      47.635  12.256  12.120  0.00  0.00    +0.000 NA
ATOM     22  C   UNL     1      47.552  11.096  12.062  0.00  0.00    +0.000 C 
ENDBRANCH  15  22
ENDBRANCH  14  17
ENDBRANCH  13  14
ENDBRANCH   1  13
TORSDOF 5
ENDMDL
MODEL 7
REMARK VINA RESULT:    -7.252      3.043      6.618
REMARK INTER + INTRA:         -10.162
REMARK INTER:                  -9.275
REMARK INTRA:                  -0.886
REMARK UNBOUND:                -0.789
REMARK  Name = 
REMARK  5 active torsions:
REMARK  status: ('A' for Active; 'I' for Inactive)
REMARK    1  A    between atoms: C_2  and  C_3
REMARK    2  A    between atoms: C_5  and  O_6
REMARK    3  A    between atoms: O_6  and  C_7
REMARK    4  A    between atoms: C_7  and  C_8
REMARK    5  A    between atoms: C_12  and  C_13
REMARK                            x       y       z     vdW  Elec       q    Type
REMARK                         _______ _______ _______ _____ _____    ______ ____
ROOT
ATOM      1  C   UNL     1      45.099   5.073  11.492  0.00  0.00    +0.000 A 
ATOM      2  C   UNL     1      45.408   4.141  12.488  0.00  0.00    +0.000 A 
ATOM      3  C   UNL     1      46.406   4.417  13.419  0.00  0.00    +0.000 A 
ATOM      4  C   UNL     1      47.118   5.616  13.345  0.00  0.00    +0.000 A 
ATOM      5  C   UNL     1      46.867   6.560  12.333  0.00  0.00    +0.000 A 
ATOM      6  C   UNL     1      45.808   6.286  11.446  0.00  0.00    +0.000 A 
ENDROOT
BRANCH   5   7
ATOM      7  C   UNL     1      47.763   7.722  12.122  0.00  0.00    +0.000 A 
ATOM      8  C   UNL     1      49.119   7.520  11.798  0.00  0.00    +0.000 A 
ATOM      9  C   UNL     1      49.967   8.582  11.474  0.00  0.00    +0.000 A 
ATOM     10  C   UNL     1      49.472   9.879  11.460  0.00  0.00    +0.000 A 
ATOM     11  C   UNL     1      48.142  10.115  11.794  0.00  0.00    +0.000 A 
ATOM     12  C   UNL     1      47.300   9.049  12.134  0.00  0.00    +0.000 A 
ENDBRANCH   5   7
BRANCH   1  13
ATOM     13  C   UNL     1      44.064   4.757  10.440  0.00  0.00    +0.000 C 
BRANCH  13  14
ATOM     14  O   UNL     1      44.665   4.791   9.148  0.00  0.00    +0.000 OA
BRANCH  14  17
ATOM     15  C   UNL     1      46.677   2.224   7.419  0.00  0.00    +0.000 A 
ATOM     16  C   UNL     1      46.245   3.504   7.765  0.00  0.00    +0.000 A 
ATOM     17  C   UNL     1      45.216   3.622   8.695  0.00  0.00    +0.000 A 
ATOM     18  C   UNL     1      44.664   2.466   9.241  0.00  0.00    +0.000 A 
ATOM     19  C   UNL     1      45.157   1.237   8.838  0.00  0.00    +0.000 A 
ATOM     20  N   UNL     1      46.151   1.090   7.939  0.00  0.00    +0.000 NA
BRANCH  15  22
ATOM     21  N   UNL     1      48.545   1.927   5.637  0.00  0.00    +0.000 NA
ATOM     22  C   UNL     1      47.728   2.048   6.458  0.00  0.00    +0.000 C 
ENDBRANCH  15  22
ENDBRANCH  14  17
ENDBRANCH  13  14
ENDBRANCH   1  13
TORSDOF 5
ENDMDL
MODEL 8
REMARK VINA RESULT:    -6.800      2.805      7.178
REMARK INTER + INTRA:          -9.577
REMARK INTER:                  -8.643
REMARK INTRA:                  -0.934
REMARK UNBOUND:                -0.789
REMARK  Name = 
REMARK  5 active torsions:
REMARK  status: ('A' for Active; 'I' for Inactive)
REMARK    1  A    between atoms: C_2  and  C_3
REMARK    2  A    between atoms: C_5  and  O_6
REMARK    3  A    between atoms: O_6  and  C_7
REMARK    4  A    between atoms: C_7  and  C_8
REMARK    5  A    between atoms: C_12  and  C_13
REMARK                            x       y       z     vdW  Elec       q    Type
REMARK                         _______ _______ _______ _____ _____    ______ ____
ROOT
ATOM      1  C   UNL     1      45.906   5.677  11.890  0.00  0.00    +0.000 A 
ATOM      2  C   UNL     1      46.647   6.753  11.393  0.00  0.00    +0.000 A 
ATOM      3  C   UNL     1      47.770   7.206  12.081  0.00  0.00    +0.000 A 
ATOM      4  C   UNL     1      48.143   6.601  13.284  0.00  0.00    +0.000 A 
ATOM      5  C   UNL     1      47.399   5.544  13.838  0.00  0.00    +0.000 A 
ATOM      6  C   UNL     1      46.308   5.063  13.089  0.00  0.00    +0.000 A 
ENDROOT
BRANCH   5   7
ATOM      7  C   UNL     1      47.663   5.052  15.212  0.00  0.00    +0.000 A 
ATOM      8  C   UNL     1      47.228   3.769  15.600  0.00  0.00    +0.000 A 
ATOM      9  C   UNL     1      47.560   3.222  16.841  0.00  0.00    +0.000 A 
ATOM     10  C   UNL     1      48.346   3.948  17.727  0.00  0.00    +0.000 A 
ATOM     11  C   UNL     1      48.775   5.226  17.383  0.00  0.00    +0.000 A 
ATOM     12  C   UNL     1      48.427   5.777  16.143  0.00  0.00    +0.000 A 
ENDBRANCH   5   7
BRANCH   1  13
ATOM     13  C   UNL     1      44.652   5.219  11.187  0.00  0.00    +0.000 C 
BRANCH  13  14
ATOM     14  O   UNL     1      44.876   5.178   9.779  0.00  0.00    +0.000 OA
BRANCH  14  17
ATOM     15  C   UNL     1      46.347   2.390   7.859  0.00  0.00    +0.000 A 
ATOM     16  C   UNL     1      46.176   3.703   8.297  0.00  0.00    +0.000 A 
ATOM     17  C   UNL     1      45.185   3.958   9.241  0.00  0.00    +0.000 A 
ATOM     18  C   UNL     1      44.411   2.899   9.709  0.00  0.00    +0.000 A 
ATOM     19  C   UNL     1      44.653   1.628   9.217  0.00  0.00    +0.000 A 
ATOM     20  N   UNL     1      45.603   1.350   8.302  0.00  0.00    +0.000 NA
BRANCH  15  22
ATOM     21  N   UNL     1      48.161   1.768   6.106  0.00  0.00    +0.000 NA
ATOM     22  C   UNL     1      47.348   2.077   6.879  0.00  0.00    +0.000 C 
ENDBRANCH  15  22
ENDBRANCH  14  17
ENDBRANCH  13  14
ENDBRANCH   1  13
TORSDOF 5
ENDMDL
MODEL 9
REMARK VINA RESULT:    -6.558      2.262      4.123
REMARK INTER + INTRA:          -9.264
REMARK INTER:                  -8.397
REMARK INTRA:                  -0.867
REMARK UNBOUND:                -0.789
REMARK  Name = 
REMARK  5 active torsions:
REMARK  status: ('A' for Active; 'I' for Inactive)
REMARK    1  A    between atoms: C_2  and  C_3
REMARK    2  A    between atoms: C_5  and  O_6
REMARK    3  A    between atoms: O_6  and  C_7
REMARK    4  A    between atoms: C_7  and  C_8
REMARK    5  A    between atoms: C_12  and  C_13
REMARK                            x       y       z     vdW  Elec       q    Type
REMARK                         _______ _______ _______ _____ _____    ______ ____
ROOT
ATOM      1  C   UNL     1      47.338   7.456  12.540  0.00  0.00    +0.000 A 
ATOM      2  C   UNL     1      46.492   8.567  12.620  0.00  0.00    +0.000 A 
ATOM      3  C   UNL     1      45.205   8.505  12.093  0.00  0.00    +0.000 A 
ATOM      4  C   UNL     1      44.763   7.341  11.461  0.00  0.00    +0.000 A 
ATOM      5  C   UNL     1      45.598   6.217  11.323  0.00  0.00    +0.000 A 
ATOM      6  C   UNL     1      46.870   6.283  11.922  0.00  0.00    +0.000 A 
ENDROOT
BRANCH   5   7
ATOM      7  C   UNL     1      45.212   5.071  10.465  0.00  0.00    +0.000 A 
ATOM      8  C   UNL     1      45.598   5.038   9.111  0.00  0.00    +0.000 A 
ATOM      9  C   UNL     1      45.360   3.925   8.302  0.00  0.00    +0.000 A 
ATOM     10  C   UNL     1      44.731   2.807   8.835  0.00  0.00    +0.000 A 
ATOM     11  C   UNL     1      44.319   2.814  10.164  0.00  0.00    +0.000 A 
ATOM     12  C   UNL     1      44.546   3.939  10.967  0.00  0.00    +0.000 A 
ENDBRANCH   5   7
BRANCH   1  13
ATOM     13  C   UNL     1      48.756   7.532  13.050  0.00  0.00    +0.000 C 
BRANCH  13  14
ATOM     14  O   UNL     1      48.753   7.874  14.433  0.00  0.00    +0.000 OA
BRANCH  14  17
ATOM     15  C   UNL     1      48.421   4.906  16.604  0.00  0.00    +0.000 A 
ATOM     16  C   UNL     1      48.034   5.874  15.677  0.00  0.00    +0.000 A 
ATOM     17  C   UNL     1      48.958   6.851  15.320  0.00  0.00    +0.000 A 
ATOM     18  C   UNL     1      50.226   6.822  15.896  0.00  0.00    +0.000 A 
ATOM     19  C   UNL     1      50.522   5.823  16.807  0.00  0.00    +0.000 A 
ATOM     20  N   UNL     1      49.648   4.865  17.174  0.00  0.00    +0.000 NA
BRANCH  15  22
ATOM     21  N   UNL     1      46.712   3.093  17.339  0.00  0.00    +0.000 NA
ATOM     22  C   UNL     1      47.501   3.884  17.013  0.00  0.00    +0.000 C 
ENDBRANCH  15  22
ENDBRANCH  14  17
ENDBRANCH  13  14
ENDBRANCH   1  13
TORSDOF 5
ENDMDL
