MODEL 1
REMARK VINA RESULT:    -7.913      0.000      0.000
REMARK INTER + INTRA:         -11.596
REMARK INTER:                 -10.689
REMARK INTRA:                  -0.907
REMARK UNBOUND:                -0.907
REMARK  Name = 
REMARK  6 active torsions:
REMARK  status: ('A' for Active; 'I' for Inactive)
REMARK    1  A    between atoms: C_2  and  C_20
REMARK    2  A    between atoms: N_3  and  C_4
REMARK    3  A    between atoms: C_4  and  C_5
REMARK    4  A    between atoms: C_8  and  C_9
REMARK    5  A    between atoms: C_9  and  N_10
REMARK    6  A    between atoms: N_10  and  C_11
REMARK                            x       y       z     vdW  Elec       q    Type
REMARK                         _______ _______ _______ _____ _____    ______ ____
ROOT
ATOM      1  C   UNL     1      46.877   7.258  13.107  0.00  0.00    +0.000 C 
ENDROOT
BRANCH   1   2
ATOM      2  C   UNL     1      46.181   6.117  12.411  0.00  0.00    +0.000 A 
ATOM      3  C   UNL     1      45.981   4.903  13.081  0.00  0.00    +0.000 A 
ATOM      4  C   UNL     1      45.352   3.835  12.438  0.00  0.00    +0.000 A 
ATOM      5  C   UNL     1      44.934   3.952  11.106  0.00  0.00    +0.000 A 
ATOM      6  C   UNL     1      45.134   5.166  10.436  0.00  0.00    +0.000 A 
ATOM      7  C   UNL     1      45.762   6.235  11.079  0.00  0.00    +0.000 A 
BRANCH   5   8
ATOM      8  C   UNL     1      44.316   2.772  10.393  0.00  0.00    +0.000 C 
BRANCH   8   9
ATOM      9  N   UNL     1      44.382   2.949   8.950  0.00  0.00    +0.000 N 
ATOM     10  H   UNL     1      44.367   3.923   8.664  0.00  0.00    +0.000 HD
BRANCH   9  11
ATOM     11  C   UNL     1      45.480   2.292   8.360  0.00  0.00    +0.000 A 
ATOM     12  N   UNL     1      45.550   0.941   8.446  0.00  0.00    +0.000 NA
ATOM     13  C   UNL     1      46.575   0.303   7.843  0.00  0.00    +0.000 A 
ATOM     14  C   UNL     1      47.565   0.948   7.128  0.00  0.00    +0.000 A 
ATOM     15  C   UNL     1      47.498   2.332   7.023  0.00  0.00    +0.000 A 
ATOM     16  C   UNL     1      46.451   3.016   7.644  0.00  0.00    +0.000 A 
ATOM     17 CL   UNL     1      46.400   4.736   7.511  0.00  0.00    +0.000 Cl
ENDBRANCH   9  11
ENDBRANCH   8   9
ENDBRANCH   5   8
ENDBRANCH   1   2
BRANCH   1  20
ATOM     18  O   UNL     1      49.565   6.884  13.859  0.00  0.00    +0.000 OA
ATOM     19  C   UNL     1      48.687   6.756  14.706  0.00  0.00    +0.000 C 
ATOM     20  N   UNL     1      47.353   6.860  14.408  0.00  0.00    +0.000 N 
ATOM     21  H   UNL     1      46.684   6.938  15.165  0.00  0.00    +0.000 HD
BRANCH  19  22
ATOM     22  C   UNL     1      49.012   6.417  16.098  0.00  0.00    +0.000 A 
ATOM     23  C   UNL     1      49.667   7.344  16.897  0.00  0.00    +0.000 A 
ATOM     24  S   UNL     1      49.997   6.776  18.471  0.00  0.00    +0.000 S 
ATOM     25  C   UNL     1      49.227   5.292  18.158  0.00  0.00    +0.000 A 
ATOM     26  N   UNL     1      49.127   4.339  19.123  0.00  0.00    +0.000 NA
ATOM     27  C   UNL     1      48.474   3.283  18.764  0.00  0.00    +0.000 A 
ATOM     28  N   UNL     1      47.923   3.090  17.524  0.00  0.00    +0.000 N 
ATOM     29  C   UNL     1      48.070   3.989  16.495  0.00  0.00    +0.000 A 
ATOM     30  O   UNL     1      47.687   3.721  15.361  0.00  0.00    +0.000 OA
ATOM     31  C   UNL     1      48.751   5.218  16.861  0.00  0.00    +0.000 A 
ATOM     32  H   UNL     1      47.452   2.227  17.296  0.00  0.00    +0.000 HD
ENDBRANCH  19  22
ENDBRANCH   1  20
TORSDOF 6
ENDMDL
MODEL 2
REMARK VINA RESULT:    -7.797      2.482      3.260
REMARK INTER + INTRA:         -11.439
REMARK INTER:                 -10.502
REMARK INTRA:                  -0.937
REMARK UNBOUND:                -0.907
REMARK  Name = 
REMARK  6 active torsions:
REMARK  status: ('A' for Active; 'I' for Inactive)
REMARK    1  A    between atoms: C_2  and  C_20
REMARK    2  A    between atoms: N_3  and  C_4
REMARK    3  A    between atoms: C_4  and  C_5
REMARK    4  A    between atoms: C_8  and  C_9
REMARK    5  A    between atoms: C_9  and  N_10
REMARK    6  A    between atoms: N_10  and  C_11
REMARK                            x       y       z     vdW  Elec       q    Type
REMARK                         _______ _______ _______ _____ _____    ______ ____
ROOT
ATOM      1  C   UNL     1      46.755   4.450  15.888  0.00  0.00    +0.000 C 
ENDROOT
BRANCH   1   2
ATOM      2  C   UNL     1      46.588   4.849  14.445  0.00  0.00    +0.000 A 
ATOM      3  C   UNL     1      47.441   5.804  13.877  0.00  0.00    +0.000 A 
ATOM      4  C   UNL     1      47.282   6.193  12.546  0.00  0.00    +0.000 A 
ATOM      5  C   UNL     1      46.251   5.654  11.765  0.00  0.00    +0.000 A 
ATOM      6  C   UNL     1      45.397   4.700  12.333  0.00  0.00    +0.000 A 
ATOM      7  C   UNL     1      45.557   4.309  13.664  0.00  0.00    +0.000 A 
BRANCH   5   8
ATOM      8  C   UNL     1      46.040   6.128  10.346  0.00  0.00    +0.000 C 
BRANCH   8   9
ATOM      9  N   UNL     1      45.003   5.346   9.689  0.00  0.00    +0.000 N 
ATOM     10  H   UNL     1      44.338   5.914   9.175  0.00  0.00    +0.000 HD
BRANCH   9  11
ATOM     11  C   UNL     1      45.516   4.333   8.855  0.00  0.00    +0.000 A 
ATOM     12  N   UNL     1      46.386   4.679   7.875  0.00  0.00    +0.000 NA
ATOM     13  C   UNL     1      46.914   3.707   7.102  0.00  0.00    +0.000 A 
ATOM     14  C   UNL     1      46.629   2.365   7.255  0.00  0.00    +0.000 A 
ATOM     15  C   UNL     1      45.747   1.997   8.264  0.00  0.00    +0.000 A 
ATOM     16  C   UNL     1      45.180   2.984   9.072  0.00  0.00    +0.000 A 
ATOM     17 CL   UNL     1      44.076   2.501  10.308  0.00  0.00    +0.000 Cl
ENDBRANCH   9  11
ENDBRANCH   8   9
ENDBRANCH   5   8
ENDBRANCH   1   2
BRANCH   1  20
ATOM     18  O   UNL     1      47.964   5.317  18.279  0.00  0.00    +0.000 OA
ATOM     19  C   UNL     1      48.646   4.725  17.448  0.00  0.00    +0.000 C 
ATOM     20  N   UNL     1      48.148   4.326  16.234  0.00  0.00    +0.000 N 
ATOM     21  H   UNL     1      48.688   3.679  15.671  0.00  0.00    +0.000 HD
BRANCH  19  22
ATOM     22  C   UNL     1      50.072   4.460  17.680  0.00  0.00    +0.000 A 
ATOM     23  C   UNL     1      50.899   5.481  18.125  0.00  0.00    +0.000 A 
ATOM     24  S   UNL     1      52.528   5.010  18.310  0.00  0.00    +0.000 S 
ATOM     25  C   UNL     1      52.175   3.409  17.853  0.00  0.00    +0.000 A 
ATOM     26  N   UNL     1      53.146   2.458  17.831  0.00  0.00    +0.000 NA
ATOM     27  C   UNL     1      52.729   1.276  17.516  0.00  0.00    +0.000 A 
ATOM     28  N   UNL     1      51.431   0.963  17.209  0.00  0.00    +0.000 N 
ATOM     29  C   UNL     1      50.433   1.906  17.138  0.00  0.00    +0.000 A 
ATOM     30  O   UNL     1      49.317   1.617  16.723  0.00  0.00    +0.000 OA
ATOM     31  C   UNL     1      50.838   3.243  17.535  0.00  0.00    +0.000 A 
ATOM     32  H   UNL     1      51.174   0.026  16.938  0.00  0.00    +0.000 HD
ENDBRANCH  19  22
ENDBRANCH   1  20
TORSDOF 6
ENDMDL
MODEL 3
REMARK VINA RESULT:    -7.616      2.470      3.713
REMARK INTER + INTRA:         -11.195
REMARK INTER:                 -10.144
REMARK INTRA:                  -1.051
REMARK UNBOUND:                -0.907
REMARK  Name = 
REMARK  6 active torsions:
REMARK  status: ('A' for Active; 'I' for Inactive)
REMARK    1  A    between atoms: C_2  and  C_20
REMARK    2  A    between atoms: N_3  and  C_4
REMARK    3  A    between atoms: C_4  and  C_5
REMARK    4  A    between atoms: C_8  and  C_9
REMARK    5  A    between atoms: C_9  and  N_10
REMARK    6  A    between atoms: N_10  and  C_11
REMARK                            x       y       z     vdW  Elec       q    Type
REMARK                         _______ _______ _______ _____ _____    ______ ____
ROOT
ATOM      1  C   UNL     1      47.363   4.146  15.518  0.00  0.00    +0.000 C 
ENDROOT
BRANCH   1   2
ATOM      2  C   UNL     1      46.827   4.687  14.218  0.00  0.00    +0.000 A 
ATOM      3  C   UNL     1      45.636   4.179  13.685  0.00  0.00    +0.000 A 
ATOM      4  C   UNL     1      45.141   4.661  12.471  0.00  0.00    +0.000 A 
ATOM      5  C   UNL     1      45.840   5.643  11.757  0.00  0.00    +0.000 A 
ATOM      6  C   UNL     1      47.031   6.152  12.291  0.00  0.00    +0.000 A 
ATOM      7  C   UNL     1      47.526   5.670  13.505  0.00  0.00    +0.000 A 
BRANCH   5   8
ATOM      8  C   UNL     1      45.337   6.114  10.413  0.00  0.00    +0.000 C 
BRANCH   8   9
ATOM      9  N   UNL     1      44.472   5.113   9.806  0.00  0.00    +0.000 N 
ATOM     10  H   UNL     1      43.697   5.514   9.287  0.00  0.00    +0.000 HD
BRANCH   9  11
ATOM     11  C   UNL     1      45.168   4.194   8.996  0.00  0.00    +0.000 A 
ATOM     12  N   UNL     1      46.007   4.675   8.046  0.00  0.00    +0.000 NA
ATOM     13  C   UNL     1      46.711   3.799   7.297  0.00  0.00    +0.000 A 
ATOM     14  C   UNL     1      46.636   2.429   7.447  0.00  0.00    +0.000 A 
ATOM     15  C   UNL     1      45.787   1.925   8.425  0.00  0.00    +0.000 A 
ATOM     16  C   UNL     1      45.042   2.809   9.208  0.00  0.00    +0.000 A 
ATOM     17 CL   UNL     1      43.984   2.157  10.405  0.00  0.00    +0.000 Cl
ENDBRANCH   9  11
ENDBRANCH   8   9
ENDBRANCH   5   8
ENDBRANCH   1   2
BRANCH   1  20
ATOM     18  O   UNL     1      49.618   5.470  16.564  0.00  0.00    +0.000 OA
ATOM     19  C   UNL     1      48.502   5.796  16.956  0.00  0.00    +0.000 C 
ATOM     20  N   UNL     1      47.359   5.160  16.543  0.00  0.00    +0.000 N 
ATOM     21  H   UNL     1      46.461   5.585  16.741  0.00  0.00    +0.000 HD
BRANCH  19  22
ATOM     22  C   UNL     1      48.323   6.861  17.951  0.00  0.00    +0.000 A 
ATOM     23  C   UNL     1      48.291   6.544  19.301  0.00  0.00    +0.000 A 
ATOM     24  S   UNL     1      48.042   7.893  20.315  0.00  0.00    +0.000 S 
ATOM     25  C   UNL     1      48.024   8.957  18.988  0.00  0.00    +0.000 A 
ATOM     26  N   UNL     1      47.878  10.297  19.168  0.00  0.00    +0.000 NA
ATOM     27  C   UNL     1      47.933  10.991  18.079  0.00  0.00    +0.000 A 
ATOM     28  N   UNL     1      48.109  10.465  16.826  0.00  0.00    +0.000 N 
ATOM     29  C   UNL     1      48.179   9.113  16.589  0.00  0.00    +0.000 A 
ATOM     30  O   UNL     1      48.194   8.671  15.446  0.00  0.00    +0.000 OA
ATOM     31  C   UNL     1      48.175   8.289  17.785  0.00  0.00    +0.000 A 
ATOM     32  H   UNL     1      48.111  11.059  16.011  0.00  0.00    +0.000 HD
ENDBRANCH  19  22
ENDBRANCH   1  20
TORSDOF 6
ENDMDL
MODEL 4
REMARK VINA RESULT:    -7.508      1.699      2.205
REMARK INTER + INTRA:         -11.048
REMARK INTER:                 -10.764
REMARK INTRA:                  -0.284
REMARK UNBOUND:                -0.907
REMARK  Name = 
REMARK  6 active torsions:
REMARK  status: ('A' for Active; 'I' for Inactive)
REMARK    1  A    between atoms: C_2  and  C_20
REMARK    2  A    between atoms: N_3  and  C_4
REMARK    3  A    between atoms: C_4  and  C_5
REMARK    4  A    between atoms: C_8  and  C_9
REMARK    5  A    between atoms: C_9  and  N_10
REMARK    6  A    between atoms: N_10  and  C_11
REMARK                            x       y       z     vdW  Elec       q    Type
REMARK                         _______ _______ _______ _____ _____    ______ ____
ROOT
ATOM      1  C   UNL     1      48.295   7.348  13.641  0.00  0.00    +0.000 C 
ENDROOT
BRANCH   1   2
ATOM      2  C   UNL     1      47.274   6.557  12.865  0.00  0.00    +0.000 A 
ATOM      3  C   UNL     1      46.755   7.064  11.668  0.00  0.00    +0.000 A 
ATOM      4  C   UNL     1      45.795   6.345  10.951  0.00  0.00    +0.000 A 
ATOM      5  C   UNL     1      45.319   5.118  11.432  0.00  0.00    +0.000 A 
ATOM      6  C   UNL     1      45.838   4.612  12.631  0.00  0.00    +0.000 A 
ATOM      7  C   UNL     1      46.799   5.329  13.346  0.00  0.00    +0.000 A 
BRANCH   5   8
ATOM      8  C   UNL     1      44.232   4.377  10.690  0.00  0.00    +0.000 C 
BRANCH   8   9
ATOM      9  N   UNL     1      44.273   4.688   9.269  0.00  0.00    +0.000 N 
ATOM     10  H   UNL     1      44.432   5.672   9.078  0.00  0.00    +0.000 HD
BRANCH   9  11
ATOM     11  C   UNL     1      45.199   3.904   8.555  0.00  0.00    +0.000 A 
ATOM     12  N   UNL     1      46.094   4.529   7.751  0.00  0.00    +0.000 NA
ATOM     13  C   UNL     1      47.014   3.786   7.100  0.00  0.00    +0.000 A 
ATOM     14  C   UNL     1      47.107   2.413   7.209  0.00  0.00    +0.000 A 
ATOM     15  C   UNL     1      46.202   1.761   8.038  0.00  0.00    +0.000 A 
ATOM     16  C   UNL     1      45.236   2.507   8.717  0.00  0.00    +0.000 A 
ATOM     17 CL   UNL     1      44.114   1.672   9.729  0.00  0.00    +0.000 Cl
ENDBRANCH   9  11
ENDBRANCH   8   9
ENDBRANCH   5   8
ENDBRANCH   1   2
BRANCH   1  20
ATOM     18  O   UNL     1      50.255   6.566  15.504  0.00  0.00    +0.000 OA
ATOM     19  C   UNL     1      49.133   6.857  15.908  0.00  0.00    +0.000 C 
ATOM     20  N   UNL     1      48.107   7.187  15.060  0.00  0.00    +0.000 N 
ATOM     21  H   UNL     1      47.267   7.602  15.445  0.00  0.00    +0.000 HD
BRANCH  19  22
ATOM     22  C   UNL     1      48.800   6.808  17.337  0.00  0.00    +0.000 A 
ATOM     23  C   UNL     1      48.372   7.959  17.984  0.00  0.00    +0.000 A 
ATOM     24  S   UNL     1      48.060   7.733  19.645  0.00  0.00    +0.000 S 
ATOM     25  C   UNL     1      48.433   6.076  19.548  0.00  0.00    +0.000 A 
ATOM     26  N   UNL     1      48.335   5.272  20.640  0.00  0.00    +0.000 NA
ATOM     27  C   UNL     1      48.598   4.027  20.411  0.00  0.00    +0.000 A 
ATOM     28  N   UNL     1      48.962   3.518  19.192  0.00  0.00    +0.000 N 
ATOM     29  C   UNL     1      49.153   4.305  18.082  0.00  0.00    +0.000 A 
ATOM     30  O   UNL     1      49.615   3.839  17.047  0.00  0.00    +0.000 OA
ATOM     31  C   UNL     1      48.819   5.706  18.271  0.00  0.00    +0.000 A 
ATOM     32  H   UNL     1      49.186   2.540  19.086  0.00  0.00    +0.000 HD
ENDBRANCH  19  22
ENDBRANCH   1  20
TORSDOF 6
ENDMDL
MODEL 5
REMARK VINA RESULT:    -7.504      2.097      2.652
REMARK INTER + INTRA:         -11.043
REMARK INTER:                 -10.884
REMARK INTRA:                  -0.160
REMARK UNBOUND:                -0.907
REMARK  Name = 
REMARK  6 active torsions:
REMARK  status: ('A' for Active; 'I' for Inactive)
REMARK    1  A    between atoms: C_2  and  C_20
REMARK    2  A    between atoms: N_3  and  C_4
REMARK    3  A    between atoms: C_4  and  C_5
REMARK    4  A    between atoms: C_8  and  C_9
REMARK    5  A    between atoms: C_9  and  N_10
REMARK    6  A    between atoms: N_10  and  C_11
REMARK                            x       y       z     vdW  Elec       q    Type
REMARK                         _______ _______ _______ _____ _____    ______ ____
ROOT
ATOM      1  C   UNL     1      47.788   6.853  13.796  0.00  0.00    +0.000 C 
ENDROOT
BRANCH   1   2
ATOM      2  C   UNL     1      46.792   6.189  12.881  0.00  0.00    +0.000 A 
ATOM      3  C   UNL     1      46.325   4.901  13.167  0.00  0.00    +0.000 A 
ATOM      4  C   UNL     1      45.416   4.271  12.315  0.00  0.00    +0.000 A 
ATOM      5  C   UNL     1      44.977   4.907  11.147  0.00  0.00    +0.000 A 
ATOM      6  C   UNL     1      45.445   6.196  10.860  0.00  0.00    +0.000 A 
ATOM      7  C   UNL     1      46.353   6.827  11.713  0.00  0.00    +0.000 A 
BRANCH   5   8
ATOM      8  C   UNL     1      44.047   4.196  10.193  0.00  0.00    +0.000 C 
BRANCH   8   9
ATOM      9  N   UNL     1      44.356   4.544   8.813  0.00  0.00    +0.000 N 
ATOM     10  H   UNL     1      44.605   5.521   8.693  0.00  0.00    +0.000 HD
BRANCH   9  11
ATOM     11  C   UNL     1      45.347   3.721   8.242  0.00  0.00    +0.000 A 
ATOM     12  N   UNL     1      46.302   4.298   7.472  0.00  0.00    +0.000 NA
ATOM     13  C   UNL     1      47.280   3.521   6.959  0.00  0.00    +0.000 A 
ATOM     14  C   UNL     1      47.374   2.161   7.180  0.00  0.00    +0.000 A 
ATOM     15  C   UNL     1      46.407   1.561   7.977  0.00  0.00    +0.000 A 
ATOM     16  C   UNL     1      45.381   2.342   8.514  0.00  0.00    +0.000 A 
ATOM     17 CL   UNL     1      44.183   1.569   9.488  0.00  0.00    +0.000 Cl
ENDBRANCH   9  11
ENDBRANCH   8   9
ENDBRANCH   5   8
ENDBRANCH   1   2
BRANCH   1  20
ATOM     18  O   UNL     1      49.978   6.558  15.541  0.00  0.00    +0.000 OA
ATOM     19  C   UNL     1      48.865   6.208  15.920  0.00  0.00    +0.000 C 
ATOM     20  N   UNL     1      47.759   6.261  15.110  0.00  0.00    +0.000 N 
ATOM     21  H   UNL     1      46.842   6.147  15.524  0.00  0.00    +0.000 HD
BRANCH  19  22
ATOM     22  C   UNL     1      48.656   5.646  17.260  0.00  0.00    +0.000 A 
ATOM     23  C   UNL     1      48.874   4.294  17.482  0.00  0.00    +0.000 A 
ATOM     24  S   UNL     1      48.553   3.803  19.083  0.00  0.00    +0.000 S 
ATOM     25  C   UNL     1      48.164   5.392  19.552  0.00  0.00    +0.000 A 
ATOM     26  N   UNL     1      47.822   5.678  20.837  0.00  0.00    +0.000 NA
ATOM     27  C   UNL     1      47.602   6.931  21.063  0.00  0.00    +0.000 A 
ATOM     28  N   UNL     1      47.681   7.921  20.119  0.00  0.00    +0.000 N 
ATOM     29  C   UNL     1      47.941   7.667  18.793  0.00  0.00    +0.000 A 
ATOM     30  O   UNL     1      47.864   8.555  17.952  0.00  0.00    +0.000 OA
ATOM     31  C   UNL     1      48.249   6.280  18.494  0.00  0.00    +0.000 A 
ATOM     32  H   UNL     1      47.465   8.878  20.353  0.00  0.00    +0.000 HD
ENDBRANCH  19  22
ENDBRANCH   1  20
TORSDOF 6
ENDMDL
MODEL 6
REMARK VINA RESULT:    -7.358      2.300      3.317
REMARK INTER + INTRA:         -10.846
REMARK INTER:                  -9.811
REMARK INTRA:                  -1.035
REMARK UNBOUND:                -0.907
REMARK  Name = 
REMARK  6 active torsions:
REMARK  status: ('A' for Active; 'I' for Inactive)
REMARK    1  A    between atoms: C_2  and  C_20
REMARK    2  A    between atoms: N_3  and  C_4
REMARK    3  A    between atoms: C_4  and  C_5
REMARK    4  A    between atoms: C_8  and  C_9
REMARK    5  A    between atoms: C_9  and  N_10
REMARK    6  A    between atoms: N_10  and  C_11
REMARK                            x       y       z     vdW  Elec       q    Type
REMARK                         _______ _______ _______ _____ _____    ______ ____
ROOT
ATOM      1  C   UNL     1      47.260   4.159  15.535  0.00  0.00    +0.000 C 
ENDROOT
BRANCH   1   2
ATOM      2  C   UNL     1      46.800   4.694  14.204  0.00  0.00    +0.000 A 
ATOM      3  C   UNL     1      45.647   4.178  13.600  0.00  0.00    +0.000 A 
ATOM      4  C   UNL     1      45.224   4.656  12.358  0.00  0.00    +0.000 A 
ATOM      5  C   UNL     1      45.960   5.640  11.685  0.00  0.00    +0.000 A 
ATOM      6  C   UNL     1      47.114   6.156  12.289  0.00  0.00    +0.000 A 
ATOM      7  C   UNL     1      47.537   5.680  13.532  0.00  0.00    +0.000 A 
BRANCH   5   8
ATOM      8  C   UNL     1      45.536   6.106  10.312  0.00  0.00    +0.000 C 
BRANCH   8   9
ATOM      9  N   UNL     1      44.632   5.145   9.697  0.00  0.00    +0.000 N 
ATOM     10  H   UNL     1      43.882   5.581   9.170  0.00  0.00    +0.000 HD
BRANCH   9  11
ATOM     11  C   UNL     1      45.294   4.195   8.894  0.00  0.00    +0.000 A 
ATOM     12  N   UNL     1      46.150   4.636   7.940  0.00  0.00    +0.000 NA
ATOM     13  C   UNL     1      46.820   3.729   7.199  0.00  0.00    +0.000 A 
ATOM     14  C   UNL     1      46.694   2.363   7.359  0.00  0.00    +0.000 A 
ATOM     15  C   UNL     1      45.828   1.899   8.341  0.00  0.00    +0.000 A 
ATOM     16  C   UNL     1      45.117   2.817   9.117  0.00  0.00    +0.000 A 
ATOM     17 CL   UNL     1      44.035   2.214  10.320  0.00  0.00    +0.000 Cl
ENDBRANCH   9  11
ENDBRANCH   8   9
ENDBRANCH   5   8
ENDBRANCH   1   2
BRANCH   1  20
ATOM     18  O   UNL     1      46.882   4.636  18.284  0.00  0.00    +0.000 OA
ATOM     19  C   UNL     1      47.697   5.317  17.669  0.00  0.00    +0.000 C 
ATOM     20  N   UNL     1      47.894   5.189  16.317  0.00  0.00    +0.000 N 
ATOM     21  H   UNL     1      48.703   5.631  15.896  0.00  0.00    +0.000 HD
BRANCH  19  22
ATOM     22  C   UNL     1      48.475   6.366  18.338  0.00  0.00    +0.000 A 
ATOM     23  C   UNL     1      47.823   7.338  19.085  0.00  0.00    +0.000 A 
ATOM     24  S   UNL     1      48.874   8.497  19.764  0.00  0.00    +0.000 S 
ATOM     25  C   UNL     1      50.243   7.710  19.131  0.00  0.00    +0.000 A 
ATOM     26  N   UNL     1      51.495   8.180  19.375  0.00  0.00    +0.000 NA
ATOM     27  C   UNL     1      52.443   7.457  18.877  0.00  0.00    +0.000 A 
ATOM     28  N   UNL     1      52.251   6.314  18.146  0.00  0.00    +0.000 N 
ATOM     29  C   UNL     1      51.003   5.848  17.806  0.00  0.00    +0.000 A 
ATOM     30  O   UNL     1      50.869   4.905  17.034  0.00  0.00    +0.000 OA
ATOM     31  C   UNL     1      49.902   6.595  18.386  0.00  0.00    +0.000 A 
ATOM     32  H   UNL     1      53.034   5.811  17.756  0.00  0.00    +0.000 HD
ENDBRANCH  19  22
ENDBRANCH   1  20
TORSDOF 6
ENDMDL
MODEL 7
REMARK VINA RESULT:    -7.329      2.463      3.354
REMARK INTER + INTRA:         -10.807
REMARK INTER:                  -9.836
REMARK INTRA:                  -0.971
REMARK UNBOUND:                -0.907
REMARK  Name = 
REMARK  6 active torsions:
REMARK  status: ('A' for Active; 'I' for Inactive)
REMARK    1  A    between atoms: C_2  and  C_20
REMARK    2  A    between atoms: N_3  and  C_4
REMARK    3  A    between atoms: C_4  and  C_5
REMARK    4  A    between atoms: C_8  and  C_9
REMARK    5  A    between atoms: C_9  and  N_10
REMARK    6  A    between atoms: N_10  and  C_11
REMARK                            x       y       z     vdW  Elec       q    Type
REMARK                         _______ _______ _______ _____ _____    ______ ____
ROOT
ATOM      1  C   UNL     1      47.325   4.286  15.706  0.00  0.00    +0.000 C 
ENDROOT
BRANCH   1   2
ATOM      2  C   UNL     1      46.876   4.719  14.334  0.00  0.00    +0.000 A 
ATOM      3  C   UNL     1      47.461   5.835  13.724  0.00  0.00    +0.000 A 
ATOM      4  C   UNL     1      47.039   6.254  12.460  0.00  0.00    +0.000 A 
ATOM      5  C   UNL     1      46.007   5.580  11.794  0.00  0.00    +0.000 A 
ATOM      6  C   UNL     1      45.422   4.463  12.405  0.00  0.00    +0.000 A 
ATOM      7  C   UNL     1      45.845   4.043  13.668  0.00  0.00    +0.000 A 
BRANCH   5   8
ATOM      8  C   UNL     1      45.508   6.076  10.458  0.00  0.00    +0.000 C 
BRANCH   8   9
ATOM      9  N   UNL     1      44.600   5.111   9.855  0.00  0.00    +0.000 N 
ATOM     10  H   UNL     1      43.822   5.543   9.366  0.00  0.00    +0.000 HD
BRANCH   9  11
ATOM     11  C   UNL     1      45.250   4.193   9.007  0.00  0.00    +0.000 A 
ATOM     12  N   UNL     1      46.105   4.669   8.069  0.00  0.00    +0.000 NA
ATOM     13  C   UNL     1      46.764   3.791   7.285  0.00  0.00    +0.000 A 
ATOM     14  C   UNL     1      46.627   2.421   7.384  0.00  0.00    +0.000 A 
ATOM     15  C   UNL     1      45.761   1.920   8.348  0.00  0.00    +0.000 A 
ATOM     16  C   UNL     1      45.062   2.808   9.168  0.00  0.00    +0.000 A 
ATOM     17 CL   UNL     1      43.981   2.160  10.348  0.00  0.00    +0.000 Cl
ENDBRANCH   9  11
ENDBRANCH   8   9
ENDBRANCH   5   8
ENDBRANCH   1   2
BRANCH   1  20
ATOM     18  O   UNL     1      49.913   4.737  16.718  0.00  0.00    +0.000 OA
ATOM     19  C   UNL     1      49.047   5.587  16.900  0.00  0.00    +0.000 C 
ATOM     20  N   UNL     1      47.748   5.416  16.493  0.00  0.00    +0.000 N 
ATOM     21  H   UNL     1      47.125   6.214  16.492  0.00  0.00    +0.000 HD
BRANCH  19  22
ATOM     22  C   UNL     1      49.337   6.828  17.628  0.00  0.00    +0.000 A 
ATOM     23  C   UNL     1      50.290   7.709  17.136  0.00  0.00    +0.000 A 
ATOM     24  S   UNL     1      50.525   9.082  18.120  0.00  0.00    +0.000 S 
ATOM     25  C   UNL     1      49.322   8.575  19.211  0.00  0.00    +0.000 A 
ATOM     26  N   UNL     1      48.994   9.332  20.292  0.00  0.00    +0.000 NA
ATOM     27  C   UNL     1      48.030   8.853  21.007  0.00  0.00    +0.000 A 
ATOM     28  N   UNL     1      47.373   7.680  20.745  0.00  0.00    +0.000 N 
ATOM     29  C   UNL     1      47.725   6.843  19.712  0.00  0.00    +0.000 A 
ATOM     30  O   UNL     1      47.212   5.736  19.592  0.00  0.00    +0.000 OA
ATOM     31  C   UNL     1      48.769   7.360  18.846  0.00  0.00    +0.000 A 
ATOM     32  H   UNL     1      46.649   7.343  21.361  0.00  0.00    +0.000 HD
ENDBRANCH  19  22
ENDBRANCH   1  20
TORSDOF 6
ENDMDL
MODEL 8
REMARK VINA RESULT:    -6.957      4.256      6.016
REMARK INTER + INTRA:         -10.305
REMARK INTER:                  -9.583
REMARK INTRA:                  -0.722
REMARK UNBOUND:                -0.907
REMARK  Name = 
REMARK  6 active torsions:
REMARK  status: ('A' for Active; 'I' for Inactive)
REMARK    1  A    between atoms: C_2  and  C_20
REMARK    2  A    between atoms: N_3  and  C_4
REMARK    3  A    between atoms: C_4  and  C_5
REMARK    4  A    between atoms: C_8  and  C_9
REMARK    5  A    between atoms: C_9  and  N_10
REMARK    6  A    between atoms: N_10  and  C_11
REMARK                            x       y       z     vdW  Elec       q    Type
REMARK                         _______ _______ _______ _____ _____    ______ ____
ROOT
ATOM      1  C   UNL     1      46.313   4.451  14.080  0.00  0.00    +0.000 C 
ENDROOT
BRANCH   1   2
ATOM      2  C   UNL     1      45.865   5.679  13.329  0.00  0.00    +0.000 A 
ATOM      3  C   UNL     1      46.659   6.832  13.334  0.00  0.00    +0.000 A 
ATOM      4  C   UNL     1      46.244   7.980  12.656  0.00  0.00    +0.000 A 
ATOM      5  C   UNL     1      45.016   8.004  11.982  0.00  0.00    +0.000 A 
ATOM      6  C   UNL     1      44.222   6.850  11.977  0.00  0.00    +0.000 A 
ATOM      7  C   UNL     1      44.638   5.701  12.653  0.00  0.00    +0.000 A 
BRANCH   5   8
ATOM      8  C   UNL     1      44.539   9.268  11.307  0.00  0.00    +0.000 C 
BRANCH   8   9
ATOM      9  N   UNL     1      43.224   9.074  10.715  0.00  0.00    +0.000 N 
ATOM     10  H   UNL     1      42.528   8.753  11.382  0.00  0.00    +0.000 HD
BRANCH   9  11
ATOM     11  C   UNL     1      42.747  10.210  10.033  0.00  0.00    +0.000 A 
ATOM     12  N   UNL     1      43.542  10.785   9.097  0.00  0.00    +0.000 NA
ATOM     13  C   UNL     1      43.073  11.846   8.409  0.00  0.00    +0.000 A 
ATOM     14  C   UNL     1      41.815  12.385   8.594  0.00  0.00    +0.000 A 
ATOM     15  C   UNL     1      40.987  11.798   9.543  0.00  0.00    +0.000 A 
ATOM     16  C   UNL     1      41.452  10.703  10.274  0.00  0.00    +0.000 A 
ATOM     17 CL   UNL     1      40.409  10.002  11.458  0.00  0.00    +0.000 Cl
ENDBRANCH   9  11
ENDBRANCH   8   9
ENDBRANCH   5   8
ENDBRANCH   1   2
BRANCH   1  20
ATOM     18  O   UNL     1      46.573   3.415  16.685  0.00  0.00    +0.000 OA
ATOM     19  C   UNL     1      47.436   4.175  16.258  0.00  0.00    +0.000 C 
ATOM     20  N   UNL     1      47.351   4.771  15.026  0.00  0.00    +0.000 N 
ATOM     21  H   UNL     1      48.170   5.230  14.645  0.00  0.00    +0.000 HD
BRANCH  19  22
ATOM     22  C   UNL     1      48.597   4.549  17.076  0.00  0.00    +0.000 A 
ATOM     23  C   UNL     1      48.637   5.794  17.688  0.00  0.00    +0.000 A 
ATOM     24  S   UNL     1      50.069   6.076  18.570  0.00  0.00    +0.000 S 
ATOM     25  C   UNL     1      50.663   4.522  18.212  0.00  0.00    +0.000 A 
ATOM     26  N   UNL     1      51.860   4.101  18.702  0.00  0.00    +0.000 NA
ATOM     27  C   UNL     1      52.163   2.883  18.393  0.00  0.00    +0.000 A 
ATOM     28  N   UNL     1      51.384   2.054  17.630  0.00  0.00    +0.000 N 
ATOM     29  C   UNL     1      50.208   2.463  17.047  0.00  0.00    +0.000 A 
ATOM     30  O   UNL     1      49.609   1.743  16.256  0.00  0.00    +0.000 OA
ATOM     31  C   UNL     1      49.794   3.809  17.405  0.00  0.00    +0.000 A 
ATOM     32  H   UNL     1      51.693   1.122  17.397  0.00  0.00    +0.000 HD
ENDBRANCH  19  22
ENDBRANCH   1  20
TORSDOF 6
ENDMDL
MODEL 9
REMARK VINA RESULT:    -6.891      4.951      7.685
REMARK INTER + INTRA:         -10.215
REMARK INTER:                  -9.343
REMARK INTRA:                  -0.872
REMARK UNBOUND:                -0.907
REMARK  Name = 
REMARK  6 active torsions:
REMARK  status: ('A' for Active; 'I' for Inactive)
REMARK    1  A    between atoms: C_2  and  C_20
REMARK    2  A    between atoms: N_3  and  C_4
REMARK    3  A    between atoms: C_4  and  C_5
REMARK    4  A    between atoms: C_8  and  C_9
REMARK    5  A    between atoms: C_9  and  N_10
REMARK    6  A    between atoms: N_10  and  C_11
REMARK                            x       y       z     vdW  Elec       q    Type
REMARK                         _______ _______ _______ _____ _____    ______ ____
ROOT
ATOM      1  C   UNL     1      46.549   8.429  12.577  0.00  0.00    +0.000 C 
ENDROOT
BRANCH   1   2
ATOM      2  C   UNL     1      47.997   8.479  12.164  0.00  0.00    +0.000 A 
ATOM      3  C   UNL     1      48.569   9.690  11.755  0.00  0.00    +0.000 A 
ATOM      4  C   UNL     1      49.905   9.742  11.353  0.00  0.00    +0.000 A 
ATOM      5  C   UNL     1      50.688   8.580  11.331  0.00  0.00    +0.000 A 
ATOM      6  C   UNL     1      50.115   7.368  11.740  0.00  0.00    +0.000 A 
ATOM      7  C   UNL     1      48.779   7.316  12.143  0.00  0.00    +0.000 A 
BRANCH   5   8
ATOM      8  C   UNL     1      52.112   8.628  10.832  0.00  0.00    +0.000 C 
BRANCH   8   9
ATOM      9  N   UNL     1      52.742   7.320  10.941  0.00  0.00    +0.000 N 
ATOM     10  H   UNL     1      52.243   6.685  11.557  0.00  0.00    +0.000 HD
BRANCH   9  11
ATOM     11  C   UNL     1      52.966   6.705   9.695  0.00  0.00    +0.000 A 
ATOM     12  N   UNL     1      52.324   7.194   8.606  0.00  0.00    +0.000 NA
ATOM     13  C   UNL     1      52.570   6.637   7.401  0.00  0.00    +0.000 A 
ATOM     14  C   UNL     1      53.452   5.593   7.204  0.00  0.00    +0.000 A 
ATOM     15  C   UNL     1      54.125   5.090   8.311  0.00  0.00    +0.000 A 
ATOM     16  C   UNL     1      53.883   5.644   9.570  0.00  0.00    +0.000 A 
ATOM     17 CL   UNL     1      54.720   4.991  10.931  0.00  0.00    +0.000 Cl
ENDBRANCH   9  11
ENDBRANCH   8   9
ENDBRANCH   5   8
ENDBRANCH   1   2
BRANCH   1  20
ATOM     18  O   UNL     1      44.307   7.730  11.023  0.00  0.00    +0.000 OA
ATOM     19  C   UNL     1      44.941   6.843  11.584  0.00  0.00    +0.000 C 
ATOM     20  N   UNL     1      46.006   7.105  12.408  0.00  0.00    +0.000 N 
ATOM     21  H   UNL     1      46.609   6.341  12.689  0.00  0.00    +0.000 HD
BRANCH  19  22
ATOM     22  C   UNL     1      44.557   5.431  11.457  0.00  0.00    +0.000 A 
ATOM     23  C   UNL     1      43.797   4.832  12.452  0.00  0.00    +0.000 A 
ATOM     24  S   UNL     1      43.469   3.184  12.161  0.00  0.00    +0.000 S 
ATOM     25  C   UNL     1      44.283   3.227  10.668  0.00  0.00    +0.000 A 
ATOM     26  N   UNL     1      44.349   2.124   9.875  0.00  0.00    +0.000 NA
ATOM     27  C   UNL     1      44.953   2.312   8.748  0.00  0.00    +0.000 A 
ATOM     28  N   UNL     1      45.507   3.500   8.349  0.00  0.00    +0.000 N 
ATOM     29  C   UNL     1      45.536   4.616   9.150  0.00  0.00    +0.000 A 
ATOM     30  O   UNL     1      46.163   5.616   8.820  0.00  0.00    +0.000 OA
ATOM     31  C   UNL     1      44.824   4.474  10.408  0.00  0.00    +0.000 A 
ATOM     32  H   UNL     1      45.994   3.573   7.468  0.00  0.00    +0.000 HD
ENDBRANCH  19  22
ENDBRANCH   1  20
TORSDOF 6
ENDMDL
