MODEL 1
REMARK VINA RESULT:    -8.539      0.000      0.000
REMARK INTER + INTRA:         -11.892
REMARK INTER:                 -11.035
REMARK INTRA:                  -0.856
REMARK UNBOUND:                -0.856
REMARK  Name = 
REMARK  5 active torsions:
REMARK  status: ('A' for Active; 'I' for Inactive)
REMARK    1  A    between atoms: C_6  and  C_7
REMARK    2  A    between atoms: C_7  and  C_8
REMARK    3  A    between atoms: C_11  and  C_12
REMARK    4  A    between atoms: C_12  and  N_13
REMARK    5  A    between atoms: C_14  and  C_16
REMARK                            x       y       z     vdW  Elec       q    Type
REMARK                         _______ _______ _______ _____ _____    ______ ____
ROOT
ATOM      1  C   UNL     1      44.760   5.163  10.667  0.00  0.00    +0.000 A 
ATOM      2  C   UNL     1      44.231   5.459  11.920  0.00  0.00    +0.000 A 
ATOM      3  C   UNL     1      44.922   6.338  12.752  0.00  0.00    +0.000 A 
ATOM      4  C   UNL     1      46.126   6.901  12.323  0.00  0.00    +0.000 A 
ATOM      5  C   UNL     1      46.583   6.539  11.062  0.00  0.00    +0.000 A 
ATOM      6  N   UNL     1      45.937   5.684  10.234  0.00  0.00    +0.000 NA
ENDROOT
BRANCH   1   7
ATOM      7  C   UNL     1      43.974   4.317   9.687  0.00  0.00    +0.000 C 
BRANCH   7  13
ATOM      8  N   UNL     1      46.952   3.853   5.967  0.00  0.00    +0.000 N 
ATOM      9  C   UNL     1      46.317   3.240   7.046  0.00  0.00    +0.000 A 
ATOM     10  C   UNL     1      46.588   1.916   7.355  0.00  0.00    +0.000 A 
ATOM     11  C   UNL     1      45.938   1.332   8.434  0.00  0.00    +0.000 A 
ATOM     12  C   UNL     1      45.055   2.098   9.184  0.00  0.00    +0.000 A 
ATOM     13  C   UNL     1      44.866   3.436   8.841  0.00  0.00    +0.000 A 
ATOM     14  N   UNL     1      45.483   4.007   7.771  0.00  0.00    +0.000 NA
ATOM     15  H   UNL     1      46.834   3.314   5.116  0.00  0.00    +0.000 HD
ATOM     16  H   UNL     1      46.554   4.784   5.885  0.00  0.00    +0.000 HD
ENDBRANCH   7  13
ENDBRANCH   1   7
BRANCH   4  17
ATOM     17  C   UNL     1      46.860   7.909  13.155  0.00  0.00    +0.000 C 
BRANCH  17  18
ATOM     18  N   UNL     1      47.334   7.322  14.388  0.00  0.00    +0.000 N 
ATOM     19  C   UNL     1      48.605   6.815  14.486  0.00  0.00    +0.000 C 
ATOM     20  O   UNL     1      49.406   6.894  13.557  0.00  0.00    +0.000 OA
ATOM     21  H   UNL     1      46.637   7.053  15.074  0.00  0.00    +0.000 HD
BRANCH  19  22
ATOM     22  C   UNL     1      48.986   6.217  15.774  0.00  0.00    +0.000 A 
ATOM     23  C   UNL     1      50.052   6.752  16.486  0.00  0.00    +0.000 A 
ATOM     24  S   UNL     1      50.344   5.972  17.974  0.00  0.00    +0.000 S 
ATOM     25  C   UNL     1      49.086   4.860  17.701  0.00  0.00    +0.000 A 
ATOM     26  N   UNL     1      48.817   3.876  18.600  0.00  0.00    +0.000 NA
ATOM     27  C   UNL     1      47.855   3.086  18.253  0.00  0.00    +0.000 A 
ATOM     28  N   UNL     1      47.137   3.194  17.089  0.00  0.00    +0.000 N 
ATOM     29  C   UNL     1      47.357   4.187  16.164  0.00  0.00    +0.000 A 
ATOM     30  O   UNL     1      46.671   4.281  15.151  0.00  0.00    +0.000 OA
ATOM     31  C   UNL     1      48.437   5.094  16.500  0.00  0.00    +0.000 A 
ATOM     32  H   UNL     1      46.390   2.546  16.882  0.00  0.00    +0.000 HD
ENDBRANCH  19  22
ENDBRANCH  17  18
ENDBRANCH   4  17
TORSDOF 5
ENDMDL
MODEL 2
REMARK VINA RESULT:    -7.914      2.315      3.908
REMARK INTER + INTRA:         -11.083
REMARK INTER:                 -10.121
REMARK INTRA:                  -0.962
REMARK UNBOUND:                -0.856
REMARK  Name = 
REMARK  5 active torsions:
REMARK  status: ('A' for Active; 'I' for Inactive)
REMARK    1  A    between atoms: C_6  and  C_7
REMARK    2  A    between atoms: C_7  and  C_8
REMARK    3  A    between atoms: C_11  and  C_12
REMARK    4  A    between atoms: C_12  and  N_13
REMARK    5  A    between atoms: C_14  and  C_16
REMARK                            x       y       z     vdW  Elec       q    Type
REMARK                         _______ _______ _______ _____ _____    ______ ____
ROOT
ATOM      1  C   UNL     1      44.977   4.228  10.264  0.00  0.00    +0.000 A 
ATOM      2  C   UNL     1      45.491   5.468  10.635  0.00  0.00    +0.000 A 
ATOM      3  C   UNL     1      45.922   5.653  11.947  0.00  0.00    +0.000 A 
ATOM      4  C   UNL     1      45.833   4.603  12.864  0.00  0.00    +0.000 A 
ATOM      5  C   UNL     1      45.297   3.405  12.408  0.00  0.00    +0.000 A 
ATOM      6  N   UNL     1      44.864   3.198  11.142  0.00  0.00    +0.000 NA
ENDROOT
BRANCH   1   7
ATOM      7  C   UNL     1      44.620   3.951   8.820  0.00  0.00    +0.000 C 
BRANCH   7  13
ATOM      8  N   UNL     1      46.706  -0.237   7.804  0.00  0.00    +0.000 N 
ATOM      9  C   UNL     1      46.684   1.143   7.605  0.00  0.00    +0.000 A 
ATOM     10  C   UNL     1      47.562   1.732   6.707  0.00  0.00    +0.000 A 
ATOM     11  C   UNL     1      47.518   3.109   6.533  0.00  0.00    +0.000 A 
ATOM     12  C   UNL     1      46.584   3.849   7.244  0.00  0.00    +0.000 A 
ATOM     13  C   UNL     1      45.703   3.183   8.095  0.00  0.00    +0.000 A 
ATOM     14  N   UNL     1      45.756   1.837   8.287  0.00  0.00    +0.000 NA
ATOM     15  H   UNL     1      47.638  -0.561   8.037  0.00  0.00    +0.000 HD
ATOM     16  H   UNL     1      46.039  -0.436   8.545  0.00  0.00    +0.000 HD
ENDBRANCH   7  13
ENDBRANCH   1   7
BRANCH   4  17
ATOM     17  C   UNL     1      46.357   4.737  14.262  0.00  0.00    +0.000 C 
BRANCH  17  18
ATOM     18  N   UNL     1      47.211   5.896  14.391  0.00  0.00    +0.000 N 
ATOM     19  C   UNL     1      48.218   5.932  15.321  0.00  0.00    +0.000 C 
ATOM     20  O   UNL     1      48.473   4.965  16.035  0.00  0.00    +0.000 OA
ATOM     21  H   UNL     1      46.884   6.763  13.977  0.00  0.00    +0.000 HD
BRANCH  19  22
ATOM     22  C   UNL     1      49.017   7.164  15.391  0.00  0.00    +0.000 A 
ATOM     23  C   UNL     1      49.200   7.791  16.616  0.00  0.00    +0.000 A 
ATOM     24  S   UNL     1      50.179   9.185  16.535  0.00  0.00    +0.000 S 
ATOM     25  C   UNL     1      50.355   9.030  14.850  0.00  0.00    +0.000 A 
ATOM     26  N   UNL     1      51.069   9.941  14.137  0.00  0.00    +0.000 NA
ATOM     27  C   UNL     1      51.097   9.717  12.864  0.00  0.00    +0.000 A 
ATOM     28  N   UNL     1      50.477   8.663  12.243  0.00  0.00    +0.000 N 
ATOM     29  C   UNL     1      49.767   7.704  12.926  0.00  0.00    +0.000 A 
ATOM     30  O   UNL     1      49.259   6.750  12.346  0.00  0.00    +0.000 OA
ATOM     31  C   UNL     1      49.695   7.917  14.359  0.00  0.00    +0.000 A 
ATOM     32  H   UNL     1      50.547   8.541  11.242  0.00  0.00    +0.000 HD
ENDBRANCH  19  22
ENDBRANCH  17  18
ENDBRANCH   4  17
TORSDOF 5
ENDMDL
MODEL 3
REMARK VINA RESULT:    -7.577      1.923      2.653
REMARK INTER + INTRA:         -10.648
REMARK INTER:                 -10.392
REMARK INTRA:                  -0.256
REMARK UNBOUND:                -0.856
REMARK  Name = 
REMARK  5 active torsions:
REMARK  status: ('A' for Active; 'I' for Inactive)
REMARK    1  A    between atoms: C_6  and  C_7
REMARK    2  A    between atoms: C_7  and  C_8
REMARK    3  A    between atoms: C_11  and  C_12
REMARK    4  A    between atoms: C_12  and  N_13
REMARK    5  A    between atoms: C_14  and  C_16
REMARK                            x       y       z     vdW  Elec       q    Type
REMARK                         _______ _______ _______ _____ _____    ______ ____
ROOT
ATOM      1  C   UNL     1      45.072   4.475  10.171  0.00  0.00    +0.000 A 
ATOM      2  C   UNL     1      45.897   5.411  10.789  0.00  0.00    +0.000 A 
ATOM      3  C   UNL     1      46.027   5.383  12.176  0.00  0.00    +0.000 A 
ATOM      4  C   UNL     1      45.333   4.427  12.921  0.00  0.00    +0.000 A 
ATOM      5  C   UNL     1      44.525   3.540  12.221  0.00  0.00    +0.000 A 
ATOM      6  N   UNL     1      44.374   3.547  10.876  0.00  0.00    +0.000 NA
ENDROOT
BRANCH   1   7
ATOM      7  C   UNL     1      45.008   4.393   8.661  0.00  0.00    +0.000 C 
BRANCH   7  13
ATOM      8  N   UNL     1      48.559   2.736   5.911  0.00  0.00    +0.000 N 
ATOM      9  C   UNL     1      47.519   2.438   6.791  0.00  0.00    +0.000 A 
ATOM     10  C   UNL     1      47.299   1.131   7.195  0.00  0.00    +0.000 A 
ATOM     11  C   UNL     1      46.253   0.866   8.070  0.00  0.00    +0.000 A 
ATOM     12  C   UNL     1      45.475   1.921   8.529  0.00  0.00    +0.000 A 
ATOM     13  C   UNL     1      45.784   3.215   8.114  0.00  0.00    +0.000 A 
ATOM     14  N   UNL     1      46.793   3.478   7.240  0.00  0.00    +0.000 NA
ATOM     15  H   UNL     1      48.508   2.165   5.074  0.00  0.00    +0.000 HD
ATOM     16  H   UNL     1      48.489   3.727   5.699  0.00  0.00    +0.000 HD
ENDBRANCH   7  13
ENDBRANCH   1   7
BRANCH   4  17
ATOM     17  C   UNL     1      45.505   4.314  14.406  0.00  0.00    +0.000 C 
BRANCH  17  18
ATOM     18  N   UNL     1      46.803   4.799  14.819  0.00  0.00    +0.000 N 
ATOM     19  C   UNL     1      47.254   4.606  16.100  0.00  0.00    +0.000 C 
ATOM     20  O   UNL     1      46.606   3.964  16.923  0.00  0.00    +0.000 OA
ATOM     21  H   UNL     1      47.243   5.503  14.237  0.00  0.00    +0.000 HD
BRANCH  19  22
ATOM     22  C   UNL     1      48.577   5.157  16.430  0.00  0.00    +0.000 A 
ATOM     23  C   UNL     1      48.856   6.485  16.136  0.00  0.00    +0.000 A 
ATOM     24  S   UNL     1      50.416   6.980  16.613  0.00  0.00    +0.000 S 
ATOM     25  C   UNL     1      50.795   5.425  17.186  0.00  0.00    +0.000 A 
ATOM     26  N   UNL     1      52.021   5.153  17.707  0.00  0.00    +0.000 NA
ATOM     27  C   UNL     1      52.182   3.925  18.077  0.00  0.00    +0.000 A 
ATOM     28  N   UNL     1      51.225   2.947  17.975  0.00  0.00    +0.000 N 
ATOM     29  C   UNL     1      49.965   3.182  17.479  0.00  0.00    +0.000 A 
ATOM     30  O   UNL     1      49.118   2.295  17.438  0.00  0.00    +0.000 OA
ATOM     31  C   UNL     1      49.737   4.544  17.037  0.00  0.00    +0.000 A 
ATOM     32  H   UNL     1      51.414   2.006  18.292  0.00  0.00    +0.000 HD
ENDBRANCH  19  22
ENDBRANCH  17  18
ENDBRANCH   4  17
TORSDOF 5
ENDMDL
MODEL 4
REMARK VINA RESULT:    -7.537      1.854      2.162
REMARK INTER + INTRA:         -10.596
REMARK INTER:                  -9.706
REMARK INTRA:                  -0.890
REMARK UNBOUND:                -0.856
REMARK  Name = 
REMARK  5 active torsions:
REMARK  status: ('A' for Active; 'I' for Inactive)
REMARK    1  A    between atoms: C_6  and  C_7
REMARK    2  A    between atoms: C_7  and  C_8
REMARK    3  A    between atoms: C_11  and  C_12
REMARK    4  A    between atoms: C_12  and  N_13
REMARK    5  A    between atoms: C_14  and  C_16
REMARK                            x       y       z     vdW  Elec       q    Type
REMARK                         _______ _______ _______ _____ _____    ______ ____
ROOT
ATOM      1  C   UNL     1      45.125   5.619  11.543  0.00  0.00    +0.000 A 
ATOM      2  C   UNL     1      45.400   6.982  11.482  0.00  0.00    +0.000 A 
ATOM      3  C   UNL     1      46.433   7.497  12.263  0.00  0.00    +0.000 A 
ATOM      4  C   UNL     1      47.170   6.646  13.091  0.00  0.00    +0.000 A 
ATOM      5  C   UNL     1      46.818   5.303  13.096  0.00  0.00    +0.000 A 
ATOM      6  N   UNL     1      45.816   4.775  12.353  0.00  0.00    +0.000 NA
ENDROOT
BRANCH   1   7
ATOM      7  C   UNL     1      44.100   5.004  10.615  0.00  0.00    +0.000 C 
BRANCH   7  13
ATOM      8  N   UNL     1      47.004   4.169   6.902  0.00  0.00    +0.000 N 
ATOM      9  C   UNL     1      46.139   3.639   7.859  0.00  0.00    +0.000 A 
ATOM     10  C   UNL     1      45.954   2.268   7.948  0.00  0.00    +0.000 A 
ATOM     11  C   UNL     1      45.084   1.770   8.909  0.00  0.00    +0.000 A 
ATOM     12  C   UNL     1      44.445   2.658   9.765  0.00  0.00    +0.000 A 
ATOM     13  C   UNL     1      44.715   4.020   9.645  0.00  0.00    +0.000 A 
ATOM     14  N   UNL     1      45.549   4.515   8.691  0.00  0.00    +0.000 NA
ATOM     15  H   UNL     1      46.775   3.834   5.973  0.00  0.00    +0.000 HD
ATOM     16  H   UNL     1      46.930   5.180   6.970  0.00  0.00    +0.000 HD
ENDBRANCH   7  13
ENDBRANCH   1   7
BRANCH   4  17
ATOM     17  C   UNL     1      48.338   7.146  13.887  0.00  0.00    +0.000 C 
BRANCH  17  18
ATOM     18  N   UNL     1      48.118   6.967  15.304  0.00  0.00    +0.000 N 
ATOM     19  C   UNL     1      48.874   7.644  16.227  0.00  0.00    +0.000 C 
ATOM     20  O   UNL     1      49.719   8.470  15.890  0.00  0.00    +0.000 OA
ATOM     21  H   UNL     1      47.594   6.149  15.594  0.00  0.00    +0.000 HD
BRANCH  19  22
ATOM     22  C   UNL     1      48.591   7.377  17.645  0.00  0.00    +0.000 A 
ATOM     23  C   UNL     1      48.112   8.402  18.451  0.00  0.00    +0.000 A 
ATOM     24  S   UNL     1      47.798   7.923  20.056  0.00  0.00    +0.000 S 
ATOM     25  C   UNL     1      48.336   6.340  19.748  0.00  0.00    +0.000 A 
ATOM     26  N   UNL     1      48.358   5.405  20.736  0.00  0.00    +0.000 NA
ATOM     27  C   UNL     1      48.816   4.254  20.369  0.00  0.00    +0.000 A 
ATOM     28  N   UNL     1      49.251   3.953  19.103  0.00  0.00    +0.000 N 
ATOM     29  C   UNL     1      49.223   4.857  18.068  0.00  0.00    +0.000 A 
ATOM     30  O   UNL     1      49.581   4.546  16.937  0.00  0.00    +0.000 OA
ATOM     31  C   UNL     1      48.729   6.172  18.431  0.00  0.00    +0.000 A 
ATOM     32  H   UNL     1      49.590   3.028  18.882  0.00  0.00    +0.000 HD
ENDBRANCH  19  22
ENDBRANCH  17  18
ENDBRANCH   4  17
TORSDOF 5
ENDMDL
MODEL 5
REMARK VINA RESULT:    -7.530      2.079      2.836
REMARK INTER + INTRA:         -10.587
REMARK INTER:                 -10.222
REMARK INTRA:                  -0.364
REMARK UNBOUND:                -0.856
REMARK  Name = 
REMARK  5 active torsions:
REMARK  status: ('A' for Active; 'I' for Inactive)
REMARK    1  A    between atoms: C_6  and  C_7
REMARK    2  A    between atoms: C_7  and  C_8
REMARK    3  A    between atoms: C_11  and  C_12
REMARK    4  A    between atoms: C_12  and  N_13
REMARK    5  A    between atoms: C_14  and  C_16
REMARK                            x       y       z     vdW  Elec       q    Type
REMARK                         _______ _______ _______ _____ _____    ______ ____
ROOT
ATOM      1  C   UNL     1      45.045   4.295  10.916  0.00  0.00    +0.000 A 
ATOM      2  C   UNL     1      45.318   5.600  10.513  0.00  0.00    +0.000 A 
ATOM      3  C   UNL     1      46.021   6.438  11.376  0.00  0.00    +0.000 A 
ATOM      4  C   UNL     1      46.435   5.964  12.623  0.00  0.00    +0.000 A 
ATOM      5  C   UNL     1      46.108   4.653  12.944  0.00  0.00    +0.000 A 
ATOM      6  N   UNL     1      45.422   3.817  12.130  0.00  0.00    +0.000 NA
ENDROOT
BRANCH   1   7
ATOM      7  C   UNL     1      44.400   3.319   9.956  0.00  0.00    +0.000 C 
BRANCH   7  13
ATOM      8  N   UNL     1      46.829  -0.144   7.713  0.00  0.00    +0.000 N 
ATOM      9  C   UNL     1      46.487   1.207   7.763  0.00  0.00    +0.000 A 
ATOM     10  C   UNL     1      46.921   2.074   6.772  0.00  0.00    +0.000 A 
ATOM     11  C   UNL     1      46.567   3.414   6.852  0.00  0.00    +0.000 A 
ATOM     12  C   UNL     1      45.771   3.840   7.907  0.00  0.00    +0.000 A 
ATOM     13  C   UNL     1      45.335   2.902   8.842  0.00  0.00    +0.000 A 
ATOM     14  N   UNL     1      45.697   1.592   8.782  0.00  0.00    +0.000 NA
ATOM     15  H   UNL     1      47.831  -0.267   7.622  0.00  0.00    +0.000 HD
ATOM     16  H   UNL     1      46.470  -0.568   8.564  0.00  0.00    +0.000 HD
ENDBRANCH   7  13
ENDBRANCH   1   7
BRANCH   4  17
ATOM     17  C   UNL     1      47.259   6.809  13.548  0.00  0.00    +0.000 C 
BRANCH  17  18
ATOM     18  N   UNL     1      47.771   6.028  14.651  0.00  0.00    +0.000 N 
ATOM     19  C   UNL     1      48.544   6.606  15.626  0.00  0.00    +0.000 C 
ATOM     20  O   UNL     1      48.779   7.812  15.635  0.00  0.00    +0.000 OA
ATOM     21  H   UNL     1      47.775   5.020  14.544  0.00  0.00    +0.000 HD
BRANCH  19  22
ATOM     22  C   UNL     1      49.037   5.723  16.694  0.00  0.00    +0.000 A 
ATOM     23  C   UNL     1      48.131   4.978  17.437  0.00  0.00    +0.000 A 
ATOM     24  S   UNL     1      48.861   3.979  18.609  0.00  0.00    +0.000 S 
ATOM     25  C   UNL     1      50.413   4.542  18.202  0.00  0.00    +0.000 A 
ATOM     26  N   UNL     1      51.513   4.098  18.867  0.00  0.00    +0.000 NA
ATOM     27  C   UNL     1      52.624   4.630  18.473  0.00  0.00    +0.000 A 
ATOM     28  N   UNL     1      52.732   5.562  17.472  0.00  0.00    +0.000 N 
ATOM     29  C   UNL     1      51.651   6.020  16.756  0.00  0.00    +0.000 A 
ATOM     30  O   UNL     1      51.786   6.824  15.840  0.00  0.00    +0.000 OA
ATOM     31  C   UNL     1      50.378   5.463  17.168  0.00  0.00    +0.000 A 
ATOM     32  H   UNL     1      53.635   5.931  17.208  0.00  0.00    +0.000 HD
ENDBRANCH  19  22
ENDBRANCH  17  18
ENDBRANCH   4  17
TORSDOF 5
ENDMDL
MODEL 6
REMARK VINA RESULT:    -7.475      2.752      3.634
REMARK INTER + INTRA:         -10.517
REMARK INTER:                  -9.673
REMARK INTRA:                  -0.844
REMARK UNBOUND:                -0.856
REMARK  Name = 
REMARK  5 active torsions:
REMARK  status: ('A' for Active; 'I' for Inactive)
REMARK    1  A    between atoms: C_6  and  C_7
REMARK    2  A    between atoms: C_7  and  C_8
REMARK    3  A    between atoms: C_11  and  C_12
REMARK    4  A    between atoms: C_12  and  N_13
REMARK    5  A    between atoms: C_14  and  C_16
REMARK                            x       y       z     vdW  Elec       q    Type
REMARK                         _______ _______ _______ _____ _____    ______ ____
ROOT
ATOM      1  C   UNL     1      44.949   4.514   9.724  0.00  0.00    +0.000 A 
ATOM      2  C   UNL     1      45.800   5.614   9.779  0.00  0.00    +0.000 A 
ATOM      3  C   UNL     1      46.257   6.051  11.021  0.00  0.00    +0.000 A 
ATOM      4  C   UNL     1      45.857   5.386  12.183  0.00  0.00    +0.000 A 
ATOM      5  C   UNL     1      44.998   4.305  12.032  0.00  0.00    +0.000 A 
ATOM      6  N   UNL     1      44.533   3.862  10.841  0.00  0.00    +0.000 NA
ENDROOT
BRANCH   1   7
ATOM      7  C   UNL     1      44.538   3.933   8.388  0.00  0.00    +0.000 C 
BRANCH   7  13
ATOM      8  N   UNL     1      48.038   2.962   5.268  0.00  0.00    +0.000 N 
ATOM      9  C   UNL     1      47.260   2.516   6.337  0.00  0.00    +0.000 A 
ATOM     10  C   UNL     1      47.504   1.277   6.908  0.00  0.00    +0.000 A 
ATOM     11  C   UNL     1      46.711   0.860   7.969  0.00  0.00    +0.000 A 
ATOM     12  C   UNL     1      45.715   1.705   8.440  0.00  0.00    +0.000 A 
ATOM     13  C   UNL     1      45.558   2.956   7.845  0.00  0.00    +0.000 A 
ATOM     14  N   UNL     1      46.317   3.361   6.791  0.00  0.00    +0.000 NA
ATOM     15  H   UNL     1      48.054   2.282   4.517  0.00  0.00    +0.000 HD
ATOM     16  H   UNL     1      47.642   3.848   4.969  0.00  0.00    +0.000 HD
ENDBRANCH   7  13
ENDBRANCH   1   7
BRANCH   4  17
ATOM     17  C   UNL     1      46.386   5.776  13.530  0.00  0.00    +0.000 C 
BRANCH  17  18
ATOM     18  N   UNL     1      47.723   6.317  13.429  0.00  0.00    +0.000 N 
ATOM     19  C   UNL     1      47.972   7.640  13.694  0.00  0.00    +0.000 C 
ATOM     20  O   UNL     1      47.087   8.398  14.085  0.00  0.00    +0.000 OA
ATOM     21  H   UNL     1      48.405   5.777  12.908  0.00  0.00    +0.000 HD
BRANCH  19  22
ATOM     22  C   UNL     1      49.360   8.100  13.541  0.00  0.00    +0.000 A 
ATOM     23  C   UNL     1      49.690   8.936  12.482  0.00  0.00    +0.000 A 
ATOM     24  S   UNL     1      51.327   9.408  12.465  0.00  0.00    +0.000 S 
ATOM     25  C   UNL     1      51.669   8.475  13.845  0.00  0.00    +0.000 A 
ATOM     26  N   UNL     1      52.929   8.413  14.351  0.00  0.00    +0.000 NA
ATOM     27  C   UNL     1      53.051   7.645  15.384  0.00  0.00    +0.000 A 
ATOM     28  N   UNL     1      52.025   6.937  15.956  0.00  0.00    +0.000 N 
ATOM     29  C   UNL     1      50.731   6.989  15.494  0.00  0.00    +0.000 A 
ATOM     30  O   UNL     1      49.828   6.376  16.052  0.00  0.00    +0.000 OA
ATOM     31  C   UNL     1      50.543   7.829  14.327  0.00  0.00    +0.000 A 
ATOM     32  H   UNL     1      52.188   6.361  16.769  0.00  0.00    +0.000 HD
ENDBRANCH  19  22
ENDBRANCH  17  18
ENDBRANCH   4  17
TORSDOF 5
ENDMDL
MODEL 7
REMARK VINA RESULT:    -7.460      2.970      4.064
REMARK INTER + INTRA:         -10.497
REMARK INTER:                  -9.744
REMARK INTRA:                  -0.753
REMARK UNBOUND:                -0.856
REMARK  Name = 
REMARK  5 active torsions:
REMARK  status: ('A' for Active; 'I' for Inactive)
REMARK    1  A    between atoms: C_6  and  C_7
REMARK    2  A    between atoms: C_7  and  C_8
REMARK    3  A    between atoms: C_11  and  C_12
REMARK    4  A    between atoms: C_12  and  N_13
REMARK    5  A    between atoms: C_14  and  C_16
REMARK                            x       y       z     vdW  Elec       q    Type
REMARK                         _______ _______ _______ _____ _____    ______ ____
ROOT
ATOM      1  C   UNL     1      44.966   4.071  10.677  0.00  0.00    +0.000 A 
ATOM      2  C   UNL     1      45.438   5.374  10.804  0.00  0.00    +0.000 A 
ATOM      3  C   UNL     1      46.075   5.748  11.986  0.00  0.00    +0.000 A 
ATOM      4  C   UNL     1      46.228   4.819  13.018  0.00  0.00    +0.000 A 
ATOM      5  C   UNL     1      45.715   3.545  12.806  0.00  0.00    +0.000 A 
ATOM      6  N   UNL     1      45.087   3.155  11.673  0.00  0.00    +0.000 NA
ENDROOT
BRANCH   1   7
ATOM      7  C   UNL     1      44.387   3.593   9.362  0.00  0.00    +0.000 C 
BRANCH   7  13
ATOM      8  N   UNL     1      46.701  -0.296   7.799  0.00  0.00    +0.000 N 
ATOM      9  C   UNL     1      46.528   1.085   7.705  0.00  0.00    +0.000 A 
ATOM     10  C   UNL     1      47.226   1.813   6.753  0.00  0.00    +0.000 A 
ATOM     11  C   UNL     1      47.035   3.186   6.687  0.00  0.00    +0.000 A 
ATOM     12  C   UNL     1      46.134   3.785   7.558  0.00  0.00    +0.000 A 
ATOM     13  C   UNL     1      45.434   2.983   8.458  0.00  0.00    +0.000 A 
ATOM     14  N   UNL     1      45.634   1.639   8.543  0.00  0.00    +0.000 NA
ATOM     15  H   UNL     1      47.680  -0.538   7.893  0.00  0.00    +0.000 HD
ATOM     16  H   UNL     1      46.155  -0.605   8.598  0.00  0.00    +0.000 HD
ENDBRANCH   7  13
ENDBRANCH   1   7
BRANCH   4  17
ATOM     17  C   UNL     1      46.974   5.158  14.273  0.00  0.00    +0.000 C 
BRANCH  17  18
ATOM     18  N   UNL     1      47.347   6.554  14.297  0.00  0.00    +0.000 N 
ATOM     19  C   UNL     1      48.492   6.968  14.929  0.00  0.00    +0.000 C 
ATOM     20  O   UNL     1      49.272   6.169  15.442  0.00  0.00    +0.000 OA
ATOM     21  H   UNL     1      46.625   7.232  14.081  0.00  0.00    +0.000 HD
BRANCH  19  22
ATOM     22  C   UNL     1      48.773   8.411  14.919  0.00  0.00    +0.000 A 
ATOM     23  C   UNL     1      49.215   9.013  13.748  0.00  0.00    +0.000 A 
ATOM     24  S   UNL     1      49.460  10.694  13.890  0.00  0.00    +0.000 S 
ATOM     25  C   UNL     1      49.031  10.673  15.536  0.00  0.00    +0.000 A 
ATOM     26  N   UNL     1      49.061  11.812  16.279  0.00  0.00    +0.000 NA
ATOM     27  C   UNL     1      48.738  11.646  17.520  0.00  0.00    +0.000 A 
ATOM     28  N   UNL     1      48.386  10.445  18.082  0.00  0.00    +0.000 N 
ATOM     29  C   UNL     1      48.317   9.275  17.363  0.00  0.00    +0.000 A 
ATOM     30  O   UNL     1      47.960   8.224  17.886  0.00  0.00    +0.000 OA
ATOM     31  C   UNL     1      48.683   9.404  15.966  0.00  0.00    +0.000 A 
ATOM     32  H   UNL     1      48.136  10.387  19.059  0.00  0.00    +0.000 HD
ENDBRANCH  19  22
ENDBRANCH  17  18
ENDBRANCH   4  17
TORSDOF 5
ENDMDL
MODEL 8
REMARK VINA RESULT:    -7.424      2.057      2.443
REMARK INTER + INTRA:         -10.450
REMARK INTER:                  -9.499
REMARK INTRA:                  -0.951
REMARK UNBOUND:                -0.856
REMARK  Name = 
REMARK  5 active torsions:
REMARK  status: ('A' for Active; 'I' for Inactive)
REMARK    1  A    between atoms: C_6  and  C_7
REMARK    2  A    between atoms: C_7  and  C_8
REMARK    3  A    between atoms: C_11  and  C_12
REMARK    4  A    between atoms: C_12  and  N_13
REMARK    5  A    between atoms: C_14  and  C_16
REMARK                            x       y       z     vdW  Elec       q    Type
REMARK                         _______ _______ _______ _____ _____    ______ ____
ROOT
ATOM      1  C   UNL     1      45.192   5.719  11.180  0.00  0.00    +0.000 A 
ATOM      2  C   UNL     1      46.039   5.061  12.068  0.00  0.00    +0.000 A 
ATOM      3  C   UNL     1      46.877   5.817  12.885  0.00  0.00    +0.000 A 
ATOM      4  C   UNL     1      46.858   7.211  12.802  0.00  0.00    +0.000 A 
ATOM      5  C   UNL     1      45.989   7.781  11.880  0.00  0.00    +0.000 A 
ATOM      6  N   UNL     1      45.168   7.073  11.069  0.00  0.00    +0.000 NA
ENDROOT
BRANCH   1   7
ATOM      7  C   UNL     1      44.178   4.939  10.372  0.00  0.00    +0.000 C 
BRANCH   7  13
ATOM      8  N   UNL     1      47.064   4.062   6.654  0.00  0.00    +0.000 N 
ATOM      9  C   UNL     1      46.241   3.538   7.651  0.00  0.00    +0.000 A 
ATOM     10  C   UNL     1      46.126   2.166   7.812  0.00  0.00    +0.000 A 
ATOM     11  C   UNL     1      45.297   1.675   8.812  0.00  0.00    +0.000 A 
ATOM     12  C   UNL     1      44.627   2.573   9.634  0.00  0.00    +0.000 A 
ATOM     13  C   UNL     1      44.827   3.939   9.441  0.00  0.00    +0.000 A 
ATOM     14  N   UNL     1      45.621   4.426   8.449  0.00  0.00    +0.000 NA
ATOM     15  H   UNL     1      46.838   3.669   5.748  0.00  0.00    +0.000 HD
ATOM     16  H   UNL     1      46.940   5.070   6.673  0.00  0.00    +0.000 HD
ENDBRANCH   7  13
ENDBRANCH   1   7
BRANCH   4  17
ATOM     17  C   UNL     1      47.687   8.062  13.717  0.00  0.00    +0.000 C 
BRANCH  17  18
ATOM     18  N   UNL     1      47.741   7.499  15.047  0.00  0.00    +0.000 N 
ATOM     19  C   UNL     1      48.870   6.864  15.500  0.00  0.00    +0.000 C 
ATOM     20  O   UNL     1      49.893   6.804  14.823  0.00  0.00    +0.000 OA
ATOM     21  H   UNL     1      46.859   7.346  15.524  0.00  0.00    +0.000 HD
BRANCH  19  22
ATOM     22  C   UNL     1      48.819   6.305  16.859  0.00  0.00    +0.000 A 
ATOM     23  C   UNL     1      49.159   4.973  17.062  0.00  0.00    +0.000 A 
ATOM     24  S   UNL     1      49.084   4.488  18.694  0.00  0.00    +0.000 S 
ATOM     25  C   UNL     1      48.548   6.025  19.185  0.00  0.00    +0.000 A 
ATOM     26  N   UNL     1      48.260   6.280  20.489  0.00  0.00    +0.000 NA
ATOM     27  C   UNL     1      47.837   7.480  20.716  0.00  0.00    +0.000 A 
ATOM     28  N   UNL     1      47.678   8.447  19.756  0.00  0.00    +0.000 N 
ATOM     29  C   UNL     1      47.981   8.242  18.431  0.00  0.00    +0.000 A 
ATOM     30  O   UNL     1      47.867   9.140  17.602  0.00  0.00    +0.000 OA
ATOM     31  C   UNL     1      48.449   6.905  18.120  0.00  0.00    +0.000 A 
ATOM     32  H   UNL     1      47.350   9.370  20.004  0.00  0.00    +0.000 HD
ENDBRANCH  19  22
ENDBRANCH  17  18
ENDBRANCH   4  17
TORSDOF 5
ENDMDL
MODEL 9
REMARK VINA RESULT:    -7.261      2.566      3.661
REMARK INTER + INTRA:         -10.240
REMARK INTER:                  -9.395
REMARK INTRA:                  -0.845
REMARK UNBOUND:                -0.856
REMARK  Name = 
REMARK  5 active torsions:
REMARK  status: ('A' for Active; 'I' for Inactive)
REMARK    1  A    between atoms: C_6  and  C_7
REMARK    2  A    between atoms: C_7  and  C_8
REMARK    3  A    between atoms: C_11  and  C_12
REMARK    4  A    between atoms: C_12  and  N_13
REMARK    5  A    between atoms: C_14  and  C_16
REMARK                            x       y       z     vdW  Elec       q    Type
REMARK                         _______ _______ _______ _____ _____    ______ ____
ROOT
ATOM      1  C   UNL     1      45.599   5.529  11.837  0.00  0.00    +0.000 A 
ATOM      2  C   UNL     1      46.849   6.083  12.096  0.00  0.00    +0.000 A 
ATOM      3  C   UNL     1      47.486   5.780  13.298  0.00  0.00    +0.000 A 
ATOM      4  C   UNL     1      46.865   4.934  14.219  0.00  0.00    +0.000 A 
ATOM      5  C   UNL     1      45.613   4.436  13.882  0.00  0.00    +0.000 A 
ATOM      6  N   UNL     1      44.968   4.717  12.725  0.00  0.00    +0.000 NA
ENDROOT
BRANCH   1   7
ATOM      7  C   UNL     1      44.937   5.731  10.491  0.00  0.00    +0.000 C 
BRANCH   7  13
ATOM      8  N   UNL     1      47.061   4.007   6.562  0.00  0.00    +0.000 N 
ATOM      9  C   UNL     1      46.231   3.756   7.654  0.00  0.00    +0.000 A 
ATOM     10  C   UNL     1      45.751   2.476   7.886  0.00  0.00    +0.000 A 
ATOM     11  C   UNL     1      44.925   2.259   8.980  0.00  0.00    +0.000 A 
ATOM     12  C   UNL     1      44.623   3.322   9.820  0.00  0.00    +0.000 A 
ATOM     13  C   UNL     1      45.179   4.572   9.549  0.00  0.00    +0.000 A 
ATOM     14  N   UNL     1      45.972   4.796   8.466  0.00  0.00    +0.000 NA
ATOM     15  H   UNL     1      46.642   3.681   5.699  0.00  0.00    +0.000 HD
ATOM     16  H   UNL     1      47.230   5.009   6.547  0.00  0.00    +0.000 HD
ENDBRANCH   7  13
ENDBRANCH   1   7
BRANCH   4  17
ATOM     17  C   UNL     1      47.549   4.522  15.488  0.00  0.00    +0.000 C 
BRANCH  17  18
ATOM     18  N   UNL     1      47.688   5.640  16.393  0.00  0.00    +0.000 N 
ATOM     19  C   UNL     1      48.911   5.981  16.913  0.00  0.00    +0.000 C 
ATOM     20  O   UNL     1      49.939   5.393  16.585  0.00  0.00    +0.000 OA
ATOM     21  H   UNL     1      46.844   5.987  16.838  0.00  0.00    +0.000 HD
BRANCH  19  22
ATOM     22  C   UNL     1      48.946   7.119  17.843  0.00  0.00    +0.000 A 
ATOM     23  C   UNL     1      49.291   6.905  19.171  0.00  0.00    +0.000 A 
ATOM     24  S   UNL     1      49.320   8.328  20.110  0.00  0.00    +0.000 S 
ATOM     25  C   UNL     1      48.826   9.276  18.788  0.00  0.00    +0.000 A 
ATOM     26  N   UNL     1      48.626  10.615  18.926  0.00  0.00    +0.000 NA
ATOM     27  C   UNL     1      48.224  11.206  17.849  0.00  0.00    +0.000 A 
ATOM     28  N   UNL     1      48.009  10.580  16.647  0.00  0.00    +0.000 N 
ATOM     29  C   UNL     1      48.223   9.235  16.456  0.00  0.00    +0.000 A 
ATOM     30  O   UNL     1      48.060   8.712  15.358  0.00  0.00    +0.000 OA
ATOM     31  C   UNL     1      48.662   8.521  17.639  0.00  0.00    +0.000 A 
ATOM     32  H   UNL     1      47.703  11.105  15.841  0.00  0.00    +0.000 HD
ENDBRANCH  19  22
ENDBRANCH  17  18
ENDBRANCH   4  17
TORSDOF 5
ENDMDL
