MODEL 1
REMARK VINA RESULT:    -8.267      0.000      0.000
REMARK INTER + INTRA:         -13.522
REMARK INTER:                 -12.133
REMARK INTRA:                  -1.389
REMARK UNBOUND:                -1.389
REMARK  Name = 
REMARK  10 active torsions:
REMARK  status: ('A' for Active; 'I' for Inactive)
REMARK    1  A    between atoms: C_1  and  C_2
REMARK    2  A    between atoms: C_2  and  C_3
REMARK    3  A    between atoms: C_2  and  N_10
REMARK    4  A    between atoms: C_3  and  C_4
REMARK    5  A    between atoms: N_10  and  C_11
REMARK    6  A    between atoms: N_10  and  C_12
REMARK    7  A    between atoms: C_12  and  C_13
REMARK    8  A    between atoms: C_16  and  C_17
REMARK    9  A    between atoms: C_17  and  N_18
REMARK   10  A    between atoms: C_19  and  C_21
REMARK                            x       y       z     vdW  Elec       q    Type
REMARK                         _______ _______ _______ _____ _____    ______ ____
ROOT
ATOM      1  C   UNL     1      46.803   4.557  14.252  0.00  0.00    +0.000 A 
ATOM      2  C   UNL     1      47.511   5.734  14.009  0.00  0.00    +0.000 A 
ATOM      3  C   UNL     1      48.314   6.257  15.019  0.00  0.00    +0.000 A 
ATOM      4  C   UNL     1      48.409   5.589  16.242  0.00  0.00    +0.000 A 
ATOM      5  C   UNL     1      47.683   4.413  16.389  0.00  0.00    +0.000 A 
ATOM      6  N   UNL     1      46.869   3.900  15.441  0.00  0.00    +0.000 NA
ENDROOT
BRANCH   1   7
ATOM      7  C   UNL     1      46.023   3.883  13.139  0.00  0.00    +0.000 C 
BRANCH   7   8
ATOM      8  N   UNL     1      44.807   4.600  12.654  0.00  0.00    +0.000 NA
ATOM      9  C   UNL     1      43.704   3.624  12.658  0.00  0.00    +0.000 C 
BRANCH   8  11
ATOM     10  C   UNL     1      44.625   6.725  11.245  0.00  0.00    +0.000 C 
ATOM     11  C   UNL     1      44.989   5.227  11.305  0.00  0.00    +0.000 C 
BRANCH  11  12
ATOM     12  C   UNL     1      44.197   4.547  10.143  0.00  0.00    +0.000 C 
BRANCH  12  13
ATOM     13  C   UNL     1      45.028   3.732   9.173  0.00  0.00    +0.000 A 
ATOM     14  C   UNL     1      45.104   2.336   9.273  0.00  0.00    +0.000 A 
ATOM     15  C   UNL     1      45.917   1.601   8.404  0.00  0.00    +0.000 A 
ATOM     16  C   UNL     1      46.645   2.261   7.413  0.00  0.00    +0.000 A 
ATOM     17  C   UNL     1      46.561   3.640   7.293  0.00  0.00    +0.000 A 
ATOM     18  C   UNL     1      45.759   4.371   8.165  0.00  0.00    +0.000 A 
ENDBRANCH  12  13
ENDBRANCH  11  12
ENDBRANCH   8  11
ENDBRANCH   7   8
ENDBRANCH   1   7
BRANCH   4  19
ATOM     19  C   UNL     1      49.169   6.151  17.403  0.00  0.00    +0.000 C 
BRANCH  19  20
ATOM     20  N   UNL     1      50.194   5.219  17.809  0.00  0.00    +0.000 N 
ATOM     21  C   UNL     1      51.474   5.305  17.335  0.00  0.00    +0.000 C 
ATOM     22  O   UNL     1      51.823   6.178  16.551  0.00  0.00    +0.000 OA
ATOM     23  H   UNL     1      49.887   4.354  18.246  0.00  0.00    +0.000 HD
BRANCH  21  24
ATOM     24  C   UNL     1      52.426   4.333  17.886  0.00  0.00    +0.000 A 
ATOM     25  C   UNL     1      53.566   4.781  18.537  0.00  0.00    +0.000 A 
ATOM     26  S   UNL     1      54.535   3.524  19.164  0.00  0.00    +0.000 S 
ATOM     27  C   UNL     1      53.491   2.329  18.540  0.00  0.00    +0.000 A 
ATOM     28  N   UNL     1      53.761   1.009  18.698  0.00  0.00    +0.000 NA
ATOM     29  C   UNL     1      52.900   0.218  18.153  0.00  0.00    +0.000 A 
ATOM     30  N   UNL     1      51.787   0.621  17.473  0.00  0.00    +0.000 N 
ATOM     31  C   UNL     1      51.449   1.953  17.316  0.00  0.00    +0.000 A 
ATOM     32  O   UNL     1      50.421   2.290  16.745  0.00  0.00    +0.000 OA
ATOM     33  C   UNL     1      52.405   2.887  17.891  0.00  0.00    +0.000 A 
ATOM     34  H   UNL     1      51.138  -0.044  17.074  0.00  0.00    +0.000 HD
ENDBRANCH  21  24
ENDBRANCH  19  20
ENDBRANCH   4  19
TORSDOF 8
ENDMDL
MODEL 2
REMARK VINA RESULT:    -7.219      3.718     10.054
REMARK INTER + INTRA:         -11.984
REMARK INTER:                  -9.713
REMARK INTRA:                  -2.272
REMARK UNBOUND:                -1.389
REMARK  Name = 
REMARK  10 active torsions:
REMARK  status: ('A' for Active; 'I' for Inactive)
REMARK    1  A    between atoms: C_1  and  C_2
REMARK    2  A    between atoms: C_2  and  C_3
REMARK    3  A    between atoms: C_2  and  N_10
REMARK    4  A    between atoms: C_3  and  C_4
REMARK    5  A    between atoms: N_10  and  C_11
REMARK    6  A    between atoms: N_10  and  C_12
REMARK    7  A    between atoms: C_12  and  C_13
REMARK    8  A    between atoms: C_16  and  C_17
REMARK    9  A    between atoms: C_17  and  N_18
REMARK   10  A    between atoms: C_19  and  C_21
REMARK                            x       y       z     vdW  Elec       q    Type
REMARK                         _______ _______ _______ _____ _____    ______ ____
ROOT
ATOM      1  C   UNL     1      51.245   4.488  17.755  0.00  0.00    +0.000 A 
ATOM      2  C   UNL     1      50.393   5.522  17.367  0.00  0.00    +0.000 A 
ATOM      3  C   UNL     1      49.081   5.218  17.017  0.00  0.00    +0.000 A 
ATOM      4  C   UNL     1      48.639   3.894  17.077  0.00  0.00    +0.000 A 
ATOM      5  C   UNL     1      49.551   2.931  17.492  0.00  0.00    +0.000 A 
ATOM      6  N   UNL     1      50.840   3.191  17.805  0.00  0.00    +0.000 NA
ENDROOT
BRANCH   1   7
ATOM      7  C   UNL     1      52.639   4.790  18.270  0.00  0.00    +0.000 C 
BRANCH   7   8
ATOM      8  N   UNL     1      52.790   6.028  19.090  0.00  0.00    +0.000 NA
ATOM      9  C   UNL     1      53.871   6.818  18.479  0.00  0.00    +0.000 C 
BRANCH   8  11
ATOM     10  C   UNL     1      53.187   4.253  20.886  0.00  0.00    +0.000 C 
ATOM     11  C   UNL     1      53.055   5.750  20.539  0.00  0.00    +0.000 C 
BRANCH  11  12
ATOM     12  C   UNL     1      51.997   6.328  21.532  0.00  0.00    +0.000 C 
BRANCH  12  13
ATOM     13  C   UNL     1      50.549   6.141  21.130  0.00  0.00    +0.000 A 
ATOM     14  C   UNL     1      49.926   4.888  21.209  0.00  0.00    +0.000 A 
ATOM     15  C   UNL     1      48.605   4.720  20.784  0.00  0.00    +0.000 A 
ATOM     16  C   UNL     1      47.889   5.814  20.295  0.00  0.00    +0.000 A 
ATOM     17  C   UNL     1      48.490   7.062  20.233  0.00  0.00    +0.000 A 
ATOM     18  C   UNL     1      49.809   7.226  20.647  0.00  0.00    +0.000 A 
ENDBRANCH  12  13
ENDBRANCH  11  12
ENDBRANCH   8  11
ENDBRANCH   7   8
ENDBRANCH   1   7
BRANCH   4  19
ATOM     19  C   UNL     1      47.275   3.485  16.615  0.00  0.00    +0.000 C 
BRANCH  19  20
ATOM     20  N   UNL     1      46.772   4.454  15.672  0.00  0.00    +0.000 N 
ATOM     21  C   UNL     1      46.774   4.217  14.325  0.00  0.00    +0.000 C 
ATOM     22  O   UNL     1      47.195   3.171  13.846  0.00  0.00    +0.000 OA
ATOM     23  H   UNL     1      46.656   5.408  16.004  0.00  0.00    +0.000 HD
BRANCH  21  24
ATOM     24  C   UNL     1      46.169   5.262  13.490  0.00  0.00    +0.000 A 
ATOM     25  C   UNL     1      46.859   6.443  13.261  0.00  0.00    +0.000 A 
ATOM     26  S   UNL     1      46.040   7.525  12.226  0.00  0.00    +0.000 S 
ATOM     27  C   UNL     1      44.704   6.474  12.089  0.00  0.00    +0.000 A 
ATOM     28  N   UNL     1      43.615   6.816  11.355  0.00  0.00    +0.000 NA
ATOM     29  C   UNL     1      42.670   5.938  11.361  0.00  0.00    +0.000 A 
ATOM     30  N   UNL     1      42.715   4.744  12.021  0.00  0.00    +0.000 N 
ATOM     31  C   UNL     1      43.816   4.334  12.751  0.00  0.00    +0.000 A 
ATOM     32  O   UNL     1      43.853   3.239  13.294  0.00  0.00    +0.000 OA
ATOM     33  C   UNL     1      44.900   5.303  12.798  0.00  0.00    +0.000 A 
ATOM     34  H   UNL     1      41.948   4.086  11.982  0.00  0.00    +0.000 HD
ENDBRANCH  21  24
ENDBRANCH  19  20
ENDBRANCH   4  19
TORSDOF 8
ENDMDL
MODEL 3
REMARK VINA RESULT:    -7.200      4.389      9.194
REMARK INTER + INTRA:         -11.956
REMARK INTER:                 -10.037
REMARK INTRA:                  -1.919
REMARK UNBOUND:                -1.389
REMARK  Name = 
REMARK  10 active torsions:
REMARK  status: ('A' for Active; 'I' for Inactive)
REMARK    1  A    between atoms: C_1  and  C_2
REMARK    2  A    between atoms: C_2  and  C_3
REMARK    3  A    between atoms: C_2  and  N_10
REMARK    4  A    between atoms: C_3  and  C_4
REMARK    5  A    between atoms: N_10  and  C_11
REMARK    6  A    between atoms: N_10  and  C_12
REMARK    7  A    between atoms: C_12  and  C_13
REMARK    8  A    between atoms: C_16  and  C_17
REMARK    9  A    between atoms: C_17  and  N_18
REMARK   10  A    between atoms: C_19  and  C_21
REMARK                            x       y       z     vdW  Elec       q    Type
REMARK                         _______ _______ _______ _____ _____    ______ ____
ROOT
ATOM      1  C   UNL     1      48.904   8.133  15.870  0.00  0.00    +0.000 A 
ATOM      2  C   UNL     1      49.236   6.963  15.187  0.00  0.00    +0.000 A 
ATOM      3  C   UNL     1      48.863   6.835  13.852  0.00  0.00    +0.000 A 
ATOM      4  C   UNL     1      48.184   7.880  13.220  0.00  0.00    +0.000 A 
ATOM      5  C   UNL     1      47.912   9.016  13.973  0.00  0.00    +0.000 A 
ATOM      6  N   UNL     1      48.230   9.156  15.279  0.00  0.00    +0.000 NA
ENDROOT
BRANCH   1   7
ATOM      7  C   UNL     1      49.405   8.369  17.282  0.00  0.00    +0.000 C 
BRANCH   7   8
ATOM      8  N   UNL     1      48.383   8.297  18.368  0.00  0.00    +0.000 NA
ATOM      9  C   UNL     1      48.803   9.244  19.415  0.00  0.00    +0.000 C 
BRANCH   8  11
ATOM     10  C   UNL     1      47.765   6.866  20.393  0.00  0.00    +0.000 C 
ATOM     11  C   UNL     1      48.193   6.914  18.912  0.00  0.00    +0.000 C 
BRANCH  11  12
ATOM     12  C   UNL     1      49.437   5.976  18.796  0.00  0.00    +0.000 C 
BRANCH  12  13
ATOM     13  C   UNL     1      49.205   4.668  18.067  0.00  0.00    +0.000 A 
ATOM     14  C   UNL     1      50.221   3.712  17.943  0.00  0.00    +0.000 A 
ATOM     15  C   UNL     1      50.008   2.533  17.223  0.00  0.00    +0.000 A 
ATOM     16  C   UNL     1      48.764   2.294  16.637  0.00  0.00    +0.000 A 
ATOM     17  C   UNL     1      47.745   3.225  16.771  0.00  0.00    +0.000 A 
ATOM     18  C   UNL     1      47.961   4.403  17.481  0.00  0.00    +0.000 A 
ENDBRANCH  12  13
ENDBRANCH  11  12
ENDBRANCH   8  11
ENDBRANCH   7   8
ENDBRANCH   1   7
BRANCH   4  19
ATOM     19  C   UNL     1      47.664   7.765  11.821  0.00  0.00    +0.000 C 
BRANCH  19  20
ATOM     20  N   UNL     1      46.933   6.529  11.676  0.00  0.00    +0.000 N 
ATOM     21  C   UNL     1      45.573   6.477  11.814  0.00  0.00    +0.000 C 
ATOM     22  O   UNL     1      44.902   7.471  12.059  0.00  0.00    +0.000 OA
ATOM     23  H   UNL     1      47.467   5.666  11.725  0.00  0.00    +0.000 HD
BRANCH  21  24
ATOM     24  C   UNL     1      44.956   5.167  11.572  0.00  0.00    +0.000 A 
ATOM     25  C   UNL     1      44.246   4.544  12.587  0.00  0.00    +0.000 A 
ATOM     26  S   UNL     1      43.548   3.058  12.123  0.00  0.00    +0.000 S 
ATOM     27  C   UNL     1      44.216   3.167  10.558  0.00  0.00    +0.000 A 
ATOM     28  N   UNL     1      44.024   2.182   9.644  0.00  0.00    +0.000 NA
ATOM     29  C   UNL     1      44.608   2.384   8.511  0.00  0.00    +0.000 A 
ATOM     30  N   UNL     1      45.356   3.483   8.201  0.00  0.00    +0.000 N 
ATOM     31  C   UNL     1      45.550   4.529   9.085  0.00  0.00    +0.000 A 
ATOM     32  O   UNL     1      46.184   5.527   8.768  0.00  0.00    +0.000 OA
ATOM     33  C   UNL     1      44.933   4.336  10.388  0.00  0.00    +0.000 A 
ATOM     34  H   UNL     1      45.783   3.596   7.291  0.00  0.00    +0.000 HD
ENDBRANCH  21  24
ENDBRANCH  19  20
ENDBRANCH   4  19
TORSDOF 8
ENDMDL
MODEL 4
REMARK VINA RESULT:    -7.075      5.426      6.502
REMARK INTER + INTRA:         -11.772
REMARK INTER:                 -10.677
REMARK INTRA:                  -1.095
REMARK UNBOUND:                -1.389
REMARK  Name = 
REMARK  10 active torsions:
REMARK  status: ('A' for Active; 'I' for Inactive)
REMARK    1  A    between atoms: C_1  and  C_2
REMARK    2  A    between atoms: C_2  and  C_3
REMARK    3  A    between atoms: C_2  and  N_10
REMARK    4  A    between atoms: C_3  and  C_4
REMARK    5  A    between atoms: N_10  and  C_11
REMARK    6  A    between atoms: N_10  and  C_12
REMARK    7  A    between atoms: C_12  and  C_13
REMARK    8  A    between atoms: C_16  and  C_17
REMARK    9  A    between atoms: C_17  and  N_18
REMARK   10  A    between atoms: C_19  and  C_21
REMARK                            x       y       z     vdW  Elec       q    Type
REMARK                         _______ _______ _______ _____ _____    ______ ____
ROOT
ATOM      1  C   UNL     1      45.837   5.823  12.881  0.00  0.00    +0.000 A 
ATOM      2  C   UNL     1      47.107   5.707  13.443  0.00  0.00    +0.000 A 
ATOM      3  C   UNL     1      47.811   6.865  13.761  0.00  0.00    +0.000 A 
ATOM      4  C   UNL     1      47.229   8.113  13.528  0.00  0.00    +0.000 A 
ATOM      5  C   UNL     1      45.952   8.134  12.981  0.00  0.00    +0.000 A 
ATOM      6  N   UNL     1      45.258   7.029  12.631  0.00  0.00    +0.000 NA
ENDROOT
BRANCH   1   7
ATOM      7  C   UNL     1      44.983   4.592  12.643  0.00  0.00    +0.000 C 
BRANCH   7   8
ATOM      8  N   UNL     1      44.292   4.510  11.322  0.00  0.00    +0.000 NA
ATOM      9  C   UNL     1      43.283   3.444  11.432  0.00  0.00    +0.000 C 
BRANCH   8  11
ATOM     10  C   UNL     1      45.800   5.557   9.544  0.00  0.00    +0.000 C 
ATOM     11  C   UNL     1      45.230   4.272  10.178  0.00  0.00    +0.000 C 
BRANCH  11  12
ATOM     12  C   UNL     1      44.639   3.438   8.996  0.00  0.00    +0.000 C 
BRANCH  12  13
ATOM     13  C   UNL     1      45.656   2.825   8.055  0.00  0.00    +0.000 A 
ATOM     14  C   UNL     1      46.122   3.520   6.931  0.00  0.00    +0.000 A 
ATOM     15  C   UNL     1      47.019   2.921   6.042  0.00  0.00    +0.000 A 
ATOM     16  C   UNL     1      47.475   1.625   6.286  0.00  0.00    +0.000 A 
ATOM     17  C   UNL     1      47.035   0.935   7.406  0.00  0.00    +0.000 A 
ATOM     18  C   UNL     1      46.134   1.529   8.285  0.00  0.00    +0.000 A 
ENDBRANCH  12  13
ENDBRANCH  11  12
ENDBRANCH   8  11
ENDBRANCH   7   8
ENDBRANCH   1   7
BRANCH   4  19
ATOM     19  C   UNL     1      47.972   9.395  13.748  0.00  0.00    +0.000 C 
BRANCH  19  20
ATOM     20  N   UNL     1      49.146   9.425  12.911  0.00  0.00    +0.000 N 
ATOM     21  C   UNL     1      49.198  10.176  11.769  0.00  0.00    +0.000 C 
ATOM     22  O   UNL     1      48.258  10.868  11.399  0.00  0.00    +0.000 OA
ATOM     23  H   UNL     1      49.831   8.686  13.046  0.00  0.00    +0.000 HD
BRANCH  21  24
ATOM     24  C   UNL     1      50.479  10.164  11.053  0.00  0.00    +0.000 A 
ATOM     25  C   UNL     1      51.022  11.356  10.596  0.00  0.00    +0.000 A 
ATOM     26  S   UNL     1      52.538  11.170   9.835  0.00  0.00    +0.000 S 
ATOM     27  C   UNL     1      52.500   9.478  10.042  0.00  0.00    +0.000 A 
ATOM     28  N   UNL     1      53.504   8.692   9.577  0.00  0.00    +0.000 NA
ATOM     29  C   UNL     1      53.331   7.430   9.779  0.00  0.00    +0.000 A 
ATOM     30  N   UNL     1      52.255   6.879  10.413  0.00  0.00    +0.000 N 
ATOM     31  C   UNL     1      51.225   7.639  10.936  0.00  0.00    +0.000 A 
ATOM     32  O   UNL     1      50.295   7.127  11.543  0.00  0.00    +0.000 OA
ATOM     33  C   UNL     1      51.361   9.070  10.709  0.00  0.00    +0.000 A 
ATOM     34  H   UNL     1      52.176   5.880  10.555  0.00  0.00    +0.000 HD
ENDBRANCH  21  24
ENDBRANCH  19  20
ENDBRANCH   4  19
TORSDOF 8
ENDMDL
MODEL 5
REMARK VINA RESULT:    -7.043      4.206      9.312
REMARK INTER + INTRA:         -11.725
REMARK INTER:                  -9.077
REMARK INTRA:                  -2.648
REMARK UNBOUND:                -1.389
REMARK  Name = 
REMARK  10 active torsions:
REMARK  status: ('A' for Active; 'I' for Inactive)
REMARK    1  A    between atoms: C_1  and  C_2
REMARK    2  A    between atoms: C_2  and  C_3
REMARK    3  A    between atoms: C_2  and  N_10
REMARK    4  A    between atoms: C_3  and  C_4
REMARK    5  A    between atoms: N_10  and  C_11
REMARK    6  A    between atoms: N_10  and  C_12
REMARK    7  A    between atoms: C_12  and  C_13
REMARK    8  A    between atoms: C_16  and  C_17
REMARK    9  A    between atoms: C_17  and  N_18
REMARK   10  A    between atoms: C_19  and  C_21
REMARK                            x       y       z     vdW  Elec       q    Type
REMARK                         _______ _______ _______ _____ _____    ______ ____
ROOT
ATOM      1  C   UNL     1      49.390   5.438  19.722  0.00  0.00    +0.000 A 
ATOM      2  C   UNL     1      50.122   4.606  18.876  0.00  0.00    +0.000 A 
ATOM      3  C   UNL     1      49.470   3.985  17.814  0.00  0.00    +0.000 A 
ATOM      4  C   UNL     1      48.109   4.219  17.607  0.00  0.00    +0.000 A 
ATOM      5  C   UNL     1      47.464   5.077  18.489  0.00  0.00    +0.000 A 
ATOM      6  N   UNL     1      48.060   5.667  19.548  0.00  0.00    +0.000 NA
ENDROOT
BRANCH   1   7
ATOM      7  C   UNL     1      50.085   6.236  20.809  0.00  0.00    +0.000 C 
BRANCH   7   8
ATOM      8  N   UNL     1      51.189   7.139  20.366  0.00  0.00    +0.000 NA
ATOM      9  C   UNL     1      52.334   6.882  21.255  0.00  0.00    +0.000 C 
BRANCH   8  11
ATOM     10  C   UNL     1      49.398   8.874  20.926  0.00  0.00    +0.000 C 
ATOM     11  C   UNL     1      50.803   8.586  20.359  0.00  0.00    +0.000 C 
BRANCH  11  12
ATOM     12  C   UNL     1      50.852   9.282  18.961  0.00  0.00    +0.000 C 
BRANCH  12  13
ATOM     13  C   UNL     1      50.476   8.409  17.782  0.00  0.00    +0.000 A 
ATOM     14  C   UNL     1      51.437   7.651  17.099  0.00  0.00    +0.000 A 
ATOM     15  C   UNL     1      51.084   6.892  15.980  0.00  0.00    +0.000 A 
ATOM     16  C   UNL     1      49.758   6.871  15.547  0.00  0.00    +0.000 A 
ATOM     17  C   UNL     1      48.795   7.602  16.227  0.00  0.00    +0.000 A 
ATOM     18  C   UNL     1      49.150   8.365  17.336  0.00  0.00    +0.000 A 
ENDBRANCH  12  13
ENDBRANCH  11  12
ENDBRANCH   8  11
ENDBRANCH   7   8
ENDBRANCH   1   7
BRANCH   4  19
ATOM     19  C   UNL     1      47.327   3.503  16.550  0.00  0.00    +0.000 C 
BRANCH  19  20
ATOM     20  N   UNL     1      46.777   4.461  15.621  0.00  0.00    +0.000 N 
ATOM     21  C   UNL     1      46.790   4.244  14.271  0.00  0.00    +0.000 C 
ATOM     22  O   UNL     1      47.260   3.227  13.777  0.00  0.00    +0.000 OA
ATOM     23  H   UNL     1      46.615   5.403  15.967  0.00  0.00    +0.000 HD
BRANCH  21  24
ATOM     24  C   UNL     1      46.136   5.271  13.451  0.00  0.00    +0.000 A 
ATOM     25  C   UNL     1      46.785   6.471  13.208  0.00  0.00    +0.000 A 
ATOM     26  S   UNL     1      45.910   7.529  12.193  0.00  0.00    +0.000 S 
ATOM     27  C   UNL     1      44.603   6.439  12.086  0.00  0.00    +0.000 A 
ATOM     28  N   UNL     1      43.488   6.749  11.378  0.00  0.00    +0.000 NA
ATOM     29  C   UNL     1      42.569   5.844  11.405  0.00  0.00    +0.000 A 
ATOM     30  N   UNL     1      42.665   4.651  12.063  0.00  0.00    +0.000 N 
ATOM     31  C   UNL     1      43.793   4.274  12.767  0.00  0.00    +0.000 A 
ATOM     32  O   UNL     1      43.876   3.180  13.308  0.00  0.00    +0.000 OA
ATOM     33  C   UNL     1      44.849   5.275  12.789  0.00  0.00    +0.000 A 
ATOM     34  H   UNL     1      41.916   3.971  12.041  0.00  0.00    +0.000 HD
ENDBRANCH  21  24
ENDBRANCH  19  20
ENDBRANCH   4  19
TORSDOF 8
ENDMDL
MODEL 6
REMARK VINA RESULT:    -6.982      3.357      4.004
REMARK INTER + INTRA:         -11.636
REMARK INTER:                 -10.173
REMARK INTRA:                  -1.463
REMARK UNBOUND:                -1.389
REMARK  Name = 
REMARK  10 active torsions:
REMARK  status: ('A' for Active; 'I' for Inactive)
REMARK    1  A    between atoms: C_1  and  C_2
REMARK    2  A    between atoms: C_2  and  C_3
REMARK    3  A    between atoms: C_2  and  N_10
REMARK    4  A    between atoms: C_3  and  C_4
REMARK    5  A    between atoms: N_10  and  C_11
REMARK    6  A    between atoms: N_10  and  C_12
REMARK    7  A    between atoms: C_12  and  C_13
REMARK    8  A    between atoms: C_16  and  C_17
REMARK    9  A    between atoms: C_17  and  N_18
REMARK   10  A    between atoms: C_19  and  C_21
REMARK                            x       y       z     vdW  Elec       q    Type
REMARK                         _______ _______ _______ _____ _____    ______ ____
ROOT
ATOM      1  C   UNL     1      47.179   6.556  12.730  0.00  0.00    +0.000 A 
ATOM      2  C   UNL     1      46.562   7.752  13.092  0.00  0.00    +0.000 A 
ATOM      3  C   UNL     1      47.259   8.655  13.890  0.00  0.00    +0.000 A 
ATOM      4  C   UNL     1      48.562   8.355  14.296  0.00  0.00    +0.000 A 
ATOM      5  C   UNL     1      49.104   7.148  13.873  0.00  0.00    +0.000 A 
ATOM      6  N   UNL     1      48.440   6.237  13.128  0.00  0.00    +0.000 NA
ENDROOT
BRANCH   1   7
ATOM      7  C   UNL     1      46.508   5.605  11.756  0.00  0.00    +0.000 C 
BRANCH   7   8
ATOM      8  N   UNL     1      45.152   5.112  12.139  0.00  0.00    +0.000 NA
ATOM      9  C   UNL     1      45.335   3.782  12.744  0.00  0.00    +0.000 C 
BRANCH   8  11
ATOM     10  C   UNL     1      42.789   5.631  11.315  0.00  0.00    +0.000 C 
ATOM     11  C   UNL     1      44.190   5.073  10.991  0.00  0.00    +0.000 C 
BRANCH  11  12
ATOM     12  C   UNL     1      43.955   3.661  10.367  0.00  0.00    +0.000 C 
BRANCH  12  13
ATOM     13  C   UNL     1      44.907   3.269   9.255  0.00  0.00    +0.000 A 
ATOM     14  C   UNL     1      45.271   1.932   9.043  0.00  0.00    +0.000 A 
ATOM     15  C   UNL     1      46.191   1.592   8.047  0.00  0.00    +0.000 A 
ATOM     16  C   UNL     1      46.740   2.590   7.241  0.00  0.00    +0.000 A 
ATOM     17  C   UNL     1      46.372   3.914   7.430  0.00  0.00    +0.000 A 
ATOM     18  C   UNL     1      45.463   4.252   8.428  0.00  0.00    +0.000 A 
ENDBRANCH  12  13
ENDBRANCH  11  12
ENDBRANCH   8  11
ENDBRANCH   7   8
ENDBRANCH   1   7
BRANCH   4  19
ATOM     19  C   UNL     1      49.327   9.232  15.238  0.00  0.00    +0.000 C 
BRANCH  19  20
ATOM     20  N   UNL     1      49.376   8.615  16.542  0.00  0.00    +0.000 N 
ATOM     21  C   UNL     1      48.512   8.972  17.540  0.00  0.00    +0.000 C 
ATOM     22  O   UNL     1      47.647   9.824  17.382  0.00  0.00    +0.000 OA
ATOM     23  H   UNL     1      50.221   8.103  16.781  0.00  0.00    +0.000 HD
BRANCH  21  24
ATOM     24  C   UNL     1      48.633   8.214  18.792  0.00  0.00    +0.000 A 
ATOM     25  C   UNL     1      48.801   8.891  19.990  0.00  0.00    +0.000 A 
ATOM     26  S   UNL     1      48.868   7.865  21.352  0.00  0.00    +0.000 S 
ATOM     27  C   UNL     1      48.728   6.470  20.381  0.00  0.00    +0.000 A 
ATOM     28  N   UNL     1      48.750   5.229  20.929  0.00  0.00    +0.000 NA
ATOM     29  C   UNL     1      48.662   4.267  20.075  0.00  0.00    +0.000 A 
ATOM     30  N   UNL     1      48.542   4.427  18.725  0.00  0.00    +0.000 N 
ATOM     31  C   UNL     1      48.478   5.670  18.122  0.00  0.00    +0.000 A 
ATOM     32  O   UNL     1      48.322   5.790  16.915  0.00  0.00    +0.000 OA
ATOM     33  C   UNL     1      48.601   6.790  19.042  0.00  0.00    +0.000 A 
ATOM     34  H   UNL     1      48.465   3.635  18.100  0.00  0.00    +0.000 HD
ENDBRANCH  21  24
ENDBRANCH  19  20
ENDBRANCH   4  19
TORSDOF 8
ENDMDL
MODEL 7
REMARK VINA RESULT:    -6.709      5.548      7.189
REMARK INTER + INTRA:         -11.236
REMARK INTER:                 -10.630
REMARK INTRA:                  -0.606
REMARK UNBOUND:                -1.389
REMARK  Name = 
REMARK  10 active torsions:
REMARK  status: ('A' for Active; 'I' for Inactive)
REMARK    1  A    between atoms: C_1  and  C_2
REMARK    2  A    between atoms: C_2  and  C_3
REMARK    3  A    between atoms: C_2  and  N_10
REMARK    4  A    between atoms: C_3  and  C_4
REMARK    5  A    between atoms: N_10  and  C_11
REMARK    6  A    between atoms: N_10  and  C_12
REMARK    7  A    between atoms: C_12  and  C_13
REMARK    8  A    between atoms: C_16  and  C_17
REMARK    9  A    between atoms: C_17  and  N_18
REMARK   10  A    between atoms: C_19  and  C_21
REMARK                            x       y       z     vdW  Elec       q    Type
REMARK                         _______ _______ _______ _____ _____    ______ ____
ROOT
ATOM      1  C   UNL     1      46.082   5.965  12.767  0.00  0.00    +0.000 A 
ATOM      2  C   UNL     1      46.467   6.682  11.635  0.00  0.00    +0.000 A 
ATOM      3  C   UNL     1      47.737   7.252  11.599  0.00  0.00    +0.000 A 
ATOM      4  C   UNL     1      48.602   7.080  12.682  0.00  0.00    +0.000 A 
ATOM      5  C   UNL     1      48.140   6.335  13.760  0.00  0.00    +0.000 A 
ATOM      6  N   UNL     1      46.903   5.800  13.839  0.00  0.00    +0.000 NA
ENDROOT
BRANCH   1   7
ATOM      7  C   UNL     1      44.761   5.219  12.795  0.00  0.00    +0.000 C 
BRANCH   7   8
ATOM      8  N   UNL     1      44.722   3.914  12.071  0.00  0.00    +0.000 NA
ATOM      9  C   UNL     1      45.891   3.140  12.521  0.00  0.00    +0.000 C 
BRANCH   8  11
ATOM     10  C   UNL     1      43.577   4.986  10.054  0.00  0.00    +0.000 C 
ATOM     11  C   UNL     1      44.695   4.064  10.581  0.00  0.00    +0.000 C 
BRANCH  11  12
ATOM     12  C   UNL     1      44.564   2.730   9.779  0.00  0.00    +0.000 C 
BRANCH  12  13
ATOM     13  C   UNL     1      45.509   2.575   8.605  0.00  0.00    +0.000 A 
ATOM     14  C   UNL     1      45.763   3.637   7.727  0.00  0.00    +0.000 A 
ATOM     15  C   UNL     1      46.596   3.463   6.618  0.00  0.00    +0.000 A 
ATOM     16  C   UNL     1      47.199   2.225   6.392  0.00  0.00    +0.000 A 
ATOM     17  C   UNL     1      46.970   1.172   7.266  0.00  0.00    +0.000 A 
ATOM     18  C   UNL     1      46.132   1.344   8.364  0.00  0.00    +0.000 A 
ENDBRANCH  12  13
ENDBRANCH  11  12
ENDBRANCH   8  11
ENDBRANCH   7   8
ENDBRANCH   1   7
BRANCH   4  19
ATOM     19  C   UNL     1      49.938   7.752  12.752  0.00  0.00    +0.000 C 
BRANCH  19  20
ATOM     20  N   UNL     1      50.687   7.469  11.551  0.00  0.00    +0.000 N 
ATOM     21  C   UNL     1      51.870   8.097  11.276  0.00  0.00    +0.000 C 
ATOM     22  O   UNL     1      52.361   8.926  12.031  0.00  0.00    +0.000 OA
ATOM     23  H   UNL     1      50.196   6.991  10.800  0.00  0.00    +0.000 HD
BRANCH  21  24
ATOM     24  C   UNL     1      52.556   7.661  10.053  0.00  0.00    +0.000 A 
ATOM     25  C   UNL     1      52.963   6.342   9.928  0.00  0.00    +0.000 A 
ATOM     26  S   UNL     1      53.693   5.991   8.425  0.00  0.00    +0.000 S 
ATOM     27  C   UNL     1      53.540   7.608   7.907  0.00  0.00    +0.000 A 
ATOM     28  N   UNL     1      54.005   8.003   6.695  0.00  0.00    +0.000 NA
ATOM     29  C   UNL     1      53.846   9.258   6.445  0.00  0.00    +0.000 A 
ATOM     30  N   UNL     1      53.254  10.155   7.287  0.00  0.00    +0.000 N 
ATOM     31  C   UNL     1      52.733   9.795   8.516  0.00  0.00    +0.000 A 
ATOM     32  O   UNL     1      52.164  10.606   9.233  0.00  0.00    +0.000 OA
ATOM     33  C   UNL     1      52.912   8.392   8.856  0.00  0.00    +0.000 A 
ATOM     34  H   UNL     1      53.145  11.128   7.035  0.00  0.00    +0.000 HD
ENDBRANCH  21  24
ENDBRANCH  19  20
ENDBRANCH   4  19
TORSDOF 8
ENDMDL
MODEL 8
REMARK VINA RESULT:    -6.396      4.194      9.955
REMARK INTER + INTRA:         -10.776
REMARK INTER:                  -9.306
REMARK INTRA:                  -1.470
REMARK UNBOUND:                -1.389
REMARK  Name = 
REMARK  10 active torsions:
REMARK  status: ('A' for Active; 'I' for Inactive)
REMARK    1  A    between atoms: C_1  and  C_2
REMARK    2  A    between atoms: C_2  and  C_3
REMARK    3  A    between atoms: C_2  and  N_10
REMARK    4  A    between atoms: C_3  and  C_4
REMARK    5  A    between atoms: N_10  and  C_11
REMARK    6  A    between atoms: N_10  and  C_12
REMARK    7  A    between atoms: C_12  and  C_13
REMARK    8  A    between atoms: C_16  and  C_17
REMARK    9  A    between atoms: C_17  and  N_18
REMARK   10  A    between atoms: C_19  and  C_21
REMARK                            x       y       z     vdW  Elec       q    Type
REMARK                         _______ _______ _______ _____ _____    ______ ____
ROOT
ATOM      1  C   UNL     1      48.777   5.480  17.410  0.00  0.00    +0.000 A 
ATOM      2  C   UNL     1      47.923   4.784  16.554  0.00  0.00    +0.000 A 
ATOM      3  C   UNL     1      47.738   5.257  15.258  0.00  0.00    +0.000 A 
ATOM      4  C   UNL     1      48.420   6.400  14.836  0.00  0.00    +0.000 A 
ATOM      5  C   UNL     1      49.264   7.019  15.750  0.00  0.00    +0.000 A 
ATOM      6  N   UNL     1      49.438   6.604  17.024  0.00  0.00    +0.000 NA
ENDROOT
BRANCH   1   7
ATOM      7  C   UNL     1      49.109   4.928  18.783  0.00  0.00    +0.000 C 
BRANCH   7   8
ATOM      8  N   UNL     1      49.812   5.856  19.718  0.00  0.00    +0.000 NA
ATOM      9  C   UNL     1      51.116   5.244  20.028  0.00  0.00    +0.000 C 
BRANCH   8  11
ATOM     10  C   UNL     1      48.961   4.986  21.965  0.00  0.00    +0.000 C 
ATOM     11  C   UNL     1      49.028   6.153  20.959  0.00  0.00    +0.000 C 
BRANCH  11  12
ATOM     12  C   UNL     1      47.550   6.600  20.722  0.00  0.00    +0.000 C 
BRANCH  12  13
ATOM     13  C   UNL     1      47.340   8.085  20.511  0.00  0.00    +0.000 A 
ATOM     14  C   UNL     1      46.963   8.926  21.567  0.00  0.00    +0.000 A 
ATOM     15  C   UNL     1      46.721  10.285  21.346  0.00  0.00    +0.000 A 
ATOM     16  C   UNL     1      46.877  10.818  20.065  0.00  0.00    +0.000 A 
ATOM     17  C   UNL     1      47.270   9.998  19.018  0.00  0.00    +0.000 A 
ATOM     18  C   UNL     1      47.501   8.643  19.237  0.00  0.00    +0.000 A 
ENDBRANCH  12  13
ENDBRANCH  11  12
ENDBRANCH   8  11
ENDBRANCH   7   8
ENDBRANCH   1   7
BRANCH   4  19
ATOM     19  C   UNL     1      48.186   7.020  13.493  0.00  0.00    +0.000 C 
BRANCH  19  20
ATOM     20  N   UNL     1      47.417   6.119  12.670  0.00  0.00    +0.000 N 
ATOM     21  C   UNL     1      46.420   6.567  11.848  0.00  0.00    +0.000 C 
ATOM     22  O   UNL     1      46.130   7.753  11.760  0.00  0.00    +0.000 OA
ATOM     23  H   UNL     1      47.456   5.130  12.903  0.00  0.00    +0.000 HD
BRANCH  21  24
ATOM     24  C   UNL     1      45.767   5.547  11.018  0.00  0.00    +0.000 A 
ATOM     25  C   UNL     1      45.870   5.616   9.638  0.00  0.00    +0.000 A 
ATOM     26  S   UNL     1      45.102   4.324   8.828  0.00  0.00    +0.000 S 
ATOM     27  C   UNL     1      44.556   3.652  10.297  0.00  0.00    +0.000 A 
ATOM     28  N   UNL     1      43.796   2.529  10.314  0.00  0.00    +0.000 NA
ATOM     29  C   UNL     1      43.432   2.148  11.491  0.00  0.00    +0.000 A 
ATOM     30  N   UNL     1      43.766   2.777  12.656  0.00  0.00    +0.000 N 
ATOM     31  C   UNL     1      44.568   3.903  12.694  0.00  0.00    +0.000 A 
ATOM     32  O   UNL     1      44.894   4.422  13.752  0.00  0.00    +0.000 OA
ATOM     33  C   UNL     1      44.983   4.389  11.386  0.00  0.00    +0.000 A 
ATOM     34  H   UNL     1      43.462   2.427  13.555  0.00  0.00    +0.000 HD
ENDBRANCH  21  24
ENDBRANCH  19  20
ENDBRANCH   4  19
TORSDOF 8
ENDMDL
MODEL 9
REMARK VINA RESULT:    -6.155      4.090      9.615
REMARK INTER + INTRA:         -10.423
REMARK INTER:                  -8.222
REMARK INTRA:                  -2.200
REMARK UNBOUND:                -1.389
REMARK  Name = 
REMARK  10 active torsions:
REMARK  status: ('A' for Active; 'I' for Inactive)
REMARK    1  A    between atoms: C_1  and  C_2
REMARK    2  A    between atoms: C_2  and  C_3
REMARK    3  A    between atoms: C_2  and  N_10
REMARK    4  A    between atoms: C_3  and  C_4
REMARK    5  A    between atoms: N_10  and  C_11
REMARK    6  A    between atoms: N_10  and  C_12
REMARK    7  A    between atoms: C_12  and  C_13
REMARK    8  A    between atoms: C_16  and  C_17
REMARK    9  A    between atoms: C_17  and  N_18
REMARK   10  A    between atoms: C_19  and  C_21
REMARK                            x       y       z     vdW  Elec       q    Type
REMARK                         _______ _______ _______ _____ _____    ______ ____
ROOT
ATOM      1  C   UNL     1      48.683   5.631  19.147  0.00  0.00    +0.000 A 
ATOM      2  C   UNL     1      48.265   6.949  18.968  0.00  0.00    +0.000 A 
ATOM      3  C   UNL     1      48.300   7.499  17.690  0.00  0.00    +0.000 A 
ATOM      4  C   UNL     1      48.735   6.721  16.615  0.00  0.00    +0.000 A 
ATOM      5  C   UNL     1      49.116   5.412  16.883  0.00  0.00    +0.000 A 
ATOM      6  N   UNL     1      49.125   4.861  18.116  0.00  0.00    +0.000 NA
ENDROOT
BRANCH   1   7
ATOM      7  C   UNL     1      48.537   4.951  20.495  0.00  0.00    +0.000 C 
BRANCH   7   8
ATOM      8  N   UNL     1      49.594   5.249  21.506  0.00  0.00    +0.000 NA
ATOM      9  C   UNL     1      49.128   6.411  22.282  0.00  0.00    +0.000 C 
BRANCH   8  11
ATOM     10  C   UNL     1      52.074   4.631  21.499  0.00  0.00    +0.000 C 
ATOM     11  C   UNL     1      50.942   5.491  20.899  0.00  0.00    +0.000 C 
BRANCH  11  12
ATOM     12  C   UNL     1      51.447   6.968  20.964  0.00  0.00    +0.000 C 
BRANCH  12  13
ATOM     13  C   UNL     1      51.595   7.669  19.629  0.00  0.00    +0.000 A 
ATOM     14  C   UNL     1      52.076   6.993  18.499  0.00  0.00    +0.000 A 
ATOM     15  C   UNL     1      52.258   7.667  17.288  0.00  0.00    +0.000 A 
ATOM     16  C   UNL     1      51.937   9.022  17.194  0.00  0.00    +0.000 A 
ATOM     17  C   UNL     1      51.441   9.695  18.300  0.00  0.00    +0.000 A 
ATOM     18  C   UNL     1      51.270   9.025  19.509  0.00  0.00    +0.000 A 
ENDBRANCH  12  13
ENDBRANCH  11  12
ENDBRANCH   8  11
ENDBRANCH   7   8
ENDBRANCH   1   7
BRANCH   4  19
ATOM     19  C   UNL     1      48.897   7.282  15.236  0.00  0.00    +0.000 C 
BRANCH  19  20
ATOM     20  N   UNL     1      47.686   7.068  14.480  0.00  0.00    +0.000 N 
ATOM     21  C   UNL     1      47.668   6.290  13.355  0.00  0.00    +0.000 C 
ATOM     22  O   UNL     1      48.670   5.728  12.933  0.00  0.00    +0.000 OA
ATOM     23  H   UNL     1      46.915   7.707  14.650  0.00  0.00    +0.000 HD
BRANCH  21  24
ATOM     24  C   UNL     1      46.354   6.106  12.726  0.00  0.00    +0.000 A 
ATOM     25  C   UNL     1      45.689   7.199  12.193  0.00  0.00    +0.000 A 
ATOM     26  S   UNL     1      44.204   6.802  11.452  0.00  0.00    +0.000 S 
ATOM     27  C   UNL     1      44.371   5.156  11.865  0.00  0.00    +0.000 A 
ATOM     28  N   UNL     1      43.410   4.252  11.547  0.00  0.00    +0.000 NA
ATOM     29  C   UNL     1      43.656   3.050  11.944  0.00  0.00    +0.000 A 
ATOM     30  N   UNL     1      44.778   2.662  12.619  0.00  0.00    +0.000 N 
ATOM     31  C   UNL     1      45.800   3.537  12.934  0.00  0.00    +0.000 A 
ATOM     32  O   UNL     1      46.819   3.158  13.496  0.00  0.00    +0.000 OA
ATOM     33  C   UNL     1      45.558   4.914  12.530  0.00  0.00    +0.000 A 
ATOM     34  H   UNL     1      44.924   1.701  12.897  0.00  0.00    +0.000 HD
ENDBRANCH  21  24
ENDBRANCH  19  20
ENDBRANCH   4  19
TORSDOF 8
ENDMDL
