MODEL 1
REMARK VINA RESULT:    -7.367      0.000      0.000
REMARK INTER + INTRA:         -11.209
REMARK INTER:                 -10.382
REMARK INTRA:                  -0.827
REMARK UNBOUND:                -0.827
REMARK  Name = 
REMARK  9 active torsions:
REMARK  status: ('A' for Active; 'I' for Inactive)
REMARK    1  A    between atoms: C_1  and  C_2
REMARK    2  A    between atoms: C_2  and  N_3
REMARK    3  A    between atoms: N_3  and  C_4
REMARK    4  A    between atoms: C_7  and  C_8
REMARK    5  A    between atoms: C_12  and  C_13
REMARK    6  A    between atoms: C_14  and  C_15
REMARK    7  A    between atoms: C_15  and  O_16
REMARK    8  A    between atoms: O_16  and  C_17
REMARK    9  A    between atoms: C_21  and  C_22
REMARK                            x       y       z     vdW  Elec       q    Type
REMARK                         _______ _______ _______ _____ _____    ______ ____
ROOT
ATOM      1  C   UNL     1      47.288   4.717  14.671  0.00  0.00    +0.000 A 
ATOM      2  N   UNL     1      48.161   5.627  15.163  0.00  0.00    +0.000 NA
ATOM      3  C   UNL     1      48.362   6.774  14.466  0.00  0.00    +0.000 A 
ATOM      4  C   UNL     1      47.737   7.079  13.273  0.00  0.00    +0.000 A 
ATOM      5  C   UNL     1      46.860   6.129  12.756  0.00  0.00    +0.000 A 
ATOM      6  C   UNL     1      46.616   4.933  13.448  0.00  0.00    +0.000 A 
ENDROOT
BRANCH   4   7
ATOM      7  C   UNL     1      47.932   8.352  12.530  0.00  0.00    +0.000 C 
ATOM      8  N   UNL     1      49.115   9.016  12.638  0.00  0.00    +0.000 N 
ATOM      9  O   UNL     1      47.036   8.818  11.834  0.00  0.00    +0.000 OA
ATOM     10  H   UNL     1      49.913   8.732  13.189  0.00  0.00    +0.000 HD
ATOM     11  H   UNL     1      49.191   9.884  12.124  0.00  0.00    +0.000 HD
ENDBRANCH   4   7
BRANCH   1  12
ATOM     12  N   UNL     1      47.110   3.501  15.371  0.00  0.00    +0.000 N 
ATOM     13  H   UNL     1      46.116   3.315  15.465  0.00  0.00    +0.000 HD
BRANCH  12  15
ATOM     14  C   UNL     1      48.800   2.393  16.728  0.00  0.00    +0.000 C 
ATOM     15  C   UNL     1      47.747   3.490  16.686  0.00  0.00    +0.000 C 
ENDBRANCH  12  15
ENDBRANCH   1  12
BRANCH   6  16
ATOM     16  C   UNL     1      45.682   3.946  12.883  0.00  0.00    +0.000 C 
ATOM     17  C   UNL     1      45.047   4.085  11.708  0.00  0.00    +0.000 C 
BRANCH  17  18
ATOM     18  C   UNL     1      44.127   3.037  11.168  0.00  0.00    +0.000 C 
BRANCH  18  19
ATOM     19  O   UNL     1      43.831   3.351   9.810  0.00  0.00    +0.000 OA
BRANCH  19  20
ATOM     20  C   UNL     1      44.864   3.173   8.927  0.00  0.00    +0.000 A 
ATOM     21  C   UNL     1      45.498   4.191   8.212  0.00  0.00    +0.000 A 
ATOM     22  C   UNL     1      46.544   3.894   7.340  0.00  0.00    +0.000 A 
ATOM     23  C   UNL     1      46.963   2.576   7.175  0.00  0.00    +0.000 A 
ATOM     24  C   UNL     1      46.340   1.544   7.882  0.00  0.00    +0.000 A 
ATOM     25  C   UNL     1      46.782   0.121   7.709  0.00  0.00    +0.000 C 
ATOM     26  C   UNL     1      45.288   1.851   8.756  0.00  0.00    +0.000 A 
ENDBRANCH  19  20
ENDBRANCH  18  19
ENDBRANCH  17  18
ENDBRANCH   6  16
TORSDOF 7
ENDMDL
MODEL 2
REMARK VINA RESULT:    -7.347      1.967      3.736
REMARK INTER + INTRA:         -11.181
REMARK INTER:                 -10.176
REMARK INTRA:                  -1.006
REMARK UNBOUND:                -0.827
REMARK  Name = 
REMARK  9 active torsions:
REMARK  status: ('A' for Active; 'I' for Inactive)
REMARK    1  A    between atoms: C_1  and  C_2
REMARK    2  A    between atoms: C_2  and  N_3
REMARK    3  A    between atoms: N_3  and  C_4
REMARK    4  A    between atoms: C_7  and  C_8
REMARK    5  A    between atoms: C_12  and  C_13
REMARK    6  A    between atoms: C_14  and  C_15
REMARK    7  A    between atoms: C_15  and  O_16
REMARK    8  A    between atoms: O_16  and  C_17
REMARK    9  A    between atoms: C_21  and  C_22
REMARK                            x       y       z     vdW  Elec       q    Type
REMARK                         _______ _______ _______ _____ _____    ______ ____
ROOT
ATOM      1  C   UNL     1      47.544   6.366  13.359  0.00  0.00    +0.000 A 
ATOM      2  N   UNL     1      48.481   6.505  14.326  0.00  0.00    +0.000 NA
ATOM      3  C   UNL     1      48.436   5.669  15.395  0.00  0.00    +0.000 A 
ATOM      4  C   UNL     1      47.485   4.682  15.572  0.00  0.00    +0.000 A 
ATOM      5  C   UNL     1      46.508   4.561  14.589  0.00  0.00    +0.000 A 
ATOM      6  C   UNL     1      46.523   5.397  13.462  0.00  0.00    +0.000 A 
ENDROOT
BRANCH   4   7
ATOM      7  C   UNL     1      47.459   3.747  16.727  0.00  0.00    +0.000 C 
ATOM      8  N   UNL     1      48.617   3.455  17.379  0.00  0.00    +0.000 N 
ATOM      9  O   UNL     1      46.410   3.224  17.089  0.00  0.00    +0.000 OA
ATOM     10  H   UNL     1      49.535   3.817  17.161  0.00  0.00    +0.000 HD
ATOM     11  H   UNL     1      48.547   2.803  18.149  0.00  0.00    +0.000 HD
ENDBRANCH   4   7
BRANCH   1  12
ATOM     12  N   UNL     1      47.562   7.262  12.265  0.00  0.00    +0.000 N 
ATOM     13  H   UNL     1      48.445   7.167  11.773  0.00  0.00    +0.000 HD
BRANCH  12  15
ATOM     14  C   UNL     1      45.875   8.996  12.535  0.00  0.00    +0.000 C 
ATOM     15  C   UNL     1      47.353   8.655  12.653  0.00  0.00    +0.000 C 
ENDBRANCH  12  15
ENDBRANCH   1  12
BRANCH   6  16
ATOM     16  C   UNL     1      45.480   5.247  12.434  0.00  0.00    +0.000 C 
ATOM     17  C   UNL     1      44.692   4.167  12.301  0.00  0.00    +0.000 C 
BRANCH  17  18
ATOM     18  C   UNL     1      43.629   4.078  11.253  0.00  0.00    +0.000 C 
BRANCH  18  19
ATOM     19  O   UNL     1      43.847   2.895  10.489  0.00  0.00    +0.000 OA
BRANCH  19  20
ATOM     20  C   UNL     1      44.727   3.023   9.446  0.00  0.00    +0.000 A 
ATOM     21  C   UNL     1      45.049   4.222   8.807  0.00  0.00    +0.000 A 
ATOM     22  C   UNL     1      45.963   4.237   7.756  0.00  0.00    +0.000 A 
ATOM     23  C   UNL     1      46.561   3.052   7.333  0.00  0.00    +0.000 A 
ATOM     24  C   UNL     1      46.250   1.842   7.961  0.00  0.00    +0.000 A 
ATOM     25  C   UNL     1      46.887   0.561   7.511  0.00  0.00    +0.000 C 
ATOM     26  C   UNL     1      45.328   1.836   9.017  0.00  0.00    +0.000 A 
ENDBRANCH  19  20
ENDBRANCH  18  19
ENDBRANCH  17  18
ENDBRANCH   6  16
TORSDOF 7
ENDMDL
MODEL 3
REMARK VINA RESULT:    -7.238      2.632      4.209
REMARK INTER + INTRA:         -11.027
REMARK INTER:                 -10.296
REMARK INTRA:                  -0.731
REMARK UNBOUND:                -0.827
REMARK  Name = 
REMARK  9 active torsions:
REMARK  status: ('A' for Active; 'I' for Inactive)
REMARK    1  A    between atoms: C_1  and  C_2
REMARK    2  A    between atoms: C_2  and  N_3
REMARK    3  A    between atoms: N_3  and  C_4
REMARK    4  A    between atoms: C_7  and  C_8
REMARK    5  A    between atoms: C_12  and  C_13
REMARK    6  A    between atoms: C_14  and  C_15
REMARK    7  A    between atoms: C_15  and  O_16
REMARK    8  A    between atoms: O_16  and  C_17
REMARK    9  A    between atoms: C_21  and  C_22
REMARK                            x       y       z     vdW  Elec       q    Type
REMARK                         _______ _______ _______ _____ _____    ______ ____
ROOT
ATOM      1  C   UNL     1      45.389   8.059  12.033  0.00  0.00    +0.000 A 
ATOM      2  N   UNL     1      45.940   8.896  12.943  0.00  0.00    +0.000 NA
ATOM      3  C   UNL     1      47.158   8.584  13.456  0.00  0.00    +0.000 A 
ATOM      4  C   UNL     1      47.878   7.454  13.117  0.00  0.00    +0.000 A 
ATOM      5  C   UNL     1      47.296   6.583  12.202  0.00  0.00    +0.000 A 
ATOM      6  C   UNL     1      46.043   6.871  11.639  0.00  0.00    +0.000 A 
ENDROOT
BRANCH   4   7
ATOM      7  C   UNL     1      49.226   7.133  13.654  0.00  0.00    +0.000 C 
ATOM      8  N   UNL     1      50.332   7.471  12.935  0.00  0.00    +0.000 N 
ATOM      9  O   UNL     1      49.354   6.554  14.728  0.00  0.00    +0.000 OA
ATOM     10  H   UNL     1      50.344   7.936  12.039  0.00  0.00    +0.000 HD
ATOM     11  H   UNL     1      51.224   7.217  13.339  0.00  0.00    +0.000 HD
ENDBRANCH   4   7
BRANCH   1  12
ATOM     12  N   UNL     1      44.102   8.358  11.530  0.00  0.00    +0.000 N 
ATOM     13  H   UNL     1      43.897   7.739  10.752  0.00  0.00    +0.000 HD
BRANCH  12  15
ATOM     14  C   UNL     1      42.655   9.907  10.332  0.00  0.00    +0.000 C 
ATOM     15  C   UNL     1      43.950   9.751  11.115  0.00  0.00    +0.000 C 
ENDBRANCH  12  15
ENDBRANCH   1  12
BRANCH   6  16
ATOM     16  C   UNL     1      45.449   5.935  10.672  0.00  0.00    +0.000 C 
ATOM     17  C   UNL     1      44.611   4.937  10.994  0.00  0.00    +0.000 C 
BRANCH  17  18
ATOM     18  C   UNL     1      44.016   4.029   9.966  0.00  0.00    +0.000 C 
BRANCH  18  19
ATOM     19  O   UNL     1      44.664   4.271   8.720  0.00  0.00    +0.000 OA
BRANCH  19  20
ATOM     20  C   UNL     1      45.390   3.220   8.222  0.00  0.00    +0.000 A 
ATOM     21  C   UNL     1      45.449   1.943   8.784  0.00  0.00    +0.000 A 
ATOM     22  C   UNL     1      46.220   0.946   8.190  0.00  0.00    +0.000 A 
ATOM     23  C   UNL     1      46.940   1.218   7.030  0.00  0.00    +0.000 A 
ATOM     24  C   UNL     1      46.894   2.491   6.453  0.00  0.00    +0.000 A 
ATOM     25  C   UNL     1      47.669   2.795   5.205  0.00  0.00    +0.000 C 
ATOM     26  C   UNL     1      46.117   3.489   7.058  0.00  0.00    +0.000 A 
ENDBRANCH  19  20
ENDBRANCH  18  19
ENDBRANCH  17  18
ENDBRANCH   6  16
TORSDOF 7
ENDMDL
MODEL 4
REMARK VINA RESULT:    -6.960      1.964      2.384
REMARK INTER + INTRA:         -10.635
REMARK INTER:                  -9.787
REMARK INTRA:                  -0.848
REMARK UNBOUND:                -0.827
REMARK  Name = 
REMARK  9 active torsions:
REMARK  status: ('A' for Active; 'I' for Inactive)
REMARK    1  A    between atoms: C_1  and  C_2
REMARK    2  A    between atoms: C_2  and  N_3
REMARK    3  A    between atoms: N_3  and  C_4
REMARK    4  A    between atoms: C_7  and  C_8
REMARK    5  A    between atoms: C_12  and  C_13
REMARK    6  A    between atoms: C_14  and  C_15
REMARK    7  A    between atoms: C_15  and  O_16
REMARK    8  A    between atoms: O_16  and  C_17
REMARK    9  A    between atoms: C_21  and  C_22
REMARK                            x       y       z     vdW  Elec       q    Type
REMARK                         _______ _______ _______ _____ _____    ______ ____
ROOT
ATOM      1  C   UNL     1      47.020   6.801  13.263  0.00  0.00    +0.000 A 
ATOM      2  N   UNL     1      47.318   8.110  13.435  0.00  0.00    +0.000 NA
ATOM      3  C   UNL     1      46.498   9.039  12.880  0.00  0.00    +0.000 A 
ATOM      4  C   UNL     1      45.373   8.738  12.137  0.00  0.00    +0.000 A 
ATOM      5  C   UNL     1      45.085   7.391  11.940  0.00  0.00    +0.000 A 
ATOM      6  C   UNL     1      45.901   6.398  12.504  0.00  0.00    +0.000 A 
ENDROOT
BRANCH   4   7
ATOM      7  C   UNL     1      44.457   9.758  11.561  0.00  0.00    +0.000 C 
ATOM      8  N   UNL     1      43.801   9.489  10.399  0.00  0.00    +0.000 N 
ATOM      9  O   UNL     1      44.299  10.844  12.110  0.00  0.00    +0.000 OA
ATOM     10  H   UNL     1      43.865   8.637   9.859  0.00  0.00    +0.000 HD
ATOM     11  H   UNL     1      43.201  10.221  10.043  0.00  0.00    +0.000 HD
ENDBRANCH   4   7
BRANCH   1  12
ATOM     12  N   UNL     1      47.896   5.830  13.802  0.00  0.00    +0.000 N 
ATOM     13  H   UNL     1      47.770   4.955  13.303  0.00  0.00    +0.000 HD
BRANCH  12  15
ATOM     14  C   UNL     1      47.455   4.143  15.501  0.00  0.00    +0.000 C 
ATOM     15  C   UNL     1      47.716   5.619  15.237  0.00  0.00    +0.000 C 
ENDBRANCH  12  15
ENDBRANCH   1  12
BRANCH   6  16
ATOM     16  C   UNL     1      45.574   4.980  12.283  0.00  0.00    +0.000 C 
ATOM     17  C   UNL     1      44.451   4.541  11.690  0.00  0.00    +0.000 C 
BRANCH  17  18
ATOM     18  C   UNL     1      44.181   3.087  11.468  0.00  0.00    +0.000 C 
BRANCH  18  19
ATOM     19  O   UNL     1      43.735   2.910  10.127  0.00  0.00    +0.000 OA
BRANCH  19  20
ATOM     20  C   UNL     1      44.722   2.900   9.176  0.00  0.00    +0.000 A 
ATOM     21  C   UNL     1      45.202   4.024   8.501  0.00  0.00    +0.000 A 
ATOM     22  C   UNL     1      46.214   3.897   7.553  0.00  0.00    +0.000 A 
ATOM     23  C   UNL     1      46.753   2.645   7.268  0.00  0.00    +0.000 A 
ATOM     24  C   UNL     1      46.283   1.508   7.932  0.00  0.00    +0.000 A 
ATOM     25  C   UNL     1      46.855   0.155   7.631  0.00  0.00    +0.000 C 
ATOM     26  C   UNL     1      45.264   1.644   8.885  0.00  0.00    +0.000 A 
ENDBRANCH  19  20
ENDBRANCH  18  19
ENDBRANCH  17  18
ENDBRANCH   6  16
TORSDOF 7
ENDMDL
MODEL 5
REMARK VINA RESULT:    -6.691      2.114      4.254
REMARK INTER + INTRA:         -10.257
REMARK INTER:                  -9.202
REMARK INTRA:                  -1.054
REMARK UNBOUND:                -0.827
REMARK  Name = 
REMARK  9 active torsions:
REMARK  status: ('A' for Active; 'I' for Inactive)
REMARK    1  A    between atoms: C_1  and  C_2
REMARK    2  A    between atoms: C_2  and  N_3
REMARK    3  A    between atoms: N_3  and  C_4
REMARK    4  A    between atoms: C_7  and  C_8
REMARK    5  A    between atoms: C_12  and  C_13
REMARK    6  A    between atoms: C_14  and  C_15
REMARK    7  A    between atoms: C_15  and  O_16
REMARK    8  A    between atoms: O_16  and  C_17
REMARK    9  A    between atoms: C_21  and  C_22
REMARK                            x       y       z     vdW  Elec       q    Type
REMARK                         _______ _______ _______ _____ _____    ______ ____
ROOT
ATOM      1  C   UNL     1      48.343   6.629  14.232  0.00  0.00    +0.000 A 
ATOM      2  N   UNL     1      48.986   6.562  15.422  0.00  0.00    +0.000 NA
ATOM      3  C   UNL     1      48.706   5.524  16.251  0.00  0.00    +0.000 A 
ATOM      4  C   UNL     1      47.794   4.525  15.966  0.00  0.00    +0.000 A 
ATOM      5  C   UNL     1      47.116   4.613  14.755  0.00  0.00    +0.000 A 
ATOM      6  C   UNL     1      47.381   5.664  13.863  0.00  0.00    +0.000 A 
ENDROOT
BRANCH   4   7
ATOM      7  C   UNL     1      47.515   3.372  16.861  0.00  0.00    +0.000 C 
ATOM      8  N   UNL     1      48.526   2.525  17.198  0.00  0.00    +0.000 N 
ATOM      9  O   UNL     1      46.383   3.165  17.286  0.00  0.00    +0.000 OA
ATOM     10  H   UNL     1      49.488   2.592  16.899  0.00  0.00    +0.000 HD
ATOM     11  H   UNL     1      48.280   1.749  17.798  0.00  0.00    +0.000 HD
ENDBRANCH   4   7
BRANCH   1  12
ATOM     12  N   UNL     1      48.600   7.732  13.385  0.00  0.00    +0.000 N 
ATOM     13  H   UNL     1      49.597   7.924  13.383  0.00  0.00    +0.000 HD
BRANCH  12  15
ATOM     14  C   UNL     1      47.192   9.521  12.522  0.00  0.00    +0.000 C 
ATOM     15  C   UNL     1      47.859   8.935  13.758  0.00  0.00    +0.000 C 
ENDBRANCH  12  15
ENDBRANCH   1  12
BRANCH   6  16
ATOM     16  C   UNL     1      46.652   5.733  12.586  0.00  0.00    +0.000 C 
ATOM     17  C   UNL     1      45.417   6.238  12.441  0.00  0.00    +0.000 C 
BRANCH  17  18
ATOM     18  C   UNL     1      44.732   6.307  11.114  0.00  0.00    +0.000 C 
BRANCH  18  19
ATOM     19  O   UNL     1      43.892   5.164  10.979  0.00  0.00    +0.000 OA
BRANCH  19  20
ATOM     20  C   UNL     1      44.378   4.171  10.169  0.00  0.00    +0.000 A 
ATOM     21  C   UNL     1      44.069   2.814  10.283  0.00  0.00    +0.000 A 
ATOM     22  C   UNL     1      44.620   1.889   9.399  0.00  0.00    +0.000 A 
ATOM     23  C   UNL     1      45.488   2.312   8.395  0.00  0.00    +0.000 A 
ATOM     24  C   UNL     1      45.810   3.667   8.266  0.00  0.00    +0.000 A 
ATOM     25  C   UNL     1      46.745   4.132   7.190  0.00  0.00    +0.000 C 
ATOM     26  C   UNL     1      45.251   4.591   9.160  0.00  0.00    +0.000 A 
ENDBRANCH  19  20
ENDBRANCH  18  19
ENDBRANCH  17  18
ENDBRANCH   6  16
TORSDOF 7
ENDMDL
MODEL 6
REMARK VINA RESULT:    -6.606      3.686      7.043
REMARK INTER + INTRA:         -10.137
REMARK INTER:                  -9.352
REMARK INTRA:                  -0.785
REMARK UNBOUND:                -0.827
REMARK  Name = 
REMARK  9 active torsions:
REMARK  status: ('A' for Active; 'I' for Inactive)
REMARK    1  A    between atoms: C_1  and  C_2
REMARK    2  A    between atoms: C_2  and  N_3
REMARK    3  A    between atoms: N_3  and  C_4
REMARK    4  A    between atoms: C_7  and  C_8
REMARK    5  A    between atoms: C_12  and  C_13
REMARK    6  A    between atoms: C_14  and  C_15
REMARK    7  A    between atoms: C_15  and  O_16
REMARK    8  A    between atoms: O_16  and  C_17
REMARK    9  A    between atoms: C_21  and  C_22
REMARK                            x       y       z     vdW  Elec       q    Type
REMARK                         _______ _______ _______ _____ _____    ______ ____
ROOT
ATOM      1  C   UNL     1      44.424   3.164   9.860  0.00  0.00    +0.000 A 
ATOM      2  N   UNL     1      44.544   1.914   9.355  0.00  0.00    +0.000 NA
ATOM      3  C   UNL     1      45.458   1.697   8.375  0.00  0.00    +0.000 A 
ATOM      4  C   UNL     1      46.277   2.674   7.845  0.00  0.00    +0.000 A 
ATOM      5  C   UNL     1      46.132   3.964   8.348  0.00  0.00    +0.000 A 
ATOM      6  C   UNL     1      45.207   4.231   9.368  0.00  0.00    +0.000 A 
ENDROOT
BRANCH   4   7
ATOM      7  C   UNL     1      47.301   2.426   6.796  0.00  0.00    +0.000 C 
ATOM      8  N   UNL     1      47.288   3.170   5.657  0.00  0.00    +0.000 N 
ATOM      9  O   UNL     1      48.147   1.548   6.937  0.00  0.00    +0.000 OA
ATOM     10  H   UNL     1      46.634   3.907   5.430  0.00  0.00    +0.000 HD
ATOM     11  H   UNL     1      47.997   2.952   4.969  0.00  0.00    +0.000 HD
ENDBRANCH   4   7
BRANCH   1  12
ATOM     12  N   UNL     1      43.443   3.403  10.850  0.00  0.00    +0.000 N 
ATOM     13  H   UNL     1      43.203   4.390  10.847  0.00  0.00    +0.000 HD
BRANCH  12  15
ATOM     14  C   UNL     1      43.472   4.071  13.191  0.00  0.00    +0.000 C 
ATOM     15  C   UNL     1      43.858   2.992  12.190  0.00  0.00    +0.000 C 
ENDBRANCH  12  15
ENDBRANCH   1  12
BRANCH   6  16
ATOM     16  C   UNL     1      45.074   5.603   9.885  0.00  0.00    +0.000 C 
ATOM     17  C   UNL     1      45.644   6.049  11.016  0.00  0.00    +0.000 C 
BRANCH  17  18
ATOM     18  C   UNL     1      45.497   7.461  11.482  0.00  0.00    +0.000 C 
BRANCH  18  19
ATOM     19  O   UNL     1      46.450   7.699  12.514  0.00  0.00    +0.000 OA
BRANCH  19  20
ATOM     20  C   UNL     1      47.514   8.487  12.161  0.00  0.00    +0.000 A 
ATOM     21  C   UNL     1      47.508   9.884  12.135  0.00  0.00    +0.000 A 
ATOM     22  C   UNL     1      48.652  10.586  11.761  0.00  0.00    +0.000 A 
ATOM     23  C   UNL     1      49.810   9.898  11.408  0.00  0.00    +0.000 A 
ATOM     24  C   UNL     1      49.834   8.500  11.427  0.00  0.00    +0.000 A 
ATOM     25  C   UNL     1      51.076   7.751  11.046  0.00  0.00    +0.000 C 
ATOM     26  C   UNL     1      48.679   7.801  11.803  0.00  0.00    +0.000 A 
ENDBRANCH  19  20
ENDBRANCH  18  19
ENDBRANCH  17  18
ENDBRANCH   6  16
TORSDOF 7
ENDMDL
MODEL 7
REMARK VINA RESULT:    -6.547      1.464      2.083
REMARK INTER + INTRA:         -10.053
REMARK INTER:                  -9.113
REMARK INTRA:                  -0.940
REMARK UNBOUND:                -0.827
REMARK  Name = 
REMARK  9 active torsions:
REMARK  status: ('A' for Active; 'I' for Inactive)
REMARK    1  A    between atoms: C_1  and  C_2
REMARK    2  A    between atoms: C_2  and  N_3
REMARK    3  A    between atoms: N_3  and  C_4
REMARK    4  A    between atoms: C_7  and  C_8
REMARK    5  A    between atoms: C_12  and  C_13
REMARK    6  A    between atoms: C_14  and  C_15
REMARK    7  A    between atoms: C_15  and  O_16
REMARK    8  A    between atoms: O_16  and  C_17
REMARK    9  A    between atoms: C_21  and  C_22
REMARK                            x       y       z     vdW  Elec       q    Type
REMARK                         _______ _______ _______ _____ _____    ______ ____
ROOT
ATOM      1  C   UNL     1      47.711   5.676  14.838  0.00  0.00    +0.000 A 
ATOM      2  N   UNL     1      48.828   6.264  15.326  0.00  0.00    +0.000 NA
ATOM      3  C   UNL     1      49.556   7.058  14.499  0.00  0.00    +0.000 A 
ATOM      4  C   UNL     1      49.237   7.305  13.178  0.00  0.00    +0.000 A 
ATOM      5  C   UNL     1      48.103   6.677  12.672  0.00  0.00    +0.000 A 
ATOM      6  C   UNL     1      47.316   5.856  13.494  0.00  0.00    +0.000 A 
ENDROOT
BRANCH   4   7
ATOM      7  C   UNL     1      50.017   8.202  12.286  0.00  0.00    +0.000 C 
ATOM      8  N   UNL     1      50.431   9.413  12.749  0.00  0.00    +0.000 N 
ATOM      9  O   UNL     1      50.278   7.871  11.133  0.00  0.00    +0.000 OA
ATOM     10  H   UNL     1      50.264   9.790  13.671  0.00  0.00    +0.000 HD
ATOM     11  H   UNL     1      50.946   9.990  12.097  0.00  0.00    +0.000 HD
ENDBRANCH   4   7
BRANCH   1  12
ATOM     12  N   UNL     1      46.974   4.814  15.683  0.00  0.00    +0.000 N 
ATOM     13  H   UNL     1      46.701   5.322  16.519  0.00  0.00    +0.000 HD
BRANCH  12  15
ATOM     14  C   UNL     1      47.269   3.153  17.438  0.00  0.00    +0.000 C 
ATOM     15  C   UNL     1      47.702   3.601  16.050  0.00  0.00    +0.000 C 
ENDBRANCH  12  15
ENDBRANCH   1  12
BRANCH   6  16
ATOM     16  C   UNL     1      46.119   5.205  12.936  0.00  0.00    +0.000 C 
ATOM     17  C   UNL     1      44.984   5.847  12.614  0.00  0.00    +0.000 C 
BRANCH  17  18
ATOM     18  C   UNL     1      43.806   5.140  12.026  0.00  0.00    +0.000 C 
BRANCH  18  19
ATOM     19  O   UNL     1      43.858   5.275  10.608  0.00  0.00    +0.000 OA
BRANCH  19  20
ATOM     20  C   UNL     1      44.376   4.199   9.935  0.00  0.00    +0.000 A 
ATOM     21  C   UNL     1      44.112   2.860  10.232  0.00  0.00    +0.000 A 
ATOM     22  C   UNL     1      44.693   1.843   9.476  0.00  0.00    +0.000 A 
ATOM     23  C   UNL     1      45.545   2.157   8.420  0.00  0.00    +0.000 A 
ATOM     24  C   UNL     1      45.822   3.492   8.110  0.00  0.00    +0.000 A 
ATOM     25  C   UNL     1      46.741   3.839   6.977  0.00  0.00    +0.000 C 
ATOM     26  C   UNL     1      45.234   4.508   8.876  0.00  0.00    +0.000 A 
ENDBRANCH  19  20
ENDBRANCH  18  19
ENDBRANCH  17  18
ENDBRANCH   6  16
TORSDOF 7
ENDMDL
MODEL 8
REMARK VINA RESULT:    -6.446      3.120      7.719
REMARK INTER + INTRA:          -9.911
REMARK INTER:                  -9.257
REMARK INTRA:                  -0.654
REMARK UNBOUND:                -0.827
REMARK  Name = 
REMARK  9 active torsions:
REMARK  status: ('A' for Active; 'I' for Inactive)
REMARK    1  A    between atoms: C_1  and  C_2
REMARK    2  A    between atoms: C_2  and  N_3
REMARK    3  A    between atoms: N_3  and  C_4
REMARK    4  A    between atoms: C_7  and  C_8
REMARK    5  A    between atoms: C_12  and  C_13
REMARK    6  A    between atoms: C_14  and  C_15
REMARK    7  A    between atoms: C_15  and  O_16
REMARK    8  A    between atoms: O_16  and  C_17
REMARK    9  A    between atoms: C_21  and  C_22
REMARK                            x       y       z     vdW  Elec       q    Type
REMARK                         _______ _______ _______ _____ _____    ______ ____
ROOT
ATOM      1  C   UNL     1      46.655   6.020  12.563  0.00  0.00    +0.000 A 
ATOM      2  N   UNL     1      46.196   6.191  11.301  0.00  0.00    +0.000 NA
ATOM      3  C   UNL     1      45.398   5.230  10.768  0.00  0.00    +0.000 A 
ATOM      4  C   UNL     1      45.026   4.074  11.426  0.00  0.00    +0.000 A 
ATOM      5  C   UNL     1      45.522   3.890  12.713  0.00  0.00    +0.000 A 
ATOM      6  C   UNL     1      46.342   4.862  13.307  0.00  0.00    +0.000 A 
ENDROOT
BRANCH   4   7
ATOM      7  C   UNL     1      44.125   3.041  10.851  0.00  0.00    +0.000 C 
ATOM      8  N   UNL     1      44.566   2.261   9.827  0.00  0.00    +0.000 N 
ATOM      9  O   UNL     1      42.983   2.894  11.277  0.00  0.00    +0.000 OA
ATOM     10  H   UNL     1      45.477   2.303   9.393  0.00  0.00    +0.000 HD
ATOM     11  H   UNL     1      43.910   1.583   9.464  0.00  0.00    +0.000 HD
ENDBRANCH   4   7
BRANCH   1  12
ATOM     12  N   UNL     1      47.521   6.997  13.107  0.00  0.00    +0.000 N 
ATOM     13  H   UNL     1      47.177   7.920  12.859  0.00  0.00    +0.000 HD
BRANCH  12  15
ATOM     14  C   UNL     1      49.246   7.941  11.671  0.00  0.00    +0.000 C 
ATOM     15  C   UNL     1      48.909   6.848  12.674  0.00  0.00    +0.000 C 
ENDBRANCH  12  15
ENDBRANCH   1  12
BRANCH   6  16
ATOM     16  C   UNL     1      46.852   4.644  14.670  0.00  0.00    +0.000 C 
ATOM     17  C   UNL     1      47.384   3.492  15.110  0.00  0.00    +0.000 C 
BRANCH  17  18
ATOM     18  C   UNL     1      47.911   3.334  16.500  0.00  0.00    +0.000 C 
BRANCH  18  19
ATOM     19  O   UNL     1      48.860   2.271  16.505  0.00  0.00    +0.000 OA
BRANCH  19  20
ATOM     20  C   UNL     1      50.066   2.564  17.085  0.00  0.00    +0.000 A 
ATOM     21  C   UNL     1      50.436   3.813  17.589  0.00  0.00    +0.000 A 
ATOM     22  C   UNL     1      51.692   3.998  18.163  0.00  0.00    +0.000 A 
ATOM     23  C   UNL     1      52.590   2.937  18.235  0.00  0.00    +0.000 A 
ATOM     24  C   UNL     1      52.238   1.679  17.734  0.00  0.00    +0.000 A 
ATOM     25  C   UNL     1      53.200   0.531  17.805  0.00  0.00    +0.000 C 
ATOM     26  C   UNL     1      50.973   1.502  17.158  0.00  0.00    +0.000 A 
ENDBRANCH  19  20
ENDBRANCH  18  19
ENDBRANCH  17  18
ENDBRANCH   6  16
TORSDOF 7
ENDMDL
MODEL 9
REMARK VINA RESULT:    -6.156      3.001      7.832
REMARK INTER + INTRA:          -9.503
REMARK INTER:                  -8.191
REMARK INTRA:                  -1.311
REMARK UNBOUND:                -0.827
REMARK  Name = 
REMARK  9 active torsions:
REMARK  status: ('A' for Active; 'I' for Inactive)
REMARK    1  A    between atoms: C_1  and  C_2
REMARK    2  A    between atoms: C_2  and  N_3
REMARK    3  A    between atoms: N_3  and  C_4
REMARK    4  A    between atoms: C_7  and  C_8
REMARK    5  A    between atoms: C_12  and  C_13
REMARK    6  A    between atoms: C_14  and  C_15
REMARK    7  A    between atoms: C_15  and  O_16
REMARK    8  A    between atoms: O_16  and  C_17
REMARK    9  A    between atoms: C_21  and  C_22
REMARK                            x       y       z     vdW  Elec       q    Type
REMARK                         _______ _______ _______ _____ _____    ______ ____
ROOT
ATOM      1  C   UNL     1      45.977   6.015  12.965  0.00  0.00    +0.000 A 
ATOM      2  N   UNL     1      45.077   6.294  11.993  0.00  0.00    +0.000 NA
ATOM      3  C   UNL     1      44.440   5.260  11.385  0.00  0.00    +0.000 A 
ATOM      4  C   UNL     1      44.655   3.929  11.686  0.00  0.00    +0.000 A 
ATOM      5  C   UNL     1      45.600   3.646  12.667  0.00  0.00    +0.000 A 
ATOM      6  C   UNL     1      46.275   4.683  13.328  0.00  0.00    +0.000 A 
ENDROOT
BRANCH   4   7
ATOM      7  C   UNL     1      43.931   2.802  11.042  0.00  0.00    +0.000 C 
ATOM      8  N   UNL     1      44.433   2.244   9.907  0.00  0.00    +0.000 N 
ATOM      9  O   UNL     1      42.879   2.379  11.512  0.00  0.00    +0.000 OA
ATOM     10  H   UNL     1      45.280   2.518   9.429  0.00  0.00    +0.000 HD
ATOM     11  H   UNL     1      43.895   1.490   9.502  0.00  0.00    +0.000 HD
ENDBRANCH   4   7
BRANCH   1  12
ATOM     12  N   UNL     1      46.674   7.086  13.571  0.00  0.00    +0.000 N 
ATOM     13  H   UNL     1      46.006   7.701  14.026  0.00  0.00    +0.000 HD
BRANCH  12  15
ATOM     14  C   UNL     1      48.886   7.231  12.564  0.00  0.00    +0.000 C 
ATOM     15  C   UNL     1      47.496   7.847  12.632  0.00  0.00    +0.000 C 
ENDBRANCH  12  15
ENDBRANCH   1  12
BRANCH   6  16
ATOM     16  C   UNL     1      47.269   4.358  14.364  0.00  0.00    +0.000 C 
ATOM     17  C   UNL     1      46.981   4.165  15.661  0.00  0.00    +0.000 C 
BRANCH  17  18
ATOM     18  C   UNL     1      48.028   3.811  16.667  0.00  0.00    +0.000 C 
BRANCH  18  19
ATOM     19  O   UNL     1      49.042   4.811  16.636  0.00  0.00    +0.000 OA
BRANCH  19  20
ATOM     20  C   UNL     1      48.695   6.017  17.186  0.00  0.00    +0.000 A 
ATOM     21  C   UNL     1      48.165   6.196  18.466  0.00  0.00    +0.000 A 
ATOM     22  C   UNL     1      47.849   7.473  18.925  0.00  0.00    +0.000 A 
ATOM     23  C   UNL     1      48.057   8.581  18.108  0.00  0.00    +0.000 A 
ATOM     24  C   UNL     1      48.585   8.421  16.823  0.00  0.00    +0.000 A 
ATOM     25  C   UNL     1      48.811   9.608  15.935  0.00  0.00    +0.000 C 
ATOM     26  C   UNL     1      48.900   7.133  16.369  0.00  0.00    +0.000 A 
ENDBRANCH  19  20
ENDBRANCH  18  19
ENDBRANCH  17  18
ENDBRANCH   6  16
TORSDOF 7
ENDMDL
