MODEL 1
REMARK VINA RESULT:    -7.458      0.000      0.000
REMARK INTER + INTRA:          -9.088
REMARK INTER:                  -8.766
REMARK INTRA:                  -0.322
REMARK UNBOUND:                -0.322
REMARK  Name = 
REMARK  3 active torsions:
REMARK  status: ('A' for Active; 'I' for Inactive)
REMARK    1  A    between atoms: C_3  and  N_4
REMARK    2  A    between atoms: N_4  and  C_5
REMARK    3  A    between atoms: C_5  and  C_6
REMARK                            x       y       z     vdW  Elec       q    Type
REMARK                         _______ _______ _______ _____ _____    ______ ____
ROOT
ATOM      1  C   UNL     1      44.889   4.302  10.825  0.00  0.00    +0.000 A 
ATOM      2  C   UNL     1      44.789   3.169  11.594  0.00  0.00    +0.000 A 
ATOM      3  N   UNL     1      45.341   3.124  12.812  0.00  0.00    +0.000 NA
ATOM      4  N   UNL     1      46.017   4.227  13.250  0.00  0.00    +0.000 NA
ATOM      5  C   UNL     1      46.100   5.346  12.494  0.00  0.00    +0.000 A 
ATOM      6  N   UNL     1      46.868   6.410  12.915  0.00  0.00    +0.000 N 
ATOM      7  C   UNL     1      47.621   6.316  14.166  0.00  0.00    +0.000 C 
ATOM      8  C   UNL     1      49.002   6.966  14.003  0.00  0.00    +0.000 C 
ATOM      9  S   UNL     1      48.915   8.725  13.510  0.00  0.00    +0.000 S 
ATOM     10  C   UNL     1      47.773   8.538  12.091  0.00  0.00    +0.000 C 
ATOM     11  C   UNL     1      46.510   7.757  12.468  0.00  0.00    +0.000 C 
ATOM     12  N   UNL     1      45.527   5.411  11.276  0.00  0.00    +0.000 NA
ENDROOT
BRANCH   1  13
ATOM     13  C   UNL     1      44.330   4.307   9.419  0.00  0.00    +0.000 C 
BRANCH  13  14
ATOM     14  N   UNL     1      44.391   2.993   8.791  0.00  0.00    +0.000 N 
ATOM     15  H   UNL     1      43.799   2.271   9.191  0.00  0.00    +0.000 HD
BRANCH  14  18
ATOM     16  C   UNL     1      47.492   2.728   6.776  0.00  0.00    +0.000 A 
ATOM     17  C   UNL     1      46.392   3.311   7.392  0.00  0.00    +0.000 A 
ATOM     18  C   UNL     1      45.560   2.526   8.193  0.00  0.00    +0.000 A 
ATOM     19  C   UNL     1      45.862   1.165   8.283  0.00  0.00    +0.000 A 
ATOM     20  C   UNL     1      46.974   0.667   7.617  0.00  0.00    +0.000 A 
ATOM     21  N   UNL     1      47.806   1.423   6.874  0.00  0.00    +0.000 NA
ENDBRANCH  14  18
ENDBRANCH  13  14
ENDBRANCH   1  13
TORSDOF 3
ENDMDL
MODEL 2
REMARK VINA RESULT:    -7.133      1.089      1.245
REMARK INTER + INTRA:          -8.705
REMARK INTER:                  -8.403
REMARK INTRA:                  -0.302
REMARK UNBOUND:                -0.322
REMARK  Name = 
REMARK  3 active torsions:
REMARK  status: ('A' for Active; 'I' for Inactive)
REMARK    1  A    between atoms: C_3  and  N_4
REMARK    2  A    between atoms: N_4  and  C_5
REMARK    3  A    between atoms: C_5  and  C_6
REMARK                            x       y       z     vdW  Elec       q    Type
REMARK                         _______ _______ _______ _____ _____    ______ ____
ROOT
ATOM      1  C   UNL     1      44.723   4.469  11.851  0.00  0.00    +0.000 A 
ATOM      2  C   UNL     1      45.249   3.374  12.491  0.00  0.00    +0.000 A 
ATOM      3  N   UNL     1      46.251   3.515  13.366  0.00  0.00    +0.000 NA
ATOM      4  N   UNL     1      46.739   4.772  13.585  0.00  0.00    +0.000 NA
ATOM      5  C   UNL     1      46.207   5.849  12.962  0.00  0.00    +0.000 A 
ATOM      6  N   UNL     1      46.778   7.094  13.123  0.00  0.00    +0.000 N 
ATOM      7  C   UNL     1      47.981   7.243  13.943  0.00  0.00    +0.000 C 
ATOM      8  C   UNL     1      48.950   8.237  13.286  0.00  0.00    +0.000 C 
ATOM      9  S   UNL     1      48.214   9.892  13.028  0.00  0.00    +0.000 S 
ATOM     10  C   UNL     1      46.674   9.361  12.191  0.00  0.00    +0.000 C 
ATOM     11  C   UNL     1      45.933   8.280  12.983  0.00  0.00    +0.000 C 
ATOM     12  N   UNL     1      45.182   5.722  12.097  0.00  0.00    +0.000 NA
ENDROOT
BRANCH   1  13
ATOM     13  C   UNL     1      43.647   4.282  10.804  0.00  0.00    +0.000 C 
BRANCH  13  14
ATOM     14  N   UNL     1      44.126   4.568   9.457  0.00  0.00    +0.000 N 
ATOM     15  H   UNL     1      43.464   5.008   8.825  0.00  0.00    +0.000 HD
BRANCH  14  18
ATOM     16  C   UNL     1      46.868   3.329   7.291  0.00  0.00    +0.000 A 
ATOM     17  C   UNL     1      46.013   4.230   7.913  0.00  0.00    +0.000 A 
ATOM     18  C   UNL     1      45.078   3.761   8.837  0.00  0.00    +0.000 A 
ATOM     19  C   UNL     1      45.026   2.381   9.045  0.00  0.00    +0.000 A 
ATOM     20  C   UNL     1      45.910   1.553   8.364  0.00  0.00    +0.000 A 
ATOM     21  N   UNL     1      46.842   1.999   7.500  0.00  0.00    +0.000 NA
ENDBRANCH  14  18
ENDBRANCH  13  14
ENDBRANCH   1  13
TORSDOF 3
ENDMDL
MODEL 3
REMARK VINA RESULT:    -6.887      1.407      1.812
REMARK INTER + INTRA:          -8.416
REMARK INTER:                  -8.150
REMARK INTRA:                  -0.266
REMARK UNBOUND:                -0.322
REMARK  Name = 
REMARK  3 active torsions:
REMARK  status: ('A' for Active; 'I' for Inactive)
REMARK    1  A    between atoms: C_3  and  N_4
REMARK    2  A    between atoms: N_4  and  C_5
REMARK    3  A    between atoms: C_5  and  C_6
REMARK                            x       y       z     vdW  Elec       q    Type
REMARK                         _______ _______ _______ _____ _____    ______ ____
ROOT
ATOM      1  C   UNL     1      44.579   4.758  10.513  0.00  0.00    +0.000 A 
ATOM      2  C   UNL     1      43.299   5.165  10.798  0.00  0.00    +0.000 A 
ATOM      3  N   UNL     1      43.080   6.289  11.489  0.00  0.00    +0.000 NA
ATOM      4  N   UNL     1      44.166   7.001  11.913  0.00  0.00    +0.000 NA
ATOM      5  C   UNL     1      45.426   6.604  11.617  0.00  0.00    +0.000 A 
ATOM      6  N   UNL     1      46.507   7.283  12.137  0.00  0.00    +0.000 N 
ATOM      7  C   UNL     1      46.290   8.417  13.037  0.00  0.00    +0.000 C 
ATOM      8  C   UNL     1      47.316   8.389  14.179  0.00  0.00    +0.000 C 
ATOM      9  S   UNL     1      49.048   8.438  13.589  0.00  0.00    +0.000 S 
ATOM     10  C   UNL     1      48.941   7.081  12.366  0.00  0.00    +0.000 C 
ATOM     11  C   UNL     1      47.770   7.269  11.398  0.00  0.00    +0.000 C 
ATOM     12  N   UNL     1      45.656   5.486  10.901  0.00  0.00    +0.000 NA
ENDROOT
BRANCH   1  13
ATOM     13  C   UNL     1      44.809   3.442   9.802  0.00  0.00    +0.000 C 
BRANCH  13  14
ATOM     14  N   UNL     1      45.020   3.612   8.370  0.00  0.00    +0.000 N 
ATOM     15  H   UNL     1      44.201   3.841   7.815  0.00  0.00    +0.000 HD
BRANCH  14  18
ATOM     16  C   UNL     1      47.566   2.545   5.895  0.00  0.00    +0.000 A 
ATOM     17  C   UNL     1      46.654   3.367   6.545  0.00  0.00    +0.000 A 
ATOM     18  C   UNL     1      46.006   2.900   7.690  0.00  0.00    +0.000 A 
ATOM     19  C   UNL     1      46.283   1.591   8.089  0.00  0.00    +0.000 A 
ATOM     20  C   UNL     1      47.198   0.835   7.367  0.00  0.00    +0.000 A 
ATOM     21  N   UNL     1      47.857   1.289   6.283  0.00  0.00    +0.000 NA
ENDBRANCH  14  18
ENDBRANCH  13  14
ENDBRANCH   1  13
TORSDOF 3
ENDMDL
MODEL 4
REMARK VINA RESULT:    -6.689      2.531      3.679
REMARK INTER + INTRA:          -8.184
REMARK INTER:                  -7.987
REMARK INTRA:                  -0.197
REMARK UNBOUND:                -0.322
REMARK  Name = 
REMARK  3 active torsions:
REMARK  status: ('A' for Active; 'I' for Inactive)
REMARK    1  A    between atoms: C_3  and  N_4
REMARK    2  A    between atoms: N_4  and  C_5
REMARK    3  A    between atoms: C_5  and  C_6
REMARK                            x       y       z     vdW  Elec       q    Type
REMARK                         _______ _______ _______ _____ _____    ______ ____
ROOT
ATOM      1  C   UNL     1      45.476   4.437  12.662  0.00  0.00    +0.000 A 
ATOM      2  C   UNL     1      45.755   5.629  12.040  0.00  0.00    +0.000 A 
ATOM      3  N   UNL     1      46.653   6.473  12.561  0.00  0.00    +0.000 NA
ATOM      4  N   UNL     1      47.263   6.118  13.730  0.00  0.00    +0.000 NA
ATOM      5  C   UNL     1      46.994   4.936  14.332  0.00  0.00    +0.000 A 
ATOM      6  N   UNL     1      47.546   4.642  15.560  0.00  0.00    +0.000 N 
ATOM      7  C   UNL     1      48.399   5.626  16.229  0.00  0.00    +0.000 C 
ATOM      8  C   UNL     1      48.106   5.643  17.736  0.00  0.00    +0.000 C 
ATOM      9  S   UNL     1      48.359   4.016  18.535  0.00  0.00    +0.000 S 
ATOM     10  C   UNL     1      47.364   3.004  17.378  0.00  0.00    +0.000 C 
ATOM     11  C   UNL     1      47.763   3.240  15.918  0.00  0.00    +0.000 C 
ATOM     12  N   UNL     1      46.109   4.068  13.803  0.00  0.00    +0.000 NA
ENDROOT
BRANCH   1  13
ATOM     13  C   UNL     1      44.398   3.533  12.104  0.00  0.00    +0.000 C 
BRANCH  13  14
ATOM     14  N   UNL     1      44.018   3.894  10.744  0.00  0.00    +0.000 N 
ATOM     15  H   UNL     1      43.031   4.069  10.580  0.00  0.00    +0.000 HD
BRANCH  14  18
ATOM     16  C   UNL     1      45.833   1.700   8.370  0.00  0.00    +0.000 A 
ATOM     17  C   UNL     1      45.065   2.068   9.467  0.00  0.00    +0.000 A 
ATOM     18  C   UNL     1      44.716   3.409   9.640  0.00  0.00    +0.000 A 
ATOM     19  C   UNL     1      45.217   4.322   8.709  0.00  0.00    +0.000 A 
ATOM     20  C   UNL     1      45.993   3.864   7.652  0.00  0.00    +0.000 A 
ATOM     21  N   UNL     1      46.302   2.568   7.454  0.00  0.00    +0.000 NA
ENDBRANCH  14  18
ENDBRANCH  13  14
ENDBRANCH   1  13
TORSDOF 3
ENDMDL
MODEL 5
REMARK VINA RESULT:    -5.925      3.467      5.316
REMARK INTER + INTRA:          -7.286
REMARK INTER:                  -7.068
REMARK INTRA:                  -0.218
REMARK UNBOUND:                -0.322
REMARK  Name = 
REMARK  3 active torsions:
REMARK  status: ('A' for Active; 'I' for Inactive)
REMARK    1  A    between atoms: C_3  and  N_4
REMARK    2  A    between atoms: N_4  and  C_5
REMARK    3  A    between atoms: C_5  and  C_6
REMARK                            x       y       z     vdW  Elec       q    Type
REMARK                         _______ _______ _______ _____ _____    ______ ____
ROOT
ATOM      1  C   UNL     1      47.210   5.039  14.392  0.00  0.00    +0.000 A 
ATOM      2  C   UNL     1      47.218   3.698  14.097  0.00  0.00    +0.000 A 
ATOM      3  N   UNL     1      47.701   2.811  14.975  0.00  0.00    +0.000 NA
ATOM      4  N   UNL     1      48.198   3.285  16.155  0.00  0.00    +0.000 NA
ATOM      5  C   UNL     1      48.176   4.607  16.447  0.00  0.00    +0.000 A 
ATOM      6  N   UNL     1      48.771   5.072  17.600  0.00  0.00    +0.000 N 
ATOM      7  C   UNL     1      49.456   4.137  18.494  0.00  0.00    +0.000 C 
ATOM      8  C   UNL     1      50.747   4.771  19.033  0.00  0.00    +0.000 C 
ATOM      9  S   UNL     1      50.455   6.334  19.939  0.00  0.00    +0.000 S 
ATOM     10  C   UNL     1      49.431   7.175  18.677  0.00  0.00    +0.000 C 
ATOM     11  C   UNL     1      48.263   6.303  18.207  0.00  0.00    +0.000 C 
ATOM     12  N   UNL     1      47.669   5.505  15.580  0.00  0.00    +0.000 NA
ENDROOT
BRANCH   1  13
ATOM     13  C   UNL     1      46.737   6.033  13.354  0.00  0.00    +0.000 C 
BRANCH  13  14
ATOM     14  N   UNL     1      45.287   6.028  13.198  0.00  0.00    +0.000 N 
ATOM     15  H   UNL     1      44.743   6.313  14.007  0.00  0.00    +0.000 HD
BRANCH  14  18
ATOM     16  C   UNL     1      43.220   3.245  11.884  0.00  0.00    +0.000 A 
ATOM     17  C   UNL     1      43.739   4.157  12.794  0.00  0.00    +0.000 A 
ATOM     18  C   UNL     1      44.650   5.120  12.355  0.00  0.00    +0.000 A 
ATOM     19  C   UNL     1      45.029   5.071  11.012  0.00  0.00    +0.000 A 
ATOM     20  C   UNL     1      44.470   4.111  10.178  0.00  0.00    +0.000 A 
ATOM     21  N   UNL     1      43.561   3.203  10.582  0.00  0.00    +0.000 NA
ENDBRANCH  14  18
ENDBRANCH  13  14
ENDBRANCH   1  13
TORSDOF 3
ENDMDL
MODEL 6
REMARK VINA RESULT:    -5.785      3.482      7.254
REMARK INTER + INTRA:          -7.122
REMARK INTER:                  -6.706
REMARK INTRA:                  -0.416
REMARK UNBOUND:                -0.322
REMARK  Name = 
REMARK  3 active torsions:
REMARK  status: ('A' for Active; 'I' for Inactive)
REMARK    1  A    between atoms: C_3  and  N_4
REMARK    2  A    between atoms: N_4  and  C_5
REMARK    3  A    between atoms: C_5  and  C_6
REMARK                            x       y       z     vdW  Elec       q    Type
REMARK                         _______ _______ _______ _____ _____    ______ ____
ROOT
ATOM      1  C   UNL     1      48.542   7.218  13.963  0.00  0.00    +0.000 A 
ATOM      2  C   UNL     1      49.374   7.708  12.986  0.00  0.00    +0.000 A 
ATOM      3  N   UNL     1      49.017   7.652  11.698  0.00  0.00    +0.000 NA
ATOM      4  N   UNL     1      47.816   7.078  11.391  0.00  0.00    +0.000 NA
ATOM      5  C   UNL     1      46.994   6.609  12.358  0.00  0.00    +0.000 A 
ATOM      6  N   UNL     1      45.834   5.946  12.020  0.00  0.00    +0.000 N 
ATOM      7  C   UNL     1      45.507   5.723  10.611  0.00  0.00    +0.000 C 
ATOM      8  C   UNL     1      44.911   4.320  10.422  0.00  0.00    +0.000 C 
ATOM      9  S   UNL     1      43.403   4.041  11.419  0.00  0.00    +0.000 S 
ATOM     10  C   UNL     1      44.059   4.592  13.037  0.00  0.00    +0.000 C 
ATOM     11  C   UNL     1      44.707   5.977  12.954  0.00  0.00    +0.000 C 
ATOM     12  N   UNL     1      47.333   6.683  13.660  0.00  0.00    +0.000 NA
ENDROOT
BRANCH   1  13
ATOM     13  C   UNL     1      48.998   7.215  15.405  0.00  0.00    +0.000 C 
BRANCH  13  14
ATOM     14  N   UNL     1      48.148   6.391  16.256  0.00  0.00    +0.000 N 
ATOM     15  H   UNL     1      47.506   6.885  16.869  0.00  0.00    +0.000 HD
BRANCH  14  18
ATOM     16  C   UNL     1      50.165   3.657  17.739  0.00  0.00    +0.000 A 
ATOM     17  C   UNL     1      49.796   4.946  17.375  0.00  0.00    +0.000 A 
ATOM     18  C   UNL     1      48.576   5.153  16.731  0.00  0.00    +0.000 A 
ATOM     19  C   UNL     1      47.810   4.022  16.439  0.00  0.00    +0.000 A 
ATOM     20  C   UNL     1      48.268   2.768  16.826  0.00  0.00    +0.000 A 
ATOM     21  N   UNL     1      49.425   2.562  17.483  0.00  0.00    +0.000 NA
ENDBRANCH  14  18
ENDBRANCH  13  14
ENDBRANCH   1  13
TORSDOF 3
ENDMDL
MODEL 7
REMARK VINA RESULT:    -5.785      1.871      3.010
REMARK INTER + INTRA:          -7.121
REMARK INTER:                  -6.783
REMARK INTRA:                  -0.338
REMARK UNBOUND:                -0.322
REMARK  Name = 
REMARK  3 active torsions:
REMARK  status: ('A' for Active; 'I' for Inactive)
REMARK    1  A    between atoms: C_3  and  N_4
REMARK    2  A    between atoms: N_4  and  C_5
REMARK    3  A    between atoms: C_5  and  C_6
REMARK                            x       y       z     vdW  Elec       q    Type
REMARK                         _______ _______ _______ _____ _____    ______ ____
ROOT
ATOM      1  C   UNL     1      46.233   6.248  12.337  0.00  0.00    +0.000 A 
ATOM      2  C   UNL     1      46.508   5.159  13.127  0.00  0.00    +0.000 A 
ATOM      3  N   UNL     1      47.635   5.108  13.847  0.00  0.00    +0.000 NA
ATOM      4  N   UNL     1      48.501   6.160  13.755  0.00  0.00    +0.000 NA
ATOM      5  C   UNL     1      48.219   7.237  12.986  0.00  0.00    +0.000 A 
ATOM      6  N   UNL     1      49.151   8.241  12.831  0.00  0.00    +0.000 N 
ATOM      7  C   UNL     1      50.461   8.125  13.475  0.00  0.00    +0.000 C 
ATOM      8  C   UNL     1      51.560   8.636  12.533  0.00  0.00    +0.000 C 
ATOM      9  S   UNL     1      51.316  10.377  12.024  0.00  0.00    +0.000 S 
ATOM     10  C   UNL     1      49.575  10.243  11.477  0.00  0.00    +0.000 C 
ATOM     11  C   UNL     1      48.684   9.598  12.543  0.00  0.00    +0.000 C 
ATOM     12  N   UNL     1      47.077   7.309  12.276  0.00  0.00    +0.000 NA
ENDROOT
BRANCH   1  13
ATOM     13  C   UNL     1      44.996   6.252  11.467  0.00  0.00    +0.000 C 
BRANCH  13  14
ATOM     14  N   UNL     1      45.293   5.934  10.075  0.00  0.00    +0.000 N 
ATOM     15  H   UNL     1      45.047   6.639   9.387  0.00  0.00    +0.000 HD
BRANCH  14  18
ATOM     16  C   UNL     1      45.645   2.903   7.970  0.00  0.00    +0.000 A 
ATOM     17  C   UNL     1      45.799   4.220   8.383  0.00  0.00    +0.000 A 
ATOM     18  C   UNL     1      45.262   4.622   9.606  0.00  0.00    +0.000 A 
ATOM     19  C   UNL     1      44.543   3.668  10.330  0.00  0.00    +0.000 A 
ATOM     20  C   UNL     1      44.426   2.377   9.831  0.00  0.00    +0.000 A 
ATOM     21  N   UNL     1      44.974   1.969   8.670  0.00  0.00    +0.000 NA
ENDBRANCH  14  18
ENDBRANCH  13  14
ENDBRANCH   1  13
TORSDOF 3
ENDMDL
MODEL 8
REMARK VINA RESULT:    -5.758      4.711      9.028
REMARK INTER + INTRA:          -7.089
REMARK INTER:                  -6.789
REMARK INTRA:                  -0.300
REMARK UNBOUND:                -0.322
REMARK  Name = 
REMARK  3 active torsions:
REMARK  status: ('A' for Active; 'I' for Inactive)
REMARK    1  A    between atoms: C_3  and  N_4
REMARK    2  A    between atoms: N_4  and  C_5
REMARK    3  A    between atoms: C_5  and  C_6
REMARK                            x       y       z     vdW  Elec       q    Type
REMARK                         _______ _______ _______ _____ _____    ______ ____
ROOT
ATOM      1  C   UNL     1      48.143   5.052  16.181  0.00  0.00    +0.000 A 
ATOM      2  C   UNL     1      48.529   3.757  16.425  0.00  0.00    +0.000 A 
ATOM      3  N   UNL     1      48.149   2.768  15.608  0.00  0.00    +0.000 NA
ATOM      4  N   UNL     1      47.355   3.087  14.544  0.00  0.00    +0.000 NA
ATOM      5  C   UNL     1      46.988   4.367  14.299  0.00  0.00    +0.000 A 
ATOM      6  N   UNL     1      46.108   4.652  13.277  0.00  0.00    +0.000 N 
ATOM      7  C   UNL     1      45.545   3.565  12.477  0.00  0.00    +0.000 C 
ATOM      8  C   UNL     1      44.063   3.838  12.181  0.00  0.00    +0.000 C 
ATOM      9  S   UNL     1      43.787   5.415  11.295  0.00  0.00    +0.000 S 
ATOM     10  C   UNL     1      44.759   6.504  12.400  0.00  0.00    +0.000 C 
ATOM     11  C   UNL     1      46.173   5.967  12.638  0.00  0.00    +0.000 C 
ATOM     12  N   UNL     1      47.387   5.373  15.102  0.00  0.00    +0.000 NA
ENDROOT
BRANCH   1  13
ATOM     13  C   UNL     1      48.514   6.144  17.160  0.00  0.00    +0.000 C 
BRANCH  13  14
ATOM     14  N   UNL     1      47.544   6.275  18.241  0.00  0.00    +0.000 N 
ATOM     15  H   UNL     1      46.838   6.996  18.132  0.00  0.00    +0.000 HD
BRANCH  14  18
ATOM     16  C   UNL     1      48.897   4.654  21.289  0.00  0.00    +0.000 A 
ATOM     17  C   UNL     1      48.685   4.905  19.939  0.00  0.00    +0.000 A 
ATOM     18  C   UNL     1      47.884   5.984  19.561  0.00  0.00    +0.000 A 
ATOM     19  C   UNL     1      47.292   6.726  20.585  0.00  0.00    +0.000 A 
ATOM     20  C   UNL     1      47.548   6.391  21.909  0.00  0.00    +0.000 A 
ATOM     21  N   UNL     1      48.351   5.376  22.284  0.00  0.00    +0.000 NA
ENDBRANCH  14  18
ENDBRANCH  13  14
ENDBRANCH   1  13
TORSDOF 3
ENDMDL
MODEL 9
REMARK VINA RESULT:    -5.339      3.882      6.027
REMARK INTER + INTRA:          -6.597
REMARK INTER:                  -6.198
REMARK INTRA:                  -0.399
REMARK UNBOUND:                -0.322
REMARK  Name = 
REMARK  3 active torsions:
REMARK  status: ('A' for Active; 'I' for Inactive)
REMARK    1  A    between atoms: C_3  and  N_4
REMARK    2  A    between atoms: N_4  and  C_5
REMARK    3  A    between atoms: C_5  and  C_6
REMARK                            x       y       z     vdW  Elec       q    Type
REMARK                         _______ _______ _______ _____ _____    ______ ____
ROOT
ATOM      1  C   UNL     1      48.580   6.950  13.511  0.00  0.00    +0.000 A 
ATOM      2  C   UNL     1      49.619   7.805  13.236  0.00  0.00    +0.000 A 
ATOM      3  N   UNL     1      50.575   8.028  14.145  0.00  0.00    +0.000 NA
ATOM      4  N   UNL     1      50.471   7.395  15.351  0.00  0.00    +0.000 NA
ATOM      5  C   UNL     1      49.454   6.542  15.611  0.00  0.00    +0.000 A 
ATOM      6  N   UNL     1      49.316   5.991  16.867  0.00  0.00    +0.000 N 
ATOM      7  C   UNL     1      50.255   6.355  17.929  0.00  0.00    +0.000 C 
ATOM      8  C   UNL     1      49.509   6.520  19.261  0.00  0.00    +0.000 C 
ATOM      9  S   UNL     1      48.611   5.010  19.773  0.00  0.00    +0.000 S 
ATOM     10  C   UNL     1      47.715   4.701  18.207  0.00  0.00    +0.000 C 
ATOM     11  C   UNL     1      48.655   4.692  16.998  0.00  0.00    +0.000 C 
ATOM     12  N   UNL     1      48.499   6.292  14.694  0.00  0.00    +0.000 NA
ENDROOT
BRANCH   1  13
ATOM     13  C   UNL     1      47.465   6.774  12.503  0.00  0.00    +0.000 C 
BRANCH  13  14
ATOM     14  N   UNL     1      46.157   6.655  13.135  0.00  0.00    +0.000 N 
ATOM     15  H   UNL     1      46.053   7.091  14.047  0.00  0.00    +0.000 HD
BRANCH  14  18
ATOM     16  C   UNL     1      43.249   4.363  12.940  0.00  0.00    +0.000 A 
ATOM     17  C   UNL     1      43.960   5.547  13.101  0.00  0.00    +0.000 A 
ATOM     18  C   UNL     1      45.344   5.544  12.922  0.00  0.00    +0.000 A 
ATOM     19  C   UNL     1      45.947   4.316  12.637  0.00  0.00    +0.000 A 
ATOM     20  C   UNL     1      45.158   3.180  12.511  0.00  0.00    +0.000 A 
ATOM     21  N   UNL     1      43.817   3.179  12.643  0.00  0.00    +0.000 NA
ENDBRANCH  14  18
ENDBRANCH  13  14
ENDBRANCH   1  13
TORSDOF 3
ENDMDL
