MODEL 1
REMARK VINA RESULT:    -8.045      0.000      0.000
REMARK INTER + INTRA:         -14.154
REMARK INTER:                 -12.513
REMARK INTRA:                  -1.641
REMARK UNBOUND:                -1.641
REMARK  Name = 
REMARK  11 active torsions:
REMARK  status: ('A' for Active; 'I' for Inactive)
REMARK    1  A    between atoms: C_1  and  C_2
REMARK    2  A    between atoms: C_2  and  N_3
REMARK    3  A    between atoms: C_2  and  C_23
REMARK    4  A    between atoms: N_3  and  C_4
REMARK    5  A    between atoms: C_4  and  C_5
REMARK    6  A    between atoms: C_8  and  C_9
REMARK    7  A    between atoms: C_9  and  N_10
REMARK    8  A    between atoms: N_10  and  C_11
REMARK    9  A    between atoms: C_11  and  C_12
REMARK   10  A    between atoms: CA_16  and  C_17
REMARK   11  A    between atoms: C_17  and  OXT_19
REMARK                            x       y       z     vdW  Elec       q    Type
REMARK                         _______ _______ _______ _____ _____    ______ ____
ROOT
ATOM      1  C   UNL     1      46.896   6.540  12.656  0.00  0.00    +0.000 A 
ATOM      2  C   UNL     1      45.856   7.009  11.842  0.00  0.00    +0.000 A 
ATOM      3  C   UNL     1      44.635   6.333  11.787  0.00  0.00    +0.000 A 
ATOM      4  C   UNL     1      44.434   5.164  12.534  0.00  0.00    +0.000 A 
ATOM      5  C   UNL     1      45.469   4.701  13.357  0.00  0.00    +0.000 A 
ATOM      6  C   UNL     1      46.688   5.380  13.415  0.00  0.00    +0.000 A 
ENDROOT
BRANCH   1   7
ATOM      7  C   UNL     1      48.258   7.182  12.602  0.00  0.00    +0.000 C 
BRANCH   7   8
ATOM      8  N   UNL     1      49.264   6.550  13.468  0.00  0.00    +0.000 NA
ATOM      9  H   UNL     1      49.973   6.123  12.868  0.00  0.00    +0.000 HD
BRANCH   8  11
ATOM     10  C   UNL     1      50.280   8.831  13.497  0.00  0.00    +0.000 C 
ATOM     11  C   UNL     1      49.917   7.565  14.309  0.00  0.00    +0.000 C 
BRANCH  11  12
ATOM     12  C   UNL     1      49.015   8.025  15.438  0.00  0.00    +0.000 A 
ATOM     13  C   UNL     1      48.501   9.307  15.565  0.00  0.00    +0.000 A 
ATOM     14  S   UNL     1      48.204   9.719  17.202  0.00  0.00    +0.000 S 
ATOM     15  C   UNL     1      48.571   8.140  17.726  0.00  0.00    +0.000 A 
ATOM     16  N   UNL     1      48.628   7.814  19.046  0.00  0.00    +0.000 NA
ATOM     17  C   UNL     1      48.811   6.554  19.271  0.00  0.00    +0.000 A 
ATOM     18  N   UNL     1      48.908   5.589  18.301  0.00  0.00    +0.000 N 
ATOM     19  C   UNL     1      48.902   5.876  16.950  0.00  0.00    +0.000 A 
ATOM     20  O   UNL     1      48.949   4.998  16.103  0.00  0.00    +0.000 OA
ATOM     21  C   UNL     1      48.786   7.293  16.656  0.00  0.00    +0.000 A 
ATOM     22  H   UNL     1      48.953   4.612  18.547  0.00  0.00    +0.000 HD
ENDBRANCH  11  12
ENDBRANCH   8  11
ENDBRANCH   7   8
ENDBRANCH   1   7
BRANCH   4  23
ATOM     23  C   UNL     1      43.136   4.395  12.444  0.00  0.00    +0.000 C 
BRANCH  23  24
ATOM     24  N   UNL     1      42.922   3.715  11.168  0.00  0.00    +0.000 NA
ATOM     25  H   UNL     1      43.035   4.374  10.398  0.00  0.00    +0.000 HD
BRANCH  24  26
ATOM     26  C   UNL     1      43.864   2.605  10.947  0.00  0.00    +0.000 C 
BRANCH  26  27
ATOM     27  C   UNL     1      44.713   2.810   9.701  0.00  0.00    +0.000 A 
ATOM     28  N   UNL     1      44.689   4.032   9.119  0.00  0.00    +0.000 NA
ATOM     29  C   UNL     1      45.429   4.200   8.005  0.00  0.00    +0.000 A 
ATOM     30  C   UNL     1      46.193   3.208   7.452  0.00  0.00    +0.000 A 
ATOM     31  CA  UNL     1      46.159   2.007   8.126  0.00  0.00    +0.000 A 
ATOM     32  N   UNL     1      45.438   1.767   9.252  0.00  0.00    +0.000 NA
BRANCH  31  33
ATOM     33  C   UNL     1      46.955   0.850   7.625  0.00  0.00    +0.000 C 
ATOM     34  O   UNL     1      46.677  -0.317   7.818  0.00  0.00    +0.000 OA
BRANCH  33  35
ATOM     35  OXT UNL     1      48.028   1.278   6.914  0.00  0.00    +0.000 OA
ATOM     36  HXT UNL     1      47.808   2.145   6.498  0.00  0.00    +0.000 HD
ENDBRANCH  33  35
ENDBRANCH  31  33
ENDBRANCH  26  27
ENDBRANCH  24  26
ENDBRANCH  23  24
ENDBRANCH   4  23
TORSDOF 10
ENDMDL
MODEL 2
REMARK VINA RESULT:    -7.769      1.790      2.453
REMARK INTER + INTRA:         -13.725
REMARK INTER:                 -12.575
REMARK INTRA:                  -1.149
REMARK UNBOUND:                -1.641
REMARK  Name = 
REMARK  11 active torsions:
REMARK  status: ('A' for Active; 'I' for Inactive)
REMARK    1  A    between atoms: C_1  and  C_2
REMARK    2  A    between atoms: C_2  and  N_3
REMARK    3  A    between atoms: C_2  and  C_23
REMARK    4  A    between atoms: N_3  and  C_4
REMARK    5  A    between atoms: C_4  and  C_5
REMARK    6  A    between atoms: C_8  and  C_9
REMARK    7  A    between atoms: C_9  and  N_10
REMARK    8  A    between atoms: N_10  and  C_11
REMARK    9  A    between atoms: C_11  and  C_12
REMARK   10  A    between atoms: CA_16  and  C_17
REMARK   11  A    between atoms: C_17  and  OXT_19
REMARK                            x       y       z     vdW  Elec       q    Type
REMARK                         _______ _______ _______ _____ _____    ______ ____
ROOT
ATOM      1  C   UNL     1      46.949   6.470  13.285  0.00  0.00    +0.000 A 
ATOM      2  C   UNL     1      46.778   5.129  13.657  0.00  0.00    +0.000 A 
ATOM      3  C   UNL     1      45.595   4.452  13.356  0.00  0.00    +0.000 A 
ATOM      4  C   UNL     1      44.550   5.106  12.688  0.00  0.00    +0.000 A 
ATOM      5  C   UNL     1      44.725   6.442  12.305  0.00  0.00    +0.000 A 
ATOM      6  C   UNL     1      45.911   7.118  12.602  0.00  0.00    +0.000 A 
ENDROOT
BRANCH   1   7
ATOM      7  C   UNL     1      48.161   7.242  13.739  0.00  0.00    +0.000 C 
BRANCH   7   8
ATOM      8  N   UNL     1      49.129   6.454  14.515  0.00  0.00    +0.000 NA
ATOM      9  H   UNL     1      49.828   6.085  13.867  0.00  0.00    +0.000 HD
BRANCH   8  11
ATOM     10  C   UNL     1      48.812   8.221  16.251  0.00  0.00    +0.000 C 
ATOM     11  C   UNL     1      49.811   7.314  15.494  0.00  0.00    +0.000 C 
BRANCH  11  12
ATOM     12  C   UNL     1      50.535   6.501  16.551  0.00  0.00    +0.000 A 
ATOM     13  C   UNL     1      51.816   6.768  17.011  0.00  0.00    +0.000 A 
ATOM     14  S   UNL     1      52.607   5.352  17.562  0.00  0.00    +0.000 S 
ATOM     15  C   UNL     1      51.194   4.420  17.374  0.00  0.00    +0.000 A 
ATOM     16  N   UNL     1      51.189   3.072  17.560  0.00  0.00    +0.000 NA
ATOM     17  C   UNL     1      50.017   2.532  17.485  0.00  0.00    +0.000 A 
ATOM     18  N   UNL     1      48.849   3.220  17.274  0.00  0.00    +0.000 N 
ATOM     19  C   UNL     1      48.807   4.579  17.034  0.00  0.00    +0.000 A 
ATOM     20  O   UNL     1      47.753   5.178  16.888  0.00  0.00    +0.000 OA
ATOM     21  C   UNL     1      50.115   5.208  17.023  0.00  0.00    +0.000 A 
ATOM     22  H   UNL     1      47.957   2.750  17.323  0.00  0.00    +0.000 HD
ENDBRANCH  11  12
ENDBRANCH   8  11
ENDBRANCH   7   8
ENDBRANCH   1   7
BRANCH   4  23
ATOM     23  C   UNL     1      43.246   4.399  12.400  0.00  0.00    +0.000 C 
BRANCH  23  24
ATOM     24  N   UNL     1      43.099   3.934  11.023  0.00  0.00    +0.000 NA
ATOM     25  H   UNL     1      43.397   4.664  10.375  0.00  0.00    +0.000 HD
BRANCH  24  26
ATOM     26  C   UNL     1      43.900   2.732  10.737  0.00  0.00    +0.000 C 
BRANCH  26  27
ATOM     27  C   UNL     1      44.851   2.937   9.568  0.00  0.00    +0.000 A 
ATOM     28  N   UNL     1      45.000   4.197   9.093  0.00  0.00    +0.000 NA
ATOM     29  C   UNL     1      45.829   4.368   8.046  0.00  0.00    +0.000 A 
ATOM     30  C   UNL     1      46.520   3.343   7.456  0.00  0.00    +0.000 A 
ATOM     31  CA  UNL     1      46.309   2.104   8.020  0.00  0.00    +0.000 A 
ATOM     32  N   UNL     1      45.489   1.858   9.075  0.00  0.00    +0.000 NA
BRANCH  31  33
ATOM     33  C   UNL     1      47.009   0.908   7.471  0.00  0.00    +0.000 C 
ATOM     34  O   UNL     1      46.743  -0.243   7.757  0.00  0.00    +0.000 OA
BRANCH  33  35
ATOM     35  OXT UNL     1      47.977   1.279   6.596  0.00  0.00    +0.000 OA
ATOM     36  HXT UNL     1      48.816   1.426   7.093  0.00  0.00    +0.000 HD
ENDBRANCH  33  35
ENDBRANCH  31  33
ENDBRANCH  26  27
ENDBRANCH  24  26
ENDBRANCH  23  24
ENDBRANCH   4  23
TORSDOF 10
ENDMDL
MODEL 3
REMARK VINA RESULT:    -6.969      1.703      2.140
REMARK INTER + INTRA:         -12.481
REMARK INTER:                 -11.266
REMARK INTRA:                  -1.215
REMARK UNBOUND:                -1.641
REMARK  Name = 
REMARK  11 active torsions:
REMARK  status: ('A' for Active; 'I' for Inactive)
REMARK    1  A    between atoms: C_1  and  C_2
REMARK    2  A    between atoms: C_2  and  N_3
REMARK    3  A    between atoms: C_2  and  C_23
REMARK    4  A    between atoms: N_3  and  C_4
REMARK    5  A    between atoms: C_4  and  C_5
REMARK    6  A    between atoms: C_8  and  C_9
REMARK    7  A    between atoms: C_9  and  N_10
REMARK    8  A    between atoms: N_10  and  C_11
REMARK    9  A    between atoms: C_11  and  C_12
REMARK   10  A    between atoms: CA_16  and  C_17
REMARK   11  A    between atoms: C_17  and  OXT_19
REMARK                            x       y       z     vdW  Elec       q    Type
REMARK                         _______ _______ _______ _____ _____    ______ ____
ROOT
ATOM      1  C   UNL     1      46.789   6.071  13.525  0.00  0.00    +0.000 A 
ATOM      2  C   UNL     1      46.327   7.048  12.632  0.00  0.00    +0.000 A 
ATOM      3  C   UNL     1      45.167   6.838  11.885  0.00  0.00    +0.000 A 
ATOM      4  C   UNL     1      44.450   5.638  12.003  0.00  0.00    +0.000 A 
ATOM      5  C   UNL     1      44.904   4.667  12.905  0.00  0.00    +0.000 A 
ATOM      6  C   UNL     1      46.063   4.879  13.656  0.00  0.00    +0.000 A 
ENDROOT
BRANCH   1   7
ATOM      7  C   UNL     1      48.117   6.234  14.219  0.00  0.00    +0.000 C 
BRANCH   7   8
ATOM      8  N   UNL     1      48.189   5.617  15.551  0.00  0.00    +0.000 NA
ATOM      9  H   UNL     1      48.456   4.638  15.431  0.00  0.00    +0.000 HD
BRANCH   8  11
ATOM     10  C   UNL     1      50.197   7.100  15.484  0.00  0.00    +0.000 C 
ATOM     11  C   UNL     1      49.217   6.285  16.362  0.00  0.00    +0.000 C 
BRANCH  11  12
ATOM     12  C   UNL     1      48.610   7.265  17.347  0.00  0.00    +0.000 A 
ATOM     13  C   UNL     1      48.846   8.632  17.349  0.00  0.00    +0.000 A 
ATOM     14  S   UNL     1      48.682   9.309  18.914  0.00  0.00    +0.000 S 
ATOM     15  C   UNL     1      48.111   7.837  19.554  0.00  0.00    +0.000 A 
ATOM     16  N   UNL     1      47.879   7.671  20.884  0.00  0.00    +0.000 NA
ATOM     17  C   UNL     1      47.346   6.533  21.190  0.00  0.00    +0.000 A 
ATOM     18  N   UNL     1      46.994   5.563  20.285  0.00  0.00    +0.000 N 
ATOM     19  C   UNL     1      47.251   5.666  18.932  0.00  0.00    +0.000 A 
ATOM     20  O   UNL     1      46.893   4.809  18.140  0.00  0.00    +0.000 OA
ATOM     21  C   UNL     1      47.929   6.895  18.560  0.00  0.00    +0.000 A 
ATOM     22  H   UNL     1      46.493   4.739  20.581  0.00  0.00    +0.000 HD
ENDBRANCH  11  12
ENDBRANCH   8  11
ENDBRANCH   7   8
ENDBRANCH   1   7
BRANCH   4  23
ATOM     23  C   UNL     1      43.222   5.378  11.163  0.00  0.00    +0.000 C 
BRANCH  23  24
ATOM     24  N   UNL     1      43.368   4.292  10.197  0.00  0.00    +0.000 NA
ATOM     25  H   UNL     1      42.457   4.047   9.806  0.00  0.00    +0.000 HD
BRANCH  24  26
ATOM     26  C   UNL     1      44.254   4.640   9.074  0.00  0.00    +0.000 C 
BRANCH  26  27
ATOM     27  C   UNL     1      45.051   3.444   8.575  0.00  0.00    +0.000 A 
ATOM     28  N   UNL     1      44.857   2.257   9.199  0.00  0.00    +0.000 NA
ATOM     29  C   UNL     1      45.580   1.206   8.764  0.00  0.00    +0.000 A 
ATOM     30  C   UNL     1      46.480   1.285   7.735  0.00  0.00    +0.000 A 
ATOM     31  CA  UNL     1      46.594   2.532   7.160  0.00  0.00    +0.000 A 
ATOM     32  N   UNL     1      45.898   3.633   7.546  0.00  0.00    +0.000 NA
BRANCH  31  33
ATOM     33  C   UNL     1      47.537   2.745   6.025  0.00  0.00    +0.000 C 
ATOM     34  O   UNL     1      47.203   2.910   4.869  0.00  0.00    +0.000 OA
BRANCH  33  35
ATOM     35  OXT UNL     1      48.822   2.740   6.463  0.00  0.00    +0.000 OA
ATOM     36  HXT UNL     1      49.274   1.937   6.111  0.00  0.00    +0.000 HD
ENDBRANCH  33  35
ENDBRANCH  31  33
ENDBRANCH  26  27
ENDBRANCH  24  26
ENDBRANCH  23  24
ENDBRANCH   4  23
TORSDOF 10
ENDMDL
MODEL 4
REMARK VINA RESULT:    -6.850      2.548      3.298
REMARK INTER + INTRA:         -12.295
REMARK INTER:                 -10.987
REMARK INTRA:                  -1.308
REMARK UNBOUND:                -1.641
REMARK  Name = 
REMARK  11 active torsions:
REMARK  status: ('A' for Active; 'I' for Inactive)
REMARK    1  A    between atoms: C_1  and  C_2
REMARK    2  A    between atoms: C_2  and  N_3
REMARK    3  A    between atoms: C_2  and  C_23
REMARK    4  A    between atoms: N_3  and  C_4
REMARK    5  A    between atoms: C_4  and  C_5
REMARK    6  A    between atoms: C_8  and  C_9
REMARK    7  A    between atoms: C_9  and  N_10
REMARK    8  A    between atoms: N_10  and  C_11
REMARK    9  A    between atoms: C_11  and  C_12
REMARK   10  A    between atoms: CA_16  and  C_17
REMARK   11  A    between atoms: C_17  and  OXT_19
REMARK                            x       y       z     vdW  Elec       q    Type
REMARK                         _______ _______ _______ _____ _____    ______ ____
ROOT
ATOM      1  C   UNL     1      47.215   6.527  13.387  0.00  0.00    +0.000 A 
ATOM      2  C   UNL     1      46.073   7.054  12.767  0.00  0.00    +0.000 A 
ATOM      3  C   UNL     1      44.936   6.266  12.580  0.00  0.00    +0.000 A 
ATOM      4  C   UNL     1      44.921   4.927  12.997  0.00  0.00    +0.000 A 
ATOM      5  C   UNL     1      46.057   4.403  13.628  0.00  0.00    +0.000 A 
ATOM      6  C   UNL     1      47.192   5.193  13.818  0.00  0.00    +0.000 A 
ENDROOT
BRANCH   1   7
ATOM      7  C   UNL     1      48.488   7.328  13.454  0.00  0.00    +0.000 C 
BRANCH   7   8
ATOM      8  N   UNL     1      49.608   6.640  14.111  0.00  0.00    +0.000 NA
ATOM      9  H   UNL     1      50.419   6.695  13.492  0.00  0.00    +0.000 HD
BRANCH   8  11
ATOM     10  C   UNL     1      49.083   6.779  16.549  0.00  0.00    +0.000 C 
ATOM     11  C   UNL     1      49.942   7.311  15.377  0.00  0.00    +0.000 C 
BRANCH  11  12
ATOM     12  C   UNL     1      51.389   7.086  15.770  0.00  0.00    +0.000 A 
ATOM     13  C   UNL     1      51.804   6.299  16.834  0.00  0.00    +0.000 A 
ATOM     14  S   UNL     1      53.306   6.823  17.471  0.00  0.00    +0.000 S 
ATOM     15  C   UNL     1      53.501   7.966  16.224  0.00  0.00    +0.000 A 
ATOM     16  N   UNL     1      54.532   8.854  16.215  0.00  0.00    +0.000 NA
ATOM     17  C   UNL     1      54.597   9.578  15.146  0.00  0.00    +0.000 A 
ATOM     18  N   UNL     1      53.748   9.472  14.074  0.00  0.00    +0.000 N 
ATOM     19  C   UNL     1      52.661   8.620  14.055  0.00  0.00    +0.000 A 
ATOM     20  O   UNL     1      51.941   8.512  13.075  0.00  0.00    +0.000 OA
ATOM     21  C   UNL     1      52.503   7.851  15.276  0.00  0.00    +0.000 A 
ATOM     22  H   UNL     1      53.913  10.000  13.230  0.00  0.00    +0.000 HD
ENDBRANCH  11  12
ENDBRANCH   8  11
ENDBRANCH   7   8
ENDBRANCH   1   7
BRANCH   4  23
ATOM     23  C   UNL     1      43.715   4.050  12.755  0.00  0.00    +0.000 C 
BRANCH  23  24
ATOM     24  N   UNL     1      43.334   3.916  11.351  0.00  0.00    +0.000 NA
ATOM     25  H   UNL     1      43.743   4.675  10.804  0.00  0.00    +0.000 HD
BRANCH  24  26
ATOM     26  C   UNL     1      43.784   2.647  10.755  0.00  0.00    +0.000 C 
BRANCH  26  27
ATOM     27  C   UNL     1      44.737   2.863   9.588  0.00  0.00    +0.000 A 
ATOM     28  N   UNL     1      44.848   4.118   9.093  0.00  0.00    +0.000 NA
ATOM     29  C   UNL     1      45.679   4.299   8.048  0.00  0.00    +0.000 A 
ATOM     30  C   UNL     1      46.407   3.287   7.482  0.00  0.00    +0.000 A 
ATOM     31  CA  UNL     1      46.234   2.051   8.067  0.00  0.00    +0.000 A 
ATOM     32  N   UNL     1      45.415   1.797   9.119  0.00  0.00    +0.000 NA
BRANCH  31  33
ATOM     33  C   UNL     1      46.977   0.870   7.543  0.00  0.00    +0.000 C 
ATOM     34  O   UNL     1      46.719  -0.287   7.814  0.00  0.00    +0.000 OA
BRANCH  33  35
ATOM     35  OXT UNL     1      47.975   1.261   6.712  0.00  0.00    +0.000 OA
ATOM     36  HXT UNL     1      48.775   1.469   7.251  0.00  0.00    +0.000 HD
ENDBRANCH  33  35
ENDBRANCH  31  33
ENDBRANCH  26  27
ENDBRANCH  24  26
ENDBRANCH  23  24
ENDBRANCH   4  23
TORSDOF 10
ENDMDL
MODEL 5
REMARK VINA RESULT:    -6.815      3.319      8.097
REMARK INTER + INTRA:         -12.240
REMARK INTER:                 -10.406
REMARK INTRA:                  -1.834
REMARK UNBOUND:                -1.641
REMARK  Name = 
REMARK  11 active torsions:
REMARK  status: ('A' for Active; 'I' for Inactive)
REMARK    1  A    between atoms: C_1  and  C_2
REMARK    2  A    between atoms: C_2  and  N_3
REMARK    3  A    between atoms: C_2  and  C_23
REMARK    4  A    between atoms: N_3  and  C_4
REMARK    5  A    between atoms: C_4  and  C_5
REMARK    6  A    between atoms: C_8  and  C_9
REMARK    7  A    between atoms: C_9  and  N_10
REMARK    8  A    between atoms: N_10  and  C_11
REMARK    9  A    between atoms: C_11  and  C_12
REMARK   10  A    between atoms: CA_16  and  C_17
REMARK   11  A    between atoms: C_17  and  OXT_19
REMARK                            x       y       z     vdW  Elec       q    Type
REMARK                         _______ _______ _______ _____ _____    ______ ____
ROOT
ATOM      1  C   UNL     1      48.813   8.552  15.541  0.00  0.00    +0.000 A 
ATOM      2  C   UNL     1      48.356   9.283  16.647  0.00  0.00    +0.000 A 
ATOM      3  C   UNL     1      48.691   8.893  17.946  0.00  0.00    +0.000 A 
ATOM      4  C   UNL     1      49.479   7.754  18.166  0.00  0.00    +0.000 A 
ATOM      5  C   UNL     1      49.947   7.031  17.061  0.00  0.00    +0.000 A 
ATOM      6  C   UNL     1      49.615   7.425  15.762  0.00  0.00    +0.000 A 
ENDROOT
BRANCH   1   7
ATOM      7  C   UNL     1      48.331   8.885  14.153  0.00  0.00    +0.000 C 
BRANCH   7   8
ATOM      8  N   UNL     1      46.916   8.573  13.908  0.00  0.00    +0.000 NA
ATOM      9  H   UNL     1      46.415   9.456  13.791  0.00  0.00    +0.000 HD
BRANCH   8  11
ATOM     10  C   UNL     1      48.141   7.591  11.966  0.00  0.00    +0.000 C 
ATOM     11  C   UNL     1      46.778   7.790  12.671  0.00  0.00    +0.000 C 
BRANCH  11  12
ATOM     12  C   UNL     1      46.229   6.402  12.940  0.00  0.00    +0.000 A 
ATOM     13  C   UNL     1      46.823   5.467  13.775  0.00  0.00    +0.000 A 
ATOM     14  S   UNL     1      46.451   3.862  13.307  0.00  0.00    +0.000 S 
ATOM     15  C   UNL     1      45.353   4.401  12.121  0.00  0.00    +0.000 A 
ATOM     16  N   UNL     1      44.749   3.543  11.255  0.00  0.00    +0.000 NA
ATOM     17  C   UNL     1      43.864   4.098  10.492  0.00  0.00    +0.000 A 
ATOM     18  N   UNL     1      43.506   5.422  10.540  0.00  0.00    +0.000 N 
ATOM     19  C   UNL     1      44.122   6.339  11.368  0.00  0.00    +0.000 A 
ATOM     20  O   UNL     1      43.761   7.504  11.424  0.00  0.00    +0.000 OA
ATOM     21  C   UNL     1      45.183   5.771  12.179  0.00  0.00    +0.000 A 
ATOM     22  H   UNL     1      42.739   5.770   9.984  0.00  0.00    +0.000 HD
ENDBRANCH  11  12
ENDBRANCH   8  11
ENDBRANCH   7   8
ENDBRANCH   1   7
BRANCH   4  23
ATOM     23  C   UNL     1      49.807   7.293  19.568  0.00  0.00    +0.000 C 
BRANCH  23  24
ATOM     24  N   UNL     1      48.668   6.756  20.310  0.00  0.00    +0.000 NA
ATOM     25  H   UNL     1      47.797   6.997  19.836  0.00  0.00    +0.000 HD
BRANCH  24  26
ATOM     26  C   UNL     1      48.711   5.291  20.442  0.00  0.00    +0.000 C 
BRANCH  26  27
ATOM     27  C   UNL     1      48.447   4.584  19.121  0.00  0.00    +0.000 A 
ATOM     28  N   UNL     1      47.303   4.889  18.464  0.00  0.00    +0.000 NA
ATOM     29  C   UNL     1      47.066   4.246  17.304  0.00  0.00    +0.000 A 
ATOM     30  C   UNL     1      47.920   3.319  16.770  0.00  0.00    +0.000 A 
ATOM     31  CA  UNL     1      49.060   3.089  17.508  0.00  0.00    +0.000 A 
ATOM     32  N   UNL     1      49.363   3.700  18.682  0.00  0.00    +0.000 NA
BRANCH  31  33
ATOM     33  C   UNL     1      50.072   2.104  17.027  0.00  0.00    +0.000 C 
ATOM     34  O   UNL     1      50.047   1.560  15.940  0.00  0.00    +0.000 OA
BRANCH  33  35
ATOM     35  OXT UNL     1      51.032   1.907  17.964  0.00  0.00    +0.000 OA
ATOM     36  HXT UNL     1      51.476   1.044  17.789  0.00  0.00    +0.000 HD
ENDBRANCH  33  35
ENDBRANCH  31  33
ENDBRANCH  26  27
ENDBRANCH  24  26
ENDBRANCH  23  24
ENDBRANCH   4  23
TORSDOF 10
ENDMDL
MODEL 6
REMARK VINA RESULT:    -6.774      1.923      2.695
REMARK INTER + INTRA:         -12.177
REMARK INTER:                 -11.951
REMARK INTRA:                  -0.226
REMARK UNBOUND:                -1.641
REMARK  Name = 
REMARK  11 active torsions:
REMARK  status: ('A' for Active; 'I' for Inactive)
REMARK    1  A    between atoms: C_1  and  C_2
REMARK    2  A    between atoms: C_2  and  N_3
REMARK    3  A    between atoms: C_2  and  C_23
REMARK    4  A    between atoms: N_3  and  C_4
REMARK    5  A    between atoms: C_4  and  C_5
REMARK    6  A    between atoms: C_8  and  C_9
REMARK    7  A    between atoms: C_9  and  N_10
REMARK    8  A    between atoms: N_10  and  C_11
REMARK    9  A    between atoms: C_11  and  C_12
REMARK   10  A    between atoms: CA_16  and  C_17
REMARK   11  A    between atoms: C_17  and  OXT_19
REMARK                            x       y       z     vdW  Elec       q    Type
REMARK                         _______ _______ _______ _____ _____    ______ ____
ROOT
ATOM      1  C   UNL     1      46.684   5.470  13.808  0.00  0.00    +0.000 A 
ATOM      2  C   UNL     1      45.580   4.630  14.014  0.00  0.00    +0.000 A 
ATOM      3  C   UNL     1      44.499   4.645  13.131  0.00  0.00    +0.000 A 
ATOM      4  C   UNL     1      44.491   5.512  12.029  0.00  0.00    +0.000 A 
ATOM      5  C   UNL     1      45.599   6.343  11.815  0.00  0.00    +0.000 A 
ATOM      6  C   UNL     1      46.683   6.323  12.696  0.00  0.00    +0.000 A 
ENDROOT
BRANCH   1   7
ATOM      7  C   UNL     1      47.780   5.561  14.838  0.00  0.00    +0.000 C 
BRANCH   7   8
ATOM      8  N   UNL     1      48.039   4.309  15.564  0.00  0.00    +0.000 NA
ATOM      9  H   UNL     1      49.047   4.233  15.710  0.00  0.00    +0.000 HD
BRANCH   8  11
ATOM     10  C   UNL     1      47.280   2.928  17.500  0.00  0.00    +0.000 C 
ATOM     11  C   UNL     1      47.378   4.341  16.877  0.00  0.00    +0.000 C 
BRANCH  11  12
ATOM     12  C   UNL     1      48.141   5.195  17.872  0.00  0.00    +0.000 A 
ATOM     13  C   UNL     1      47.556   6.091  18.754  0.00  0.00    +0.000 A 
ATOM     14  S   UNL     1      48.614   7.377  19.157  0.00  0.00    +0.000 S 
ATOM     15  C   UNL     1      49.908   6.650  18.321  0.00  0.00    +0.000 A 
ATOM     16  N   UNL     1      51.106   7.276  18.161  0.00  0.00    +0.000 NA
ATOM     17  C   UNL     1      52.013   6.546  17.600  0.00  0.00    +0.000 A 
ATOM     18  N   UNL     1      51.842   5.240  17.215  0.00  0.00    +0.000 N 
ATOM     19  C   UNL     1      50.636   4.577  17.314  0.00  0.00    +0.000 A 
ATOM     20  O   UNL     1      50.516   3.403  17.004  0.00  0.00    +0.000 OA
ATOM     21  C   UNL     1      49.566   5.393  17.861  0.00  0.00    +0.000 A 
ATOM     22  H   UNL     1      52.621   4.697  16.872  0.00  0.00    +0.000 HD
ENDBRANCH  11  12
ENDBRANCH   8  11
ENDBRANCH   7   8
ENDBRANCH   1   7
BRANCH   4  23
ATOM     23  C   UNL     1      43.305   5.575  11.095  0.00  0.00    +0.000 C 
BRANCH  23  24
ATOM     24  N   UNL     1      43.103   4.371  10.291  0.00  0.00    +0.000 NA
ATOM     25  H   UNL     1      43.060   4.616   9.301  0.00  0.00    +0.000 HD
BRANCH  24  26
ATOM     26  C   UNL     1      44.183   3.384  10.458  0.00  0.00    +0.000 C 
BRANCH  26  27
ATOM     27  C   UNL     1      45.138   3.368   9.273  0.00  0.00    +0.000 A 
ATOM     28  N   UNL     1      45.412   4.550   8.672  0.00  0.00    +0.000 NA
ATOM     29  C   UNL     1      46.244   4.525   7.612  0.00  0.00    +0.000 A 
ATOM     30  C   UNL     1      46.816   3.378   7.131  0.00  0.00    +0.000 A 
ATOM     31  CA  UNL     1      46.483   2.232   7.819  0.00  0.00    +0.000 A 
ATOM     32  N   UNL     1      45.653   2.183   8.893  0.00  0.00    +0.000 NA
BRANCH  31  33
ATOM     33  C   UNL     1      47.047   0.919   7.394  0.00  0.00    +0.000 C 
ATOM     34  O   UNL     1      46.710  -0.159   7.845  0.00  0.00    +0.000 OA
BRANCH  33  35
ATOM     35  OXT UNL     1      47.982   1.090   6.426  0.00  0.00    +0.000 OA
ATOM     36  HXT UNL     1      47.939   2.020   6.103  0.00  0.00    +0.000 HD
ENDBRANCH  33  35
ENDBRANCH  31  33
ENDBRANCH  26  27
ENDBRANCH  24  26
ENDBRANCH  23  24
ENDBRANCH   4  23
TORSDOF 10
ENDMDL
MODEL 7
REMARK VINA RESULT:    -6.755      3.326      4.896
REMARK INTER + INTRA:         -12.147
REMARK INTER:                  -9.924
REMARK INTRA:                  -2.224
REMARK UNBOUND:                -1.641
REMARK  Name = 
REMARK  11 active torsions:
REMARK  status: ('A' for Active; 'I' for Inactive)
REMARK    1  A    between atoms: C_1  and  C_2
REMARK    2  A    between atoms: C_2  and  N_3
REMARK    3  A    between atoms: C_2  and  C_23
REMARK    4  A    between atoms: N_3  and  C_4
REMARK    5  A    between atoms: C_4  and  C_5
REMARK    6  A    between atoms: C_8  and  C_9
REMARK    7  A    between atoms: C_9  and  N_10
REMARK    8  A    between atoms: N_10  and  C_11
REMARK    9  A    between atoms: C_11  and  C_12
REMARK   10  A    between atoms: CA_16  and  C_17
REMARK   11  A    between atoms: C_17  and  OXT_19
REMARK                            x       y       z     vdW  Elec       q    Type
REMARK                         _______ _______ _______ _____ _____    ______ ____
ROOT
ATOM      1  C   UNL     1      49.689   8.449  13.922  0.00  0.00    +0.000 A 
ATOM      2  C   UNL     1      49.599   8.640  12.535  0.00  0.00    +0.000 A 
ATOM      3  C   UNL     1      48.377   8.956  11.938  0.00  0.00    +0.000 A 
ATOM      4  C   UNL     1      47.215   9.075  12.713  0.00  0.00    +0.000 A 
ATOM      5  C   UNL     1      47.307   8.898  14.100  0.00  0.00    +0.000 A 
ATOM      6  C   UNL     1      48.530   8.586  14.697  0.00  0.00    +0.000 A 
ENDROOT
BRANCH   1   7
ATOM      7  C   UNL     1      50.971   7.964  14.545  0.00  0.00    +0.000 C 
BRANCH   7   8
ATOM      8  N   UNL     1      50.831   6.751  15.362  0.00  0.00    +0.000 NA
ATOM      9  H   UNL     1      51.173   5.959  14.814  0.00  0.00    +0.000 HD
BRANCH   8  11
ATOM     10  C   UNL     1      51.117   7.966  17.525  0.00  0.00    +0.000 C 
ATOM     11  C   UNL     1      51.649   6.863  16.579  0.00  0.00    +0.000 C 
BRANCH  11  12
ATOM     12  C   UNL     1      51.647   5.575  17.381  0.00  0.00    +0.000 A 
ATOM     13  C   UNL     1      52.769   5.009  17.968  0.00  0.00    +0.000 A 
ATOM     14  S   UNL     1      52.628   3.308  18.111  0.00  0.00    +0.000 S 
ATOM     15  C   UNL     1      51.010   3.339  17.577  0.00  0.00    +0.000 A 
ATOM     16  N   UNL     1      50.304   2.199  17.352  0.00  0.00    +0.000 NA
ATOM     17  C   UNL     1      49.061   2.397  17.056  0.00  0.00    +0.000 A 
ATOM     18  N   UNL     1      48.454   3.626  16.998  0.00  0.00    +0.000 N 
ATOM     19  C   UNL     1      49.138   4.813  17.174  0.00  0.00    +0.000 A 
ATOM     20  O   UNL     1      48.572   5.894  17.158  0.00  0.00    +0.000 OA
ATOM     21  C   UNL     1      50.558   4.635  17.422  0.00  0.00    +0.000 A 
ATOM     22  H   UNL     1      47.458   3.704  16.858  0.00  0.00    +0.000 HD
ENDBRANCH  11  12
ENDBRANCH   8  11
ENDBRANCH   7   8
ENDBRANCH   1   7
BRANCH   4  23
ATOM     23  C   UNL     1      45.878   9.367  12.073  0.00  0.00    +0.000 C 
BRANCH  23  24
ATOM     24  N   UNL     1      44.806   8.453  12.463  0.00  0.00    +0.000 NA
ATOM     25  H   UNL     1      43.984   8.983  12.753  0.00  0.00    +0.000 HD
BRANCH  24  26
ATOM     26  C   UNL     1      44.394   7.556  11.372  0.00  0.00    +0.000 C 
BRANCH  26  27
ATOM     27  C   UNL     1      44.677   6.094  11.688  0.00  0.00    +0.000 A 
ATOM     28  N   UNL     1      44.027   5.157  10.959  0.00  0.00    +0.000 NA
ATOM     29  C   UNL     1      44.267   3.866  11.257  0.00  0.00    +0.000 A 
ATOM     30  C   UNL     1      45.130   3.469  12.244  0.00  0.00    +0.000 A 
ATOM     31  CA  UNL     1      45.749   4.498  12.919  0.00  0.00    +0.000 A 
ATOM     32  N   UNL     1      45.555   5.819  12.672  0.00  0.00    +0.000 NA
BRANCH  31  33
ATOM     33  C   UNL     1      46.716   4.194  14.013  0.00  0.00    +0.000 C 
ATOM     34  O   UNL     1      47.309   3.140  14.140  0.00  0.00    +0.000 OA
BRANCH  33  35
ATOM     35  OXT UNL     1      46.852   5.259  14.842  0.00  0.00    +0.000 OA
ATOM     36  HXT UNL     1      47.691   5.727  14.622  0.00  0.00    +0.000 HD
ENDBRANCH  33  35
ENDBRANCH  31  33
ENDBRANCH  26  27
ENDBRANCH  24  26
ENDBRANCH  23  24
ENDBRANCH   4  23
TORSDOF 10
ENDMDL
MODEL 8
REMARK VINA RESULT:    -6.544      2.557      3.797
REMARK INTER + INTRA:         -11.820
REMARK INTER:                 -10.790
REMARK INTRA:                  -1.030
REMARK UNBOUND:                -1.641
REMARK  Name = 
REMARK  11 active torsions:
REMARK  status: ('A' for Active; 'I' for Inactive)
REMARK    1  A    between atoms: C_1  and  C_2
REMARK    2  A    between atoms: C_2  and  N_3
REMARK    3  A    between atoms: C_2  and  C_23
REMARK    4  A    between atoms: N_3  and  C_4
REMARK    5  A    between atoms: C_4  and  C_5
REMARK    6  A    between atoms: C_8  and  C_9
REMARK    7  A    between atoms: C_9  and  N_10
REMARK    8  A    between atoms: N_10  and  C_11
REMARK    9  A    between atoms: C_11  and  C_12
REMARK   10  A    between atoms: CA_16  and  C_17
REMARK   11  A    between atoms: C_17  and  OXT_19
REMARK                            x       y       z     vdW  Elec       q    Type
REMARK                         _______ _______ _______ _____ _____    ______ ____
ROOT
ATOM      1  C   UNL     1      48.319   7.751  14.162  0.00  0.00    +0.000 A 
ATOM      2  C   UNL     1      48.007   6.534  13.539  0.00  0.00    +0.000 A 
ATOM      3  C   UNL     1      46.866   6.413  12.744  0.00  0.00    +0.000 A 
ATOM      4  C   UNL     1      46.002   7.503  12.567  0.00  0.00    +0.000 A 
ATOM      5  C   UNL     1      46.320   8.723  13.178  0.00  0.00    +0.000 A 
ATOM      6  C   UNL     1      47.464   8.845  13.969  0.00  0.00    +0.000 A 
ENDROOT
BRANCH   1   7
ATOM      7  C   UNL     1      49.465   7.841  15.135  0.00  0.00    +0.000 C 
BRANCH   7   8
ATOM      8  N   UNL     1      50.001   6.543  15.567  0.00  0.00    +0.000 NA
ATOM      9  H   UNL     1      50.691   6.241  14.877  0.00  0.00    +0.000 HD
BRANCH   8  11
ATOM     10  C   UNL     1      49.830   7.517  17.860  0.00  0.00    +0.000 C 
ATOM     11  C   UNL     1      50.673   6.681  16.868  0.00  0.00    +0.000 C 
BRANCH  11  12
ATOM     12  C   UNL     1      50.902   5.335  17.530  0.00  0.00    +0.000 A 
ATOM     13  C   UNL     1      52.078   4.955  18.159  0.00  0.00    +0.000 A 
ATOM     14  S   UNL     1      52.310   3.258  18.114  0.00  0.00    +0.000 S 
ATOM     15  C   UNL     1      50.767   3.008  17.436  0.00  0.00    +0.000 A 
ATOM     16  N   UNL     1      50.350   1.779  17.029  0.00  0.00    +0.000 NA
ATOM     17  C   UNL     1      49.117   1.741  16.640  0.00  0.00    +0.000 A 
ATOM     18  N   UNL     1      48.258   2.811  16.652  0.00  0.00    +0.000 N 
ATOM     19  C   UNL     1      48.647   4.086  17.011  0.00  0.00    +0.000 A 
ATOM     20  O   UNL     1      47.856   5.015  17.053  0.00  0.00    +0.000 OA
ATOM     21  C   UNL     1      50.050   4.186  17.372  0.00  0.00    +0.000 A 
ATOM     22  H   UNL     1      47.281   2.691  16.427  0.00  0.00    +0.000 HD
ENDBRANCH  11  12
ENDBRANCH   8  11
ENDBRANCH   7   8
ENDBRANCH   1   7
BRANCH   4  23
ATOM     23  C   UNL     1      44.737   7.370  11.750  0.00  0.00    +0.000 C 
BRANCH  23  24
ATOM     24  N   UNL     1      43.823   6.330  12.215  0.00  0.00    +0.000 NA
ATOM     25  H   UNL     1      43.179   6.714  12.906  0.00  0.00    +0.000 HD
BRANCH  24  26
ATOM     26  C   UNL     1      43.015   5.752  11.128  0.00  0.00    +0.000 C 
BRANCH  26  27
ATOM     27  C   UNL     1      43.662   4.514  10.523  0.00  0.00    +0.000 A 
ATOM     28  N   UNL     1      43.356   3.315  11.071  0.00  0.00    +0.000 NA
ATOM     29  C   UNL     1      43.947   2.225  10.543  0.00  0.00    +0.000 A 
ATOM     30  C   UNL     1      44.823   2.279   9.491  0.00  0.00    +0.000 A 
ATOM     31  CA  UNL     1      45.058   3.544   8.998  0.00  0.00    +0.000 A 
ATOM     32  N   UNL     1      44.498   4.684   9.480  0.00  0.00    +0.000 NA
BRANCH  31  33
ATOM     33  C   UNL     1      45.989   3.733   7.849  0.00  0.00    +0.000 C 
ATOM     34  O   UNL     1      46.617   4.750   7.626  0.00  0.00    +0.000 OA
BRANCH  33  35
ATOM     35  OXT UNL     1      46.048   2.610   7.091  0.00  0.00    +0.000 OA
ATOM     36  HXT UNL     1      46.346   1.859   7.657  0.00  0.00    +0.000 HD
ENDBRANCH  33  35
ENDBRANCH  31  33
ENDBRANCH  26  27
ENDBRANCH  24  26
ENDBRANCH  23  24
ENDBRANCH   4  23
TORSDOF 10
ENDMDL
MODEL 9
REMARK VINA RESULT:    -6.482      3.572      6.350
REMARK INTER + INTRA:         -11.724
REMARK INTER:                  -9.745
REMARK INTRA:                  -1.979
REMARK UNBOUND:                -1.641
REMARK  Name = 
REMARK  11 active torsions:
REMARK  status: ('A' for Active; 'I' for Inactive)
REMARK    1  A    between atoms: C_1  and  C_2
REMARK    2  A    between atoms: C_2  and  N_3
REMARK    3  A    between atoms: C_2  and  C_23
REMARK    4  A    between atoms: N_3  and  C_4
REMARK    5  A    between atoms: C_4  and  C_5
REMARK    6  A    between atoms: C_8  and  C_9
REMARK    7  A    between atoms: C_9  and  N_10
REMARK    8  A    between atoms: N_10  and  C_11
REMARK    9  A    between atoms: C_11  and  C_12
REMARK   10  A    between atoms: CA_16  and  C_17
REMARK   11  A    between atoms: C_17  and  OXT_19
REMARK                            x       y       z     vdW  Elec       q    Type
REMARK                         _______ _______ _______ _____ _____    ______ ____
ROOT
ATOM      1  C   UNL     1      49.144   8.172  19.441  0.00  0.00    +0.000 A 
ATOM      2  C   UNL     1      50.135   7.969  18.471  0.00  0.00    +0.000 A 
ATOM      3  C   UNL     1      49.937   8.384  17.152  0.00  0.00    +0.000 A 
ATOM      4  C   UNL     1      48.736   8.999  16.772  0.00  0.00    +0.000 A 
ATOM      5  C   UNL     1      47.750   9.214  17.744  0.00  0.00    +0.000 A 
ATOM      6  C   UNL     1      47.950   8.802  19.063  0.00  0.00    +0.000 A 
ENDROOT
BRANCH   1   7
ATOM      7  C   UNL     1      49.296   7.593  20.823  0.00  0.00    +0.000 C 
BRANCH   7   8
ATOM      8  N   UNL     1      49.945   6.275  20.864  0.00  0.00    +0.000 NA
ATOM      9  H   UNL     1      50.398   6.174  21.774  0.00  0.00    +0.000 HD
BRANCH   8  11
ATOM     10  C   UNL     1      47.575   5.633  21.320  0.00  0.00    +0.000 C 
ATOM     11  C   UNL     1      48.939   5.211  20.723  0.00  0.00    +0.000 C 
BRANCH  11  12
ATOM     12  C   UNL     1      48.682   4.868  19.268  0.00  0.00    +0.000 A 
ATOM     13  C   UNL     1      47.471   5.053  18.616  0.00  0.00    +0.000 A 
ATOM     14  S   UNL     1      47.259   3.940  17.331  0.00  0.00    +0.000 S 
ATOM     15  C   UNL     1      48.844   3.342  17.511  0.00  0.00    +0.000 A 
ATOM     16  N   UNL     1      49.298   2.277  16.795  0.00  0.00    +0.000 NA
ATOM     17  C   UNL     1      50.553   2.020  16.971  0.00  0.00    +0.000 A 
ATOM     18  N   UNL     1      51.399   2.747  17.768  0.00  0.00    +0.000 N 
ATOM     19  C   UNL     1      50.977   3.805  18.548  0.00  0.00    +0.000 A 
ATOM     20  O   UNL     1      51.754   4.465  19.219  0.00  0.00    +0.000 OA
ATOM     21  C   UNL     1      49.553   4.071  18.445  0.00  0.00    +0.000 A 
ATOM     22  H   UNL     1      52.389   2.551  17.784  0.00  0.00    +0.000 HD
ENDBRANCH  11  12
ENDBRANCH   8  11
ENDBRANCH   7   8
ENDBRANCH   1   7
BRANCH   4  23
ATOM     23  C   UNL     1      48.489   9.408  15.338  0.00  0.00    +0.000 C 
BRANCH  23  24
ATOM     24  N   UNL     1      47.259   8.873  14.759  0.00  0.00    +0.000 NA
ATOM     25  H   UNL     1      46.517   9.572  14.810  0.00  0.00    +0.000 HD
BRANCH  24  26
ATOM     26  C   UNL     1      47.411   8.488  13.347  0.00  0.00    +0.000 C 
BRANCH  26  27
ATOM     27  C   UNL     1      46.511   7.322  12.966  0.00  0.00    +0.000 A 
ATOM     28  N   UNL     1      45.343   7.608  12.343  0.00  0.00    +0.000 NA
ATOM     29  C   UNL     1      44.542   6.573  12.025  0.00  0.00    +0.000 A 
ATOM     30  C   UNL     1      44.856   5.268  12.297  0.00  0.00    +0.000 A 
ATOM     31  CA  UNL     1      46.070   5.082  12.922  0.00  0.00    +0.000 A 
ATOM     32  N   UNL     1      46.926   6.077  13.270  0.00  0.00    +0.000 NA
BRANCH  31  33
ATOM     33  C   UNL     1      46.527   3.705  13.265  0.00  0.00    +0.000 C 
ATOM     34  O   UNL     1      47.560   3.443  13.849  0.00  0.00    +0.000 OA
BRANCH  33  35
ATOM     35  OXT UNL     1      45.625   2.782  12.845  0.00  0.00    +0.000 OA
ATOM     36  HXT UNL     1      44.890   2.735  13.500  0.00  0.00    +0.000 HD
ENDBRANCH  33  35
ENDBRANCH  31  33
ENDBRANCH  26  27
ENDBRANCH  24  26
ENDBRANCH  23  24
ENDBRANCH   4  23
TORSDOF 10
ENDMDL
