MODEL 1
REMARK VINA RESULT:    -8.637      0.000      0.000
REMARK INTER + INTRA:         -11.973
REMARK INTER:                 -11.162
REMARK INTRA:                  -0.811
REMARK UNBOUND:                -0.811
REMARK  Name = 
REMARK  5 active torsions:
REMARK  status: ('A' for Active; 'I' for Inactive)
REMARK    1  A    between atoms: C_2  and  C_4
REMARK    2  A    between atoms: C_7  and  C_8
REMARK    3  A    between atoms: C_8  and  O_9
REMARK    4  A    between atoms: O_9  and  C_10
REMARK    5  A    between atoms: C_14  and  C_15
REMARK                            x       y       z     vdW  Elec       q    Type
REMARK                         _______ _______ _______ _____ _____    ______ ____
ROOT
ATOM      1  O   UNL     1      43.772   4.149  11.570  0.00  0.00    +0.000 OA
ENDROOT
BRANCH   1   2
ATOM      2  C   UNL     1      44.952   4.399  12.212  0.00  0.00    +0.000 A 
ATOM      3  C   UNL     1      45.492   3.345  12.936  0.00  0.00    +0.000 A 
ATOM      4  N   UNL     1      46.641   3.413  13.652  0.00  0.00    +0.000 NA
ATOM      5  C   UNL     1      47.257   4.617  13.704  0.00  0.00    +0.000 A 
ATOM      6  C   UNL     1      46.775   5.763  13.078  0.00  0.00    +0.000 A 
ATOM      7  C   UNL     1      45.636   5.613  12.262  0.00  0.00    +0.000 A 
BRANCH   6   8
ATOM      8  C   UNL     1      47.308   7.162  13.354  0.00  0.00    +0.000 C 
ATOM      9  C   UNL     1      47.593   7.996  12.096  0.00  0.00    +0.000 C 
ATOM     10  C   UNL     1      49.023   7.839  11.586  0.00  0.00    +0.000 C 
ATOM     11  C   UNL     1      50.032   8.050  12.709  0.00  0.00    +0.000 C 
ATOM     12  N   UNL     1      49.808   7.081  13.781  0.00  0.00    +0.000 NA
ATOM     13  C   UNL     1      48.476   7.240  14.371  0.00  0.00    +0.000 C 
ATOM     14  H   UNL     1      50.513   7.220  14.506  0.00  0.00    +0.000 HD
ENDBRANCH   6   8
ENDBRANCH   1   2
BRANCH   1  15
ATOM     15  C   UNL     1      43.653   4.619  10.227  0.00  0.00    +0.000 C 
BRANCH  15  19
ATOM     16  C   UNL     1      46.474   2.496   7.705  0.00  0.00    +0.000 A 
ATOM     17  C   UNL     1      46.434   3.894   7.678  0.00  0.00    +0.000 A 
ATOM     18  C   UNL     1      45.516   4.587   8.480  0.00  0.00    +0.000 A 
ATOM     19  C   UNL     1      44.619   3.895   9.309  0.00  0.00    +0.000 A 
ATOM     20  C   UNL     1      44.678   2.494   9.337  0.00  0.00    +0.000 A 
ATOM     21  C   UNL     1      45.588   1.800   8.535  0.00  0.00    +0.000 A 
BRANCH  16  23
ATOM     22  N   UNL     1      48.511   2.343   6.367  0.00  0.00    +0.000 N 
ATOM     23  C   UNL     1      47.415   1.698   6.869  0.00  0.00    +0.000 C 
ATOM     24  O   UNL     1      47.242   0.507   6.667  0.00  0.00    +0.000 OA
ATOM     25  H   UNL     1      49.189   1.757   5.896  0.00  0.00    +0.000 HD
ATOM     26  H   UNL     1      48.824   3.237   6.714  0.00  0.00    +0.000 HD
ENDBRANCH  16  23
ENDBRANCH  15  19
ENDBRANCH   1  15
TORSDOF 5
ENDMDL
MODEL 2
REMARK VINA RESULT:    -7.820      1.680      2.623
REMARK INTER + INTRA:         -10.917
REMARK INTER:                 -10.332
REMARK INTRA:                  -0.584
REMARK UNBOUND:                -0.811
REMARK  Name = 
REMARK  5 active torsions:
REMARK  status: ('A' for Active; 'I' for Inactive)
REMARK    1  A    between atoms: C_2  and  C_4
REMARK    2  A    between atoms: C_7  and  C_8
REMARK    3  A    between atoms: C_8  and  O_9
REMARK    4  A    between atoms: O_9  and  C_10
REMARK    5  A    between atoms: C_14  and  C_15
REMARK                            x       y       z     vdW  Elec       q    Type
REMARK                         _______ _______ _______ _____ _____    ______ ____
ROOT
ATOM      1  O   UNL     1      43.562   5.438  10.710  0.00  0.00    +0.000 OA
ENDROOT
BRANCH   1   2
ATOM      2  C   UNL     1      44.455   6.097  11.507  0.00  0.00    +0.000 A 
ATOM      3  C   UNL     1      44.386   7.483  11.490  0.00  0.00    +0.000 A 
ATOM      4  N   UNL     1      45.203   8.302  12.197  0.00  0.00    +0.000 NA
ATOM      5  C   UNL     1      46.187   7.711  12.914  0.00  0.00    +0.000 A 
ATOM      6  C   UNL     1      46.400   6.336  12.954  0.00  0.00    +0.000 A 
ATOM      7  C   UNL     1      45.459   5.526  12.286  0.00  0.00    +0.000 A 
BRANCH   6   8
ATOM      8  C   UNL     1      47.654   5.693  13.529  0.00  0.00    +0.000 C 
ATOM      9  C   UNL     1      47.436   4.296  14.130  0.00  0.00    +0.000 C 
ATOM     10  C   UNL     1      47.092   4.332  15.617  0.00  0.00    +0.000 C 
ATOM     11  C   UNL     1      48.088   5.189  16.390  0.00  0.00    +0.000 C 
ATOM     12  N   UNL     1      48.085   6.558  15.876  0.00  0.00    +0.000 NA
ATOM     13  C   UNL     1      48.493   6.597  14.470  0.00  0.00    +0.000 C 
ATOM     14  H   UNL     1      48.734   7.120  16.428  0.00  0.00    +0.000 HD
ENDBRANCH   6   8
ENDBRANCH   1   2
BRANCH   1  15
ATOM     15  C   UNL     1      43.673   4.015  10.651  0.00  0.00    +0.000 C 
BRANCH  15  19
ATOM     16  C   UNL     1      46.454   2.745   7.572  0.00  0.00    +0.000 A 
ATOM     17  C   UNL     1      46.113   4.097   7.686  0.00  0.00    +0.000 A 
ATOM     18  C   UNL     1      45.205   4.514   8.670  0.00  0.00    +0.000 A 
ATOM     19  C   UNL     1      44.616   3.587   9.543  0.00  0.00    +0.000 A 
ATOM     20  C   UNL     1      44.975   2.236   9.428  0.00  0.00    +0.000 A 
ATOM     21  C   UNL     1      45.876   1.817   8.445  0.00  0.00    +0.000 A 
BRANCH  16  23
ATOM     22  N   UNL     1      47.409   2.864   5.328  0.00  0.00    +0.000 N 
ATOM     23  C   UNL     1      47.400   2.234   6.542  0.00  0.00    +0.000 C 
ATOM     24  O   UNL     1      48.169   1.315   6.775  0.00  0.00    +0.000 OA
ATOM     25  H   UNL     1      48.133   2.571   4.685  0.00  0.00    +0.000 HD
ATOM     26  H   UNL     1      46.988   3.770   5.181  0.00  0.00    +0.000 HD
ENDBRANCH  16  23
ENDBRANCH  15  19
ENDBRANCH   1  15
TORSDOF 5
ENDMDL
MODEL 3
REMARK VINA RESULT:    -7.733      1.670      2.358
REMARK INTER + INTRA:         -10.804
REMARK INTER:                 -10.115
REMARK INTRA:                  -0.689
REMARK UNBOUND:                -0.811
REMARK  Name = 
REMARK  5 active torsions:
REMARK  status: ('A' for Active; 'I' for Inactive)
REMARK    1  A    between atoms: C_2  and  C_4
REMARK    2  A    between atoms: C_7  and  C_8
REMARK    3  A    between atoms: C_8  and  O_9
REMARK    4  A    between atoms: O_9  and  C_10
REMARK    5  A    between atoms: C_14  and  C_15
REMARK                            x       y       z     vdW  Elec       q    Type
REMARK                         _______ _______ _______ _____ _____    ______ ____
ROOT
ATOM      1  O   UNL     1      44.390   4.998  11.626  0.00  0.00    +0.000 OA
ENDROOT
BRANCH   1   2
ATOM      2  C   UNL     1      44.742   6.300  11.845  0.00  0.00    +0.000 A 
ATOM      3  C   UNL     1      43.959   7.260  11.218  0.00  0.00    +0.000 A 
ATOM      4  N   UNL     1      44.169   8.596  11.302  0.00  0.00    +0.000 NA
ATOM      5  C   UNL     1      45.257   9.001  11.997  0.00  0.00    +0.000 A 
ATOM      6  C   UNL     1      46.154   8.131  12.610  0.00  0.00    +0.000 A 
ATOM      7  C   UNL     1      45.832   6.759  12.582  0.00  0.00    +0.000 A 
BRANCH   6   8
ATOM      8  C   UNL     1      47.509   8.561  13.153  0.00  0.00    +0.000 C 
ATOM      9  C   UNL     1      48.426   9.233  12.119  0.00  0.00    +0.000 C 
ATOM     10  C   UNL     1      49.329   8.243  11.388  0.00  0.00    +0.000 C 
ATOM     11  C   UNL     1      50.065   7.341  12.372  0.00  0.00    +0.000 C 
ATOM     12  N   UNL     1      49.108   6.590  13.184  0.00  0.00    +0.000 NA
ATOM     13  C   UNL     1      48.267   7.489  13.979  0.00  0.00    +0.000 C 
ATOM     14  H   UNL     1      49.621   5.971  13.813  0.00  0.00    +0.000 HD
ENDBRANCH   6   8
ENDBRANCH   1   2
BRANCH   1  15
ATOM     15  C   UNL     1      43.791   4.692  10.366  0.00  0.00    +0.000 C 
BRANCH  15  19
ATOM     16  C   UNL     1      46.444   2.471   7.748  0.00  0.00    +0.000 A 
ATOM     17  C   UNL     1      45.655   1.788   8.679  0.00  0.00    +0.000 A 
ATOM     18  C   UNL     1      44.804   2.499   9.538  0.00  0.00    +0.000 A 
ATOM     19  C   UNL     1      44.741   3.901   9.488  0.00  0.00    +0.000 A 
ATOM     20  C   UNL     1      45.528   4.573   8.542  0.00  0.00    +0.000 A 
ATOM     21  C   UNL     1      46.379   3.867   7.688  0.00  0.00    +0.000 A 
BRANCH  16  23
ATOM     22  N   UNL     1      48.449   2.493   6.353  0.00  0.00    +0.000 N 
ATOM     23  C   UNL     1      47.379   1.778   6.817  0.00  0.00    +0.000 C 
ATOM     24  O   UNL     1      47.225   0.609   6.505  0.00  0.00    +0.000 OA
ATOM     25  H   UNL     1      49.125   1.971   5.812  0.00  0.00    +0.000 HD
ATOM     26  H   UNL     1      48.752   3.357   6.777  0.00  0.00    +0.000 HD
ENDBRANCH  16  23
ENDBRANCH  15  19
ENDBRANCH   1  15
TORSDOF 5
ENDMDL
MODEL 4
REMARK VINA RESULT:    -7.175      1.482      2.333
REMARK INTER + INTRA:         -10.083
REMARK INTER:                  -9.523
REMARK INTRA:                  -0.560
REMARK UNBOUND:                -0.811
REMARK  Name = 
REMARK  5 active torsions:
REMARK  status: ('A' for Active; 'I' for Inactive)
REMARK    1  A    between atoms: C_2  and  C_4
REMARK    2  A    between atoms: C_7  and  C_8
REMARK    3  A    between atoms: C_8  and  O_9
REMARK    4  A    between atoms: O_9  and  C_10
REMARK    5  A    between atoms: C_14  and  C_15
REMARK                            x       y       z     vdW  Elec       q    Type
REMARK                         _______ _______ _______ _____ _____    ______ ____
ROOT
ATOM      1  O   UNL     1      44.686   6.081  11.340  0.00  0.00    +0.000 OA
ENDROOT
BRANCH   1   2
ATOM      2  C   UNL     1      45.594   5.784  12.318  0.00  0.00    +0.000 A 
ATOM      3  C   UNL     1      45.265   4.730  13.160  0.00  0.00    +0.000 A 
ATOM      4  N   UNL     1      46.030   4.308  14.196  0.00  0.00    +0.000 NA
ATOM      5  C   UNL     1      47.157   5.014  14.450  0.00  0.00    +0.000 A 
ATOM      6  C   UNL     1      47.554   6.131  13.721  0.00  0.00    +0.000 A 
ATOM      7  C   UNL     1      46.780   6.463  12.591  0.00  0.00    +0.000 A 
BRANCH   6   8
ATOM      8  C   UNL     1      48.658   7.079  14.166  0.00  0.00    +0.000 C 
ATOM      9  C   UNL     1      49.276   6.743  15.532  0.00  0.00    +0.000 C 
ATOM     10  C   UNL     1      48.573   7.441  16.694  0.00  0.00    +0.000 C 
ATOM     11  C   UNL     1      48.430   8.935  16.431  0.00  0.00    +0.000 C 
ATOM     12  N   UNL     1      47.657   9.164  15.210  0.00  0.00    +0.000 NA
ATOM     13  C   UNL     1      48.329   8.589  14.042  0.00  0.00    +0.000 C 
ATOM     14  H   UNL     1      47.547  10.169  15.071  0.00  0.00    +0.000 HD
ENDBRANCH   6   8
ENDBRANCH   1   2
BRANCH   1  15
ATOM     15  C   UNL     1      43.897   5.001  10.840  0.00  0.00    +0.000 C 
BRANCH  15  19
ATOM     16  C   UNL     1      46.091   2.629   7.945  0.00  0.00    +0.000 A 
ATOM     17  C   UNL     1      45.336   1.992   8.936  0.00  0.00    +0.000 A 
ATOM     18  C   UNL     1      44.635   2.751   9.884  0.00  0.00    +0.000 A 
ATOM     19  C   UNL     1      44.688   4.154   9.863  0.00  0.00    +0.000 A 
ATOM     20  C   UNL     1      45.437   4.781   8.857  0.00  0.00    +0.000 A 
ATOM     21  C   UNL     1      46.141   4.027   7.914  0.00  0.00    +0.000 A 
BRANCH  16  23
ATOM     22  N   UNL     1      47.206   0.588   7.201  0.00  0.00    +0.000 N 
ATOM     23  C   UNL     1      46.870   1.883   6.917  0.00  0.00    +0.000 C 
ATOM     24  O   UNL     1      47.167   2.386   5.846  0.00  0.00    +0.000 OA
ATOM     25  H   UNL     1      47.638   0.070   6.447  0.00  0.00    +0.000 HD
ATOM     26  H   UNL     1      46.769   0.061   7.943  0.00  0.00    +0.000 HD
ENDBRANCH  16  23
ENDBRANCH  15  19
ENDBRANCH   1  15
TORSDOF 5
ENDMDL
MODEL 5
REMARK VINA RESULT:    -7.035      2.831      3.603
REMARK INTER + INTRA:          -9.902
REMARK INTER:                  -9.189
REMARK INTRA:                  -0.713
REMARK UNBOUND:                -0.811
REMARK  Name = 
REMARK  5 active torsions:
REMARK  status: ('A' for Active; 'I' for Inactive)
REMARK    1  A    between atoms: C_2  and  C_4
REMARK    2  A    between atoms: C_7  and  C_8
REMARK    3  A    between atoms: C_8  and  O_9
REMARK    4  A    between atoms: O_9  and  C_10
REMARK    5  A    between atoms: C_14  and  C_15
REMARK                            x       y       z     vdW  Elec       q    Type
REMARK                         _______ _______ _______ _____ _____    ______ ____
ROOT
ATOM      1  O   UNL     1      44.184   5.236  11.468  0.00  0.00    +0.000 OA
ENDROOT
BRANCH   1   2
ATOM      2  C   UNL     1      44.975   6.334  11.665  0.00  0.00    +0.000 A 
ATOM      3  C   UNL     1      46.259   6.089  12.131  0.00  0.00    +0.000 A 
ATOM      4  N   UNL     1      47.174   7.051  12.404  0.00  0.00    +0.000 NA
ATOM      5  C   UNL     1      46.769   8.335  12.266  0.00  0.00    +0.000 A 
ATOM      6  C   UNL     1      45.486   8.706  11.874  0.00  0.00    +0.000 A 
ATOM      7  C   UNL     1      44.607   7.668  11.502  0.00  0.00    +0.000 A 
BRANCH   6   8
ATOM      8  C   UNL     1      44.949  10.126  11.981  0.00  0.00    +0.000 C 
ATOM      9  C   UNL     1      43.704  10.404  11.124  0.00  0.00    +0.000 C 
ATOM     10  C   UNL     1      44.043  10.919   9.727  0.00  0.00    +0.000 C 
ATOM     11  C   UNL     1      45.019  12.088   9.796  0.00  0.00    +0.000 C 
ATOM     12  N   UNL     1      46.257  11.676  10.456  0.00  0.00    +0.000 NA
ATOM     13  C   UNL     1      46.007  11.250  11.835  0.00  0.00    +0.000 C 
ATOM     14  H   UNL     1      46.907  12.463  10.462  0.00  0.00    +0.000 HD
ENDBRANCH   6   8
ENDBRANCH   1   2
BRANCH   1  15
ATOM     15  C   UNL     1      43.743   4.988  10.133  0.00  0.00    +0.000 C 
BRANCH  15  19
ATOM     16  C   UNL     1      46.225   2.100   8.053  0.00  0.00    +0.000 A 
ATOM     17  C   UNL     1      45.306   1.663   9.013  0.00  0.00    +0.000 A 
ATOM     18  C   UNL     1      44.509   2.591   9.699  0.00  0.00    +0.000 A 
ATOM     19  C   UNL     1      44.628   3.966   9.446  0.00  0.00    +0.000 A 
ATOM     20  C   UNL     1      45.544   4.391   8.473  0.00  0.00    +0.000 A 
ATOM     21  C   UNL     1      46.342   3.469   7.790  0.00  0.00    +0.000 A 
BRANCH  16  23
ATOM     22  N   UNL     1      46.835  -0.167   7.384  0.00  0.00    +0.000 N 
ATOM     23  C   UNL     1      47.110   1.170   7.298  0.00  0.00    +0.000 C 
ATOM     24  O   UNL     1      48.023   1.577   6.598  0.00  0.00    +0.000 OA
ATOM     25  H   UNL     1      47.380  -0.768   6.778  0.00  0.00    +0.000 HD
ATOM     26  H   UNL     1      45.956  -0.522   7.731  0.00  0.00    +0.000 HD
ENDBRANCH  16  23
ENDBRANCH  15  19
ENDBRANCH   1  15
TORSDOF 5
ENDMDL
MODEL 6
REMARK VINA RESULT:    -6.755      4.570      8.171
REMARK INTER + INTRA:          -9.540
REMARK INTER:                  -8.981
REMARK INTRA:                  -0.559
REMARK UNBOUND:                -0.811
REMARK  Name = 
REMARK  5 active torsions:
REMARK  status: ('A' for Active; 'I' for Inactive)
REMARK    1  A    between atoms: C_2  and  C_4
REMARK    2  A    between atoms: C_7  and  C_8
REMARK    3  A    between atoms: C_8  and  O_9
REMARK    4  A    between atoms: O_9  and  C_10
REMARK    5  A    between atoms: C_14  and  C_15
REMARK                            x       y       z     vdW  Elec       q    Type
REMARK                         _______ _______ _______ _____ _____    ______ ____
ROOT
ATOM      1  O   UNL     1      47.416   3.141  14.906  0.00  0.00    +0.000 OA
ENDROOT
BRANCH   1   2
ATOM      2  C   UNL     1      46.911   3.974  13.946  0.00  0.00    +0.000 A 
ATOM      3  C   UNL     1      47.243   5.317  14.064  0.00  0.00    +0.000 A 
ATOM      4  N   UNL     1      46.818   6.289  13.221  0.00  0.00    +0.000 NA
ATOM      5  C   UNL     1      45.962   5.917  12.241  0.00  0.00    +0.000 A 
ATOM      6  C   UNL     1      45.503   4.615  12.065  0.00  0.00    +0.000 A 
ATOM      7  C   UNL     1      46.057   3.625  12.902  0.00  0.00    +0.000 A 
BRANCH   6   8
ATOM      8  C   UNL     1      44.345   4.245  11.149  0.00  0.00    +0.000 C 
ATOM      9  C   UNL     1      44.283   2.758  10.767  0.00  0.00    +0.000 C 
ATOM     10  C   UNL     1      45.051   2.437   9.488  0.00  0.00    +0.000 C 
ATOM     11  C   UNL     1      44.656   3.382   8.359  0.00  0.00    +0.000 C 
ATOM     12  N   UNL     1      44.934   4.767   8.737  0.00  0.00    +0.000 NA
ATOM     13  C   UNL     1      44.155   5.163   9.913  0.00  0.00    +0.000 C 
ATOM     14  H   UNL     1      44.691   5.378   7.956  0.00  0.00    +0.000 HD
ENDBRANCH   6   8
ENDBRANCH   1   2
BRANCH   1  15
ATOM     15  C   UNL     1      47.565   3.682  16.219  0.00  0.00    +0.000 C 
BRANCH  15  19
ATOM     16  C   UNL     1      51.571   2.947  17.713  0.00  0.00    +0.000 A 
ATOM     17  C   UNL     1      50.810   1.885  17.213  0.00  0.00    +0.000 A 
ATOM     18  C   UNL     1      49.510   2.112  16.740  0.00  0.00    +0.000 A 
ATOM     19  C   UNL     1      48.947   3.397  16.773  0.00  0.00    +0.000 A 
ATOM     20  C   UNL     1      49.724   4.456  17.265  0.00  0.00    +0.000 A 
ATOM     21  C   UNL     1      51.019   4.232  17.741  0.00  0.00    +0.000 A 
BRANCH  16  23
ATOM     22  N   UNL     1      53.119   2.837  19.599  0.00  0.00    +0.000 N 
ATOM     23  C   UNL     1      52.953   2.773  18.243  0.00  0.00    +0.000 C 
ATOM     24  O   UNL     1      53.899   2.542  17.507  0.00  0.00    +0.000 OA
ATOM     25  H   UNL     1      54.043   2.608  19.941  0.00  0.00    +0.000 HD
ATOM     26  H   UNL     1      52.348   2.767  20.247  0.00  0.00    +0.000 HD
ENDBRANCH  16  23
ENDBRANCH  15  19
ENDBRANCH   1  15
TORSDOF 5
ENDMDL
MODEL 7
REMARK VINA RESULT:    -6.641      3.181      5.768
REMARK INTER + INTRA:          -9.393
REMARK INTER:                  -8.738
REMARK INTRA:                  -0.655
REMARK UNBOUND:                -0.811
REMARK  Name = 
REMARK  5 active torsions:
REMARK  status: ('A' for Active; 'I' for Inactive)
REMARK    1  A    between atoms: C_2  and  C_4
REMARK    2  A    between atoms: C_7  and  C_8
REMARK    3  A    between atoms: C_8  and  O_9
REMARK    4  A    between atoms: O_9  and  C_10
REMARK    5  A    between atoms: C_14  and  C_15
REMARK                            x       y       z     vdW  Elec       q    Type
REMARK                         _______ _______ _______ _____ _____    ______ ____
ROOT
ATOM      1  O   UNL     1      47.937   7.594  14.195  0.00  0.00    +0.000 OA
ENDROOT
BRANCH   1   2
ATOM      2  C   UNL     1      48.862   7.144  15.095  0.00  0.00    +0.000 A 
ATOM      3  C   UNL     1      50.183   7.491  14.842  0.00  0.00    +0.000 A 
ATOM      4  N   UNL     1      51.235   7.117  15.610  0.00  0.00    +0.000 NA
ATOM      5  C   UNL     1      50.969   6.299  16.654  0.00  0.00    +0.000 A 
ATOM      6  C   UNL     1      49.697   5.828  16.966  0.00  0.00    +0.000 A 
ATOM      7  C   UNL     1      48.625   6.329  16.200  0.00  0.00    +0.000 A 
BRANCH   6   8
ATOM      8  C   UNL     1      49.435   4.704  17.959  0.00  0.00    +0.000 C 
ATOM      9  C   UNL     1      49.709   3.294  17.415  0.00  0.00    +0.000 C 
ATOM     10  C   UNL     1      48.483   2.653  16.769  0.00  0.00    +0.000 C 
ATOM     11  C   UNL     1      47.272   2.735  17.692  0.00  0.00    +0.000 C 
ATOM     12  N   UNL     1      46.963   4.130  18.001  0.00  0.00    +0.000 NA
ATOM     13  C   UNL     1      48.075   4.777  18.702  0.00  0.00    +0.000 C 
ATOM     14  H   UNL     1      46.132   4.162  18.593  0.00  0.00    +0.000 HD
ENDBRANCH   6   8
ENDBRANCH   1   2
BRANCH   1  15
ATOM     15  C   UNL     1      48.078   7.151  12.844  0.00  0.00    +0.000 C 
BRANCH  15  19
ATOM     16  C   UNL     1      45.076   4.203  11.790  0.00  0.00    +0.000 A 
ATOM     17  C   UNL     1      45.231   5.349  11.003  0.00  0.00    +0.000 A 
ATOM     18  C   UNL     1      46.190   6.313  11.345  0.00  0.00    +0.000 A 
ATOM     19  C   UNL     1      46.997   6.153  12.481  0.00  0.00    +0.000 A 
ATOM     20  C   UNL     1      46.841   4.993  13.255  0.00  0.00    +0.000 A 
ATOM     21  C   UNL     1      45.883   4.033  12.919  0.00  0.00    +0.000 A 
BRANCH  16  23
ATOM     22  N   UNL     1      43.644   2.369  12.534  0.00  0.00    +0.000 N 
ATOM     23  C   UNL     1      44.068   3.147  11.491  0.00  0.00    +0.000 C 
ATOM     24  O   UNL     1      43.604   2.999  10.372  0.00  0.00    +0.000 OA
ATOM     25  H   UNL     1      42.883   1.735  12.329  0.00  0.00    +0.000 HD
ATOM     26  H   UNL     1      43.801   2.619  13.499  0.00  0.00    +0.000 HD
ENDBRANCH  16  23
ENDBRANCH  15  19
ENDBRANCH   1  15
TORSDOF 5
ENDMDL
MODEL 8
REMARK VINA RESULT:    -6.417      3.317      5.976
REMARK INTER + INTRA:          -9.103
REMARK INTER:                  -8.428
REMARK INTRA:                  -0.675
REMARK UNBOUND:                -0.811
REMARK  Name = 
REMARK  5 active torsions:
REMARK  status: ('A' for Active; 'I' for Inactive)
REMARK    1  A    between atoms: C_2  and  C_4
REMARK    2  A    between atoms: C_7  and  C_8
REMARK    3  A    between atoms: C_8  and  O_9
REMARK    4  A    between atoms: O_9  and  C_10
REMARK    5  A    between atoms: C_14  and  C_15
REMARK                            x       y       z     vdW  Elec       q    Type
REMARK                         _______ _______ _______ _____ _____    ______ ____
ROOT
ATOM      1  O   UNL     1      48.104   7.572  14.169  0.00  0.00    +0.000 OA
ENDROOT
BRANCH   1   2
ATOM      2  C   UNL     1      49.053   7.151  15.059  0.00  0.00    +0.000 A 
ATOM      3  C   UNL     1      50.351   7.582  14.821  0.00  0.00    +0.000 A 
ATOM      4  N   UNL     1      51.422   7.249  15.582  0.00  0.00    +0.000 NA
ATOM      5  C   UNL     1      51.202   6.386  16.601  0.00  0.00    +0.000 A 
ATOM      6  C   UNL     1      49.960   5.832  16.894  0.00  0.00    +0.000 A 
ATOM      7  C   UNL     1      48.862   6.292  16.139  0.00  0.00    +0.000 A 
BRANCH   6   8
ATOM      8  C   UNL     1      49.762   4.666  17.853  0.00  0.00    +0.000 C 
ATOM      9  C   UNL     1      51.062   4.088  18.432  0.00  0.00    +0.000 C 
ATOM     10  C   UNL     1      51.639   2.953  17.590  0.00  0.00    +0.000 C 
ATOM     11  C   UNL     1      50.577   1.902  17.285  0.00  0.00    +0.000 C 
ATOM     12  N   UNL     1      49.461   2.505  16.557  0.00  0.00    +0.000 NA
ATOM     13  C   UNL     1      48.810   3.548  17.353  0.00  0.00    +0.000 C 
ATOM     14  H   UNL     1      48.779   1.779  16.336  0.00  0.00    +0.000 HD
ENDBRANCH   6   8
ENDBRANCH   1   2
BRANCH   1  15
ATOM     15  C   UNL     1      48.221   7.100  12.827  0.00  0.00    +0.000 C 
BRANCH  15  19
ATOM     16  C   UNL     1      45.074   4.244  11.951  0.00  0.00    +0.000 A 
ATOM     17  C   UNL     1      45.894   4.053  13.068  0.00  0.00    +0.000 A 
ATOM     18  C   UNL     1      46.922   4.964  13.351  0.00  0.00    +0.000 A 
ATOM     19  C   UNL     1      47.153   6.069  12.516  0.00  0.00    +0.000 A 
ATOM     20  C   UNL     1      46.316   6.256  11.407  0.00  0.00    +0.000 A 
ATOM     21  C   UNL     1      45.294   5.347  11.120  0.00  0.00    +0.000 A 
BRANCH  16  23
ATOM     22  N   UNL     1      43.696   2.293  12.461  0.00  0.00    +0.000 N 
ATOM     23  C   UNL     1      43.974   3.307  11.586  0.00  0.00    +0.000 C 
ATOM     24  O   UNL     1      43.316   3.455  10.569  0.00  0.00    +0.000 OA
ATOM     25  H   UNL     1      42.878   1.739  12.246  0.00  0.00    +0.000 HD
ATOM     26  H   UNL     1      44.031   2.287  13.413  0.00  0.00    +0.000 HD
ENDBRANCH  16  23
ENDBRANCH  15  19
ENDBRANCH   1  15
TORSDOF 5
ENDMDL
MODEL 9
REMARK VINA RESULT:    -5.971      4.006      6.155
REMARK INTER + INTRA:          -8.527
REMARK INTER:                  -7.938
REMARK INTRA:                  -0.589
REMARK UNBOUND:                -0.811
REMARK  Name = 
REMARK  5 active torsions:
REMARK  status: ('A' for Active; 'I' for Inactive)
REMARK    1  A    between atoms: C_2  and  C_4
REMARK    2  A    between atoms: C_7  and  C_8
REMARK    3  A    between atoms: C_8  and  O_9
REMARK    4  A    between atoms: O_9  and  C_10
REMARK    5  A    between atoms: C_14  and  C_15
REMARK                            x       y       z     vdW  Elec       q    Type
REMARK                         _______ _______ _______ _____ _____    ______ ____
ROOT
ATOM      1  O   UNL     1      48.902   6.543  13.945  0.00  0.00    +0.000 OA
ENDROOT
BRANCH   1   2
ATOM      2  C   UNL     1      49.149   6.543  15.289  0.00  0.00    +0.000 A 
ATOM      3  C   UNL     1      50.383   7.040  15.686  0.00  0.00    +0.000 A 
ATOM      4  N   UNL     1      50.811   7.097  16.971  0.00  0.00    +0.000 NA
ATOM      5  C   UNL     1      49.991   6.573  17.911  0.00  0.00    +0.000 A 
ATOM      6  C   UNL     1      48.762   5.984  17.628  0.00  0.00    +0.000 A 
ATOM      7  C   UNL     1      48.319   6.045  16.291  0.00  0.00    +0.000 A 
BRANCH   6   8
ATOM      8  C   UNL     1      47.971   5.159  18.633  0.00  0.00    +0.000 C 
ATOM      9  C   UNL     1      47.243   5.984  19.705  0.00  0.00    +0.000 C 
ATOM     10  C   UNL     1      48.085   6.215  20.957  0.00  0.00    +0.000 C 
ATOM     11  C   UNL     1      48.667   4.905  21.475  0.00  0.00    +0.000 C 
ATOM     12  N   UNL     1      49.508   4.284  20.453  0.00  0.00    +0.000 NA
ATOM     13  C   UNL     1      48.732   3.958  19.254  0.00  0.00    +0.000 C 
ATOM     14  H   UNL     1      49.911   3.426  20.832  0.00  0.00    +0.000 HD
ENDBRANCH   6   8
ENDBRANCH   1   2
BRANCH   1  15
ATOM     15  C   UNL     1      47.765   7.282  13.496  0.00  0.00    +0.000 C 
BRANCH  15  19
ATOM     16  C   UNL     1      44.965   4.854  11.240  0.00  0.00    +0.000 A 
ATOM     17  C   UNL     1      45.162   4.602  12.602  0.00  0.00    +0.000 A 
ATOM     18  C   UNL     1      46.076   5.374  13.335  0.00  0.00    +0.000 A 
ATOM     19  C   UNL     1      46.812   6.397  12.717  0.00  0.00    +0.000 A 
ATOM     20  C   UNL     1      46.596   6.648  11.355  0.00  0.00    +0.000 A 
ATOM     21  C   UNL     1      45.690   5.877  10.620  0.00  0.00    +0.000 A 
BRANCH  16  23
ATOM     22  N   UNL     1      43.964   4.365   9.067  0.00  0.00    +0.000 N 
ATOM     23  C   UNL     1      44.022   4.064  10.400  0.00  0.00    +0.000 C 
ATOM     24  O   UNL     1      43.352   3.156  10.866  0.00  0.00    +0.000 OA
ATOM     25  H   UNL     1      43.400   3.745   8.500  0.00  0.00    +0.000 HD
ATOM     26  H   UNL     1      44.670   4.916   8.601  0.00  0.00    +0.000 HD
ENDBRANCH  16  23
ENDBRANCH  15  19
ENDBRANCH   1  15
TORSDOF 5
ENDMDL
