MODEL 1
REMARK VINA RESULT:    -7.071      0.000      0.000
REMARK INTER + INTRA:          -9.636
REMARK INTER:                  -9.138
REMARK INTRA:                  -0.498
REMARK UNBOUND:                -0.498
REMARK  Name = 
REMARK  6 active torsions:
REMARK  status: ('A' for Active; 'I' for Inactive)
REMARK    1  A    between atoms: C_1  and  C_2
REMARK    2  A    between atoms: N_5  and  C_6
REMARK    3  A    between atoms: C_6  and  C_7
REMARK    4  A    between atoms: C_7  and  C_8
REMARK    5  A    between atoms: C_12  and  O_13
REMARK    6  A    between atoms: O_13  and  C_14
REMARK                            x       y       z     vdW  Elec       q    Type
REMARK                         _______ _______ _______ _____ _____    ______ ____
ROOT
ATOM      1  C   UNL     1      45.340   4.338  12.018  0.00  0.00    +0.000 A 
ATOM      2  C   UNL     1      45.733   5.650  11.733  0.00  0.00    +0.000 A 
ATOM      3  C   UNL     1      46.690   6.287  12.529  0.00  0.00    +0.000 A 
ATOM      4  C   UNL     1      47.267   5.623  13.614  0.00  0.00    +0.000 A 
ATOM      5  C   UNL     1      46.898   4.309  13.887  0.00  0.00    +0.000 A 
ATOM      6  C   UNL     1      45.945   3.672  13.092  0.00  0.00    +0.000 A 
ENDROOT
BRANCH   1   7
ATOM      7  C   UNL     1      44.286   3.642  11.188  0.00  0.00    +0.000 C 
BRANCH   7   8
ATOM      8  C   UNL     1      44.164   4.254   9.792  0.00  0.00    +0.000 C 
BRANCH   8  13
ATOM      9  C   UNL     1      47.101   1.077   7.258  0.00  0.00    +0.000 C 
ATOM     10  C   UNL     1      46.392   2.279   7.748  0.00  0.00    +0.000 A 
ATOM     11  C   UNL     1      46.521   3.611   7.296  0.00  0.00    +0.000 A 
ATOM     12  N   UNL     1      45.738   4.460   7.965  0.00  0.00    +0.000 NA
ATOM     13  N   UNL     1      45.093   3.671   8.844  0.00  0.00    +0.000 N 
ATOM     14  C   UNL     1      45.459   2.359   8.759  0.00  0.00    +0.000 A 
ENDBRANCH   8  13
ENDBRANCH   7   8
ENDBRANCH   1   7
BRANCH   5  15
ATOM     15  O   UNL     1      47.370   3.558  14.935  0.00  0.00    +0.000 OA
BRANCH  15  16
ATOM     16  C   UNL     1      47.306   4.106  16.268  0.00  0.00    +0.000 C 
ATOM     17  C   UNL     1      48.612   4.582  16.918  0.00  0.00    +0.000 C 
ATOM     18  O   UNL     1      48.423   3.711  18.059  0.00  0.00    +0.000 OA
ATOM     19  C   UNL     1      47.310   3.065  17.397  0.00  0.00    +0.000 C 
ENDBRANCH  15  16
ENDBRANCH   5  15
TORSDOF 5
ENDMDL
MODEL 2
REMARK VINA RESULT:    -6.763      2.101      3.166
REMARK INTER + INTRA:          -9.237
REMARK INTER:                  -8.767
REMARK INTRA:                  -0.470
REMARK UNBOUND:                -0.498
REMARK  Name = 
REMARK  6 active torsions:
REMARK  status: ('A' for Active; 'I' for Inactive)
REMARK    1  A    between atoms: C_1  and  C_2
REMARK    2  A    between atoms: N_5  and  C_6
REMARK    3  A    between atoms: C_6  and  C_7
REMARK    4  A    between atoms: C_7  and  C_8
REMARK    5  A    between atoms: C_12  and  O_13
REMARK    6  A    between atoms: O_13  and  C_14
REMARK                            x       y       z     vdW  Elec       q    Type
REMARK                         _______ _______ _______ _____ _____    ______ ____
ROOT
ATOM      1  C   UNL     1      44.224   4.660  10.487  0.00  0.00    +0.000 A 
ATOM      2  C   UNL     1      43.076   4.609  11.287  0.00  0.00    +0.000 A 
ATOM      3  C   UNL     1      43.032   5.303  12.499  0.00  0.00    +0.000 A 
ATOM      4  C   UNL     1      44.127   6.058  12.926  0.00  0.00    +0.000 A 
ATOM      5  C   UNL     1      45.262   6.133  12.124  0.00  0.00    +0.000 A 
ATOM      6  C   UNL     1      45.306   5.441  10.913  0.00  0.00    +0.000 A 
ENDROOT
BRANCH   1   7
ATOM      7  C   UNL     1      44.304   3.894   9.188  0.00  0.00    +0.000 C 
BRANCH   7   8
ATOM      8  C   UNL     1      44.874   2.488   9.389  0.00  0.00    +0.000 C 
BRANCH   8  13
ATOM      9  C   UNL     1      47.846   2.493   5.352  0.00  0.00    +0.000 C 
ATOM     10  C   UNL     1      47.089   2.109   6.562  0.00  0.00    +0.000 A 
ATOM     11  C   UNL     1      47.019   0.840   7.180  0.00  0.00    +0.000 A 
ATOM     12  N   UNL     1      46.232   0.835   8.259  0.00  0.00    +0.000 NA
ATOM     13  N   UNL     1      45.802   2.108   8.343  0.00  0.00    +0.000 N 
ATOM     14  C   UNL     1      46.280   2.905   7.344  0.00  0.00    +0.000 A 
ENDBRANCH   8  13
ENDBRANCH   7   8
ENDBRANCH   1   7
BRANCH   5  15
ATOM     15  O   UNL     1      46.409   6.816  12.440  0.00  0.00    +0.000 OA
BRANCH  15  16
ATOM     16  C   UNL     1      47.562   6.071  12.886  0.00  0.00    +0.000 C 
ATOM     17  C   UNL     1      47.550   5.501  14.310  0.00  0.00    +0.000 C 
ATOM     18  O   UNL     1      48.777   6.189  14.652  0.00  0.00    +0.000 OA
ATOM     19  C   UNL     1      48.724   6.928  13.409  0.00  0.00    +0.000 C 
ENDBRANCH  15  16
ENDBRANCH   5  15
TORSDOF 5
ENDMDL
MODEL 3
REMARK VINA RESULT:    -6.429      4.052      7.117
REMARK INTER + INTRA:          -8.806
REMARK INTER:                  -8.252
REMARK INTRA:                  -0.553
REMARK UNBOUND:                -0.498
REMARK  Name = 
REMARK  6 active torsions:
REMARK  status: ('A' for Active; 'I' for Inactive)
REMARK    1  A    between atoms: C_1  and  C_2
REMARK    2  A    between atoms: N_5  and  C_6
REMARK    3  A    between atoms: C_6  and  C_7
REMARK    4  A    between atoms: C_7  and  C_8
REMARK    5  A    between atoms: C_12  and  O_13
REMARK    6  A    between atoms: O_13  and  C_14
REMARK                            x       y       z     vdW  Elec       q    Type
REMARK                         _______ _______ _______ _____ _____    ______ ____
ROOT
ATOM      1  C   UNL     1      44.628   4.862  10.509  0.00  0.00    +0.000 A 
ATOM      2  C   UNL     1      43.990   3.692  10.938  0.00  0.00    +0.000 A 
ATOM      3  C   UNL     1      44.137   2.504  10.217  0.00  0.00    +0.000 A 
ATOM      4  C   UNL     1      44.925   2.466   9.064  0.00  0.00    +0.000 A 
ATOM      5  C   UNL     1      45.583   3.619   8.646  0.00  0.00    +0.000 A 
ATOM      6  C   UNL     1      45.437   4.805   9.366  0.00  0.00    +0.000 A 
ENDROOT
BRANCH   1   7
ATOM      7  C   UNL     1      44.458   6.163  11.256  0.00  0.00    +0.000 C 
BRANCH   7   8
ATOM      8  C   UNL     1      45.075   6.102  12.655  0.00  0.00    +0.000 C 
BRANCH   8  13
ATOM      9  C   UNL     1      49.563   8.051  11.565  0.00  0.00    +0.000 C 
ATOM     10  C   UNL     1      48.453   7.281  12.165  0.00  0.00    +0.000 A 
ATOM     11  C   UNL     1      48.516   6.329  13.206  0.00  0.00    +0.000 A 
ATOM     12  N   UNL     1      47.322   5.810  13.502  0.00  0.00    +0.000 NA
ATOM     13  N   UNL     1      46.485   6.439  12.658  0.00  0.00    +0.000 N 
ATOM     14  C   UNL     1      47.116   7.321  11.830  0.00  0.00    +0.000 A 
ENDBRANCH   8  13
ENDBRANCH   7   8
ENDBRANCH   1   7
BRANCH   5  15
ATOM     15  O   UNL     1      46.361   3.719   7.520  0.00  0.00    +0.000 OA
BRANCH  15  16
ATOM     16  C   UNL     1      46.549   2.550   6.697  0.00  0.00    +0.000 C 
ATOM     17  C   UNL     1      47.748   1.639   6.995  0.00  0.00    +0.000 C 
ATOM     18  O   UNL     1      48.249   1.769   5.643  0.00  0.00    +0.000 OA
ATOM     19  C   UNL     1      47.275   2.803   5.368  0.00  0.00    +0.000 C 
ENDBRANCH  15  16
ENDBRANCH   5  15
TORSDOF 5
ENDMDL
MODEL 4
REMARK VINA RESULT:    -6.420      2.659      4.230
REMARK INTER + INTRA:          -8.794
REMARK INTER:                  -8.253
REMARK INTRA:                  -0.541
REMARK UNBOUND:                -0.498
REMARK  Name = 
REMARK  6 active torsions:
REMARK  status: ('A' for Active; 'I' for Inactive)
REMARK    1  A    between atoms: C_1  and  C_2
REMARK    2  A    between atoms: N_5  and  C_6
REMARK    3  A    between atoms: C_6  and  C_7
REMARK    4  A    between atoms: C_7  and  C_8
REMARK    5  A    between atoms: C_12  and  O_13
REMARK    6  A    between atoms: O_13  and  C_14
REMARK                            x       y       z     vdW  Elec       q    Type
REMARK                         _______ _______ _______ _____ _____    ______ ____
ROOT
ATOM      1  C   UNL     1      45.065   4.500  11.619  0.00  0.00    +0.000 A 
ATOM      2  C   UNL     1      45.534   3.835  12.758  0.00  0.00    +0.000 A 
ATOM      3  C   UNL     1      46.467   4.448  13.598  0.00  0.00    +0.000 A 
ATOM      4  C   UNL     1      46.941   5.731  13.315  0.00  0.00    +0.000 A 
ATOM      5  C   UNL     1      46.460   6.409  12.198  0.00  0.00    +0.000 A 
ATOM      6  C   UNL     1      45.527   5.797  11.361  0.00  0.00    +0.000 A 
ENDROOT
BRANCH   1   7
ATOM      7  C   UNL     1      44.079   3.844  10.682  0.00  0.00    +0.000 C 
BRANCH   7   8
ATOM      8  C   UNL     1      44.352   4.206   9.221  0.00  0.00    +0.000 C 
BRANCH   8  13
ATOM      9  C   UNL     1      47.882   2.218   6.269  0.00  0.00    +0.000 C 
ATOM     10  C   UNL     1      46.823   2.428   7.279  0.00  0.00    +0.000 A 
ATOM     11  C   UNL     1      46.228   1.470   8.129  0.00  0.00    +0.000 A 
ATOM     12  N   UNL     1      45.290   1.996   8.920  0.00  0.00    +0.000 NA
ATOM     13  N   UNL     1      45.289   3.300   8.587  0.00  0.00    +0.000 N 
ATOM     14  C   UNL     1      46.183   3.605   7.602  0.00  0.00    +0.000 A 
ENDBRANCH   8  13
ENDBRANCH   7   8
ENDBRANCH   1   7
BRANCH   5  15
ATOM     15  O   UNL     1      46.864   7.657  11.799  0.00  0.00    +0.000 OA
BRANCH  15  16
ATOM     16  C   UNL     1      46.413   8.808  12.545  0.00  0.00    +0.000 C 
ATOM     17  C   UNL     1      45.100   9.478  12.119  0.00  0.00    +0.000 C 
ATOM     18  O   UNL     1      45.750  10.760  11.949  0.00  0.00    +0.000 OA
ATOM     19  C   UNL     1      47.046  10.142  12.123  0.00  0.00    +0.000 C 
ENDBRANCH  15  16
ENDBRANCH   5  15
TORSDOF 5
ENDMDL
MODEL 5
REMARK VINA RESULT:    -6.324      2.645      3.879
REMARK INTER + INTRA:          -8.670
REMARK INTER:                  -8.091
REMARK INTRA:                  -0.579
REMARK UNBOUND:                -0.498
REMARK  Name = 
REMARK  6 active torsions:
REMARK  status: ('A' for Active; 'I' for Inactive)
REMARK    1  A    between atoms: C_1  and  C_2
REMARK    2  A    between atoms: N_5  and  C_6
REMARK    3  A    between atoms: C_6  and  C_7
REMARK    4  A    between atoms: C_7  and  C_8
REMARK    5  A    between atoms: C_12  and  O_13
REMARK    6  A    between atoms: O_13  and  C_14
REMARK                            x       y       z     vdW  Elec       q    Type
REMARK                         _______ _______ _______ _____ _____    ______ ____
ROOT
ATOM      1  C   UNL     1      44.952   4.448  11.553  0.00  0.00    +0.000 A 
ATOM      2  C   UNL     1      45.500   3.663  12.573  0.00  0.00    +0.000 A 
ATOM      3  C   UNL     1      46.484   4.187  13.416  0.00  0.00    +0.000 A 
ATOM      4  C   UNL     1      46.930   5.501  13.254  0.00  0.00    +0.000 A 
ATOM      5  C   UNL     1      46.372   6.297  12.257  0.00  0.00    +0.000 A 
ATOM      6  C   UNL     1      45.389   5.773  11.417  0.00  0.00    +0.000 A 
ENDROOT
BRANCH   1   7
ATOM      7  C   UNL     1      43.910   3.891  10.613  0.00  0.00    +0.000 C 
BRANCH   7   8
ATOM      8  C   UNL     1      44.230   4.212   9.151  0.00  0.00    +0.000 C 
BRANCH   8  13
ATOM      9  C   UNL     1      47.808   2.117   6.333  0.00  0.00    +0.000 C 
ATOM     10  C   UNL     1      46.739   2.366   7.323  0.00  0.00    +0.000 A 
ATOM     11  C   UNL     1      46.150   1.447   8.219  0.00  0.00    +0.000 A 
ATOM     12  N   UNL     1      45.200   2.002   8.975  0.00  0.00    +0.000 NA
ATOM     13  N   UNL     1      45.184   3.286   8.573  0.00  0.00    +0.000 N 
ATOM     14  C   UNL     1      46.080   3.550   7.579  0.00  0.00    +0.000 A 
ENDBRANCH   8  13
ENDBRANCH   7   8
ENDBRANCH   1   7
BRANCH   5  15
ATOM     15  O   UNL     1      46.741   7.588  11.979  0.00  0.00    +0.000 OA
BRANCH  15  16
ATOM     16  C   UNL     1      48.047   8.044  12.389  0.00  0.00    +0.000 C 
ATOM     17  C   UNL     1      48.413   9.513  12.139  0.00  0.00    +0.000 C 
ATOM     18  O   UNL     1      49.589   9.144  11.379  0.00  0.00    +0.000 OA
ATOM     19  C   UNL     1      49.177   7.757  11.390  0.00  0.00    +0.000 C 
ENDBRANCH  15  16
ENDBRANCH   5  15
TORSDOF 5
ENDMDL
MODEL 6
REMARK VINA RESULT:    -5.877      3.103      4.614
REMARK INTER + INTRA:          -8.093
REMARK INTER:                  -7.491
REMARK INTRA:                  -0.602
REMARK UNBOUND:                -0.498
REMARK  Name = 
REMARK  6 active torsions:
REMARK  status: ('A' for Active; 'I' for Inactive)
REMARK    1  A    between atoms: C_1  and  C_2
REMARK    2  A    between atoms: N_5  and  C_6
REMARK    3  A    between atoms: C_6  and  C_7
REMARK    4  A    between atoms: C_7  and  C_8
REMARK    5  A    between atoms: C_12  and  O_13
REMARK    6  A    between atoms: O_13  and  C_14
REMARK                            x       y       z     vdW  Elec       q    Type
REMARK                         _______ _______ _______ _____ _____    ______ ____
ROOT
ATOM      1  C   UNL     1      44.807   5.426  12.991  0.00  0.00    +0.000 A 
ATOM      2  C   UNL     1      45.780   4.632  13.610  0.00  0.00    +0.000 A 
ATOM      3  C   UNL     1      47.115   5.043  13.634  0.00  0.00    +0.000 A 
ATOM      4  C   UNL     1      47.496   6.251  13.045  0.00  0.00    +0.000 A 
ATOM      5  C   UNL     1      46.530   7.058  12.449  0.00  0.00    +0.000 A 
ATOM      6  C   UNL     1      45.197   6.648  12.427  0.00  0.00    +0.000 A 
ENDROOT
BRANCH   1   7
ATOM      7  C   UNL     1      43.364   4.985  12.928  0.00  0.00    +0.000 C 
BRANCH   7   8
ATOM      8  C   UNL     1      42.821   5.014  11.498  0.00  0.00    +0.000 C 
BRANCH   8  13
ATOM      9  C   UNL     1      45.582   3.305   7.679  0.00  0.00    +0.000 C 
ATOM     10  C   UNL     1      44.773   3.422   8.911  0.00  0.00    +0.000 A 
ATOM     11  C   UNL     1      44.359   2.390   9.783  0.00  0.00    +0.000 A 
ATOM     12  N   UNL     1      43.627   2.841  10.804  0.00  0.00    +0.000 NA
ATOM     13  N   UNL     1      43.579   4.170  10.597  0.00  0.00    +0.000 N 
ATOM     14  C   UNL     1      44.242   4.564   9.471  0.00  0.00    +0.000 A 
ENDBRANCH   8  13
ENDBRANCH   7   8
ENDBRANCH   1   7
BRANCH   5  15
ATOM     15  O   UNL     1      46.778   8.249  11.816  0.00  0.00    +0.000 OA
BRANCH  15  16
ATOM     16  C   UNL     1      46.678   9.475  12.572  0.00  0.00    +0.000 C 
ATOM     17  C   UNL     1      46.309  10.760  11.820  0.00  0.00    +0.000 C 
ATOM     18  O   UNL     1      47.503  11.435  12.283  0.00  0.00    +0.000 OA
ATOM     19  C   UNL     1      48.011  10.192  12.823  0.00  0.00    +0.000 C 
ENDBRANCH  15  16
ENDBRANCH   5  15
TORSDOF 5
ENDMDL
MODEL 7
REMARK VINA RESULT:    -5.692      3.950      5.643
REMARK INTER + INTRA:          -7.853
REMARK INTER:                  -7.382
REMARK INTRA:                  -0.471
REMARK UNBOUND:                -0.498
REMARK  Name = 
REMARK  6 active torsions:
REMARK  status: ('A' for Active; 'I' for Inactive)
REMARK    1  A    between atoms: C_1  and  C_2
REMARK    2  A    between atoms: N_5  and  C_6
REMARK    3  A    between atoms: C_6  and  C_7
REMARK    4  A    between atoms: C_7  and  C_8
REMARK    5  A    between atoms: C_12  and  O_13
REMARK    6  A    between atoms: O_13  and  C_14
REMARK                            x       y       z     vdW  Elec       q    Type
REMARK                         _______ _______ _______ _____ _____    ______ ____
ROOT
ATOM      1  C   UNL     1      45.463   5.860  11.959  0.00  0.00    +0.000 A 
ATOM      2  C   UNL     1      46.612   6.248  12.658  0.00  0.00    +0.000 A 
ATOM      3  C   UNL     1      46.899   7.603  12.845  0.00  0.00    +0.000 A 
ATOM      4  C   UNL     1      46.043   8.586  12.343  0.00  0.00    +0.000 A 
ATOM      5  C   UNL     1      44.885   8.207  11.669  0.00  0.00    +0.000 A 
ATOM      6  C   UNL     1      44.598   6.854  11.483  0.00  0.00    +0.000 A 
ENDROOT
BRANCH   1   7
ATOM      7  C   UNL     1      45.150   4.402  11.720  0.00  0.00    +0.000 C 
BRANCH   7   8
ATOM      8  C   UNL     1      44.299   4.200  10.465  0.00  0.00    +0.000 C 
BRANCH   8  13
ATOM      9  C   UNL     1      46.740   3.153   6.213  0.00  0.00    +0.000 C 
ATOM     10  C   UNL     1      46.075   3.069   7.530  0.00  0.00    +0.000 A 
ATOM     11  C   UNL     1      45.866   1.923   8.329  0.00  0.00    +0.000 A 
ATOM     12  N   UNL     1      45.220   2.198   9.465  0.00  0.00    +0.000 NA
ATOM     13  N   UNL     1      45.022   3.528   9.403  0.00  0.00    +0.000 N 
ATOM     14  C   UNL     1      45.507   4.092   8.259  0.00  0.00    +0.000 A 
ENDBRANCH   8  13
ENDBRANCH   7   8
ENDBRANCH   1   7
BRANCH   5  15
ATOM     15  O   UNL     1      43.980   9.071  11.108  0.00  0.00    +0.000 OA
BRANCH  15  16
ATOM     16  C   UNL     1      44.043  10.470  11.457  0.00  0.00    +0.000 C 
ATOM     17  C   UNL     1      42.748  11.291  11.395  0.00  0.00    +0.000 C 
ATOM     18  O   UNL     1      43.336  12.247  10.481  0.00  0.00    +0.000 OA
ATOM     19  C   UNL     1      44.499  11.401  10.324  0.00  0.00    +0.000 C 
ENDBRANCH  15  16
ENDBRANCH   5  15
TORSDOF 5
ENDMDL
MODEL 8
REMARK VINA RESULT:    -5.531      4.010      6.937
REMARK INTER + INTRA:          -7.645
REMARK INTER:                  -7.065
REMARK INTRA:                  -0.581
REMARK UNBOUND:                -0.498
REMARK  Name = 
REMARK  6 active torsions:
REMARK  status: ('A' for Active; 'I' for Inactive)
REMARK    1  A    between atoms: C_1  and  C_2
REMARK    2  A    between atoms: N_5  and  C_6
REMARK    3  A    between atoms: C_6  and  C_7
REMARK    4  A    between atoms: C_7  and  C_8
REMARK    5  A    between atoms: C_12  and  O_13
REMARK    6  A    between atoms: O_13  and  C_14
REMARK                            x       y       z     vdW  Elec       q    Type
REMARK                         _______ _______ _______ _____ _____    ______ ____
ROOT
ATOM      1  C   UNL     1      47.175   7.012  12.721  0.00  0.00    +0.000 A 
ATOM      2  C   UNL     1      46.764   8.346  12.826  0.00  0.00    +0.000 A 
ATOM      3  C   UNL     1      45.551   8.756  12.266  0.00  0.00    +0.000 A 
ATOM      4  C   UNL     1      44.732   7.841  11.599  0.00  0.00    +0.000 A 
ATOM      5  C   UNL     1      45.122   6.508  11.512  0.00  0.00    +0.000 A 
ATOM      6  C   UNL     1      46.333   6.099  12.073  0.00  0.00    +0.000 A 
ENDROOT
BRANCH   1   7
ATOM      7  C   UNL     1      48.495   6.555  13.294  0.00  0.00    +0.000 C 
BRANCH   7   8
ATOM      8  C   UNL     1      48.674   7.005  14.745  0.00  0.00    +0.000 C 
BRANCH   8  13
ATOM      9  C   UNL     1      47.329   2.998  17.441  0.00  0.00    +0.000 C 
ATOM     10  C   UNL     1      48.057   4.151  16.871  0.00  0.00    +0.000 A 
ATOM     11  C   UNL     1      49.319   4.660  17.252  0.00  0.00    +0.000 A 
ATOM     12  N   UNL     1      49.683   5.725  16.534  0.00  0.00    +0.000 NA
ATOM     13  N   UNL     1      48.658   5.896  15.679  0.00  0.00    +0.000 N 
ATOM     14  C   UNL     1      47.656   4.985  15.849  0.00  0.00    +0.000 A 
ENDBRANCH   8  13
ENDBRANCH   7   8
ENDBRANCH   1   7
BRANCH   5  15
ATOM     15  O   UNL     1      44.424   5.521  10.864  0.00  0.00    +0.000 OA
BRANCH  15  16
ATOM     16  C   UNL     1      44.559   4.158  11.318  0.00  0.00    +0.000 C 
ATOM     17  C   UNL     1      44.235   3.031  10.329  0.00  0.00    +0.000 C 
ATOM     18  O   UNL     1      43.253   2.457  11.226  0.00  0.00    +0.000 OA
ATOM     19  C   UNL     1      43.353   3.611  12.094  0.00  0.00    +0.000 C 
ENDBRANCH  15  16
ENDBRANCH   5  15
TORSDOF 5
ENDMDL
MODEL 9
REMARK VINA RESULT:    -5.246      3.928      7.459
REMARK INTER + INTRA:          -7.277
REMARK INTER:                  -6.799
REMARK INTRA:                  -0.478
REMARK UNBOUND:                -0.498
REMARK  Name = 
REMARK  6 active torsions:
REMARK  status: ('A' for Active; 'I' for Inactive)
REMARK    1  A    between atoms: C_1  and  C_2
REMARK    2  A    between atoms: N_5  and  C_6
REMARK    3  A    between atoms: C_6  and  C_7
REMARK    4  A    between atoms: C_7  and  C_8
REMARK    5  A    between atoms: C_12  and  O_13
REMARK    6  A    between atoms: O_13  and  C_14
REMARK                            x       y       z     vdW  Elec       q    Type
REMARK                         _______ _______ _______ _____ _____    ______ ____
ROOT
ATOM      1  C   UNL     1      48.098   6.485  14.293  0.00  0.00    +0.000 A 
ATOM      2  C   UNL     1      48.105   7.565  13.402  0.00  0.00    +0.000 A 
ATOM      3  C   UNL     1      47.322   7.529  12.245  0.00  0.00    +0.000 A 
ATOM      4  C   UNL     1      46.520   6.419  11.965  0.00  0.00    +0.000 A 
ATOM      5  C   UNL     1      46.489   5.352  12.859  0.00  0.00    +0.000 A 
ATOM      6  C   UNL     1      47.270   5.389  14.015  0.00  0.00    +0.000 A 
ENDROOT
BRANCH   1   7
ATOM      7  C   UNL     1      48.959   6.491  15.534  0.00  0.00    +0.000 C 
BRANCH   7   8
ATOM      8  C   UNL     1      48.403   5.566  16.618  0.00  0.00    +0.000 C 
BRANCH   8  13
ATOM      9  C   UNL     1      52.534   3.228  18.230  0.00  0.00    +0.000 C 
ATOM     10  C   UNL     1      51.179   3.541  17.729  0.00  0.00    +0.000 A 
ATOM     11  C   UNL     1      50.152   2.639  17.372  0.00  0.00    +0.000 A 
ATOM     12  N   UNL     1      49.049   3.257  16.947  0.00  0.00    +0.000 NA
ATOM     13  N   UNL     1      49.361   4.563  17.040  0.00  0.00    +0.000 N 
ATOM     14  C   UNL     1      50.629   4.782  17.493  0.00  0.00    +0.000 A 
ENDBRANCH   8  13
ENDBRANCH   7   8
ENDBRANCH   1   7
BRANCH   5  15
ATOM     15  O   UNL     1      45.768   4.199  12.686  0.00  0.00    +0.000 OA
BRANCH  15  16
ATOM     16  C   UNL     1      44.633   4.213  11.795  0.00  0.00    +0.000 C 
ATOM     17  C   UNL     1      43.412   3.361  12.165  0.00  0.00    +0.000 C 
ATOM     18  O   UNL     1      43.462   2.650  10.904  0.00  0.00    +0.000 OA
ATOM     19  C   UNL     1      44.738   3.259  10.597  0.00  0.00    +0.000 C 
ENDBRANCH  15  16
ENDBRANCH   5  15
TORSDOF 5
ENDMDL
