MODEL 1
REMARK VINA RESULT:    -8.265      0.000      0.000
REMARK INTER + INTRA:         -12.882
REMARK INTER:                 -11.647
REMARK INTRA:                  -1.235
REMARK UNBOUND:                -1.235
REMARK  Name = 
REMARK  8 active torsions:
REMARK  status: ('A' for Active; 'I' for Inactive)
REMARK    1  A    between atoms: C_1  and  C_2
REMARK    2  A    between atoms: C_2  and  N_3
REMARK    3  A    between atoms: C_2  and  C_18
REMARK    4  A    between atoms: N_3  and  C_4
REMARK    5  A    between atoms: C_7  and  C_8
REMARK    6  A    between atoms: C_8  and  N_9
REMARK    7  A    between atoms: N_9  and  C_10
REMARK    8  A    between atoms: C_18  and  C_20
REMARK                            x       y       z     vdW  Elec       q    Type
REMARK                         _______ _______ _______ _____ _____    ______ ____
ROOT
ATOM      1  N   UNL     1      46.753   6.546  13.667  0.00  0.00    +0.000 N 
ATOM      2  H   UNL     1      46.337   7.475  13.627  0.00  0.00    +0.000 HD
ENDROOT
BRANCH   1   3
ATOM      3  C   UNL     1      46.054   5.686  12.829  0.00  0.00    +0.000 A 
ATOM      4  C   UNL     1      45.586   6.211  11.616  0.00  0.00    +0.000 A 
ATOM      5  C   UNL     1      44.934   5.411  10.677  0.00  0.00    +0.000 A 
ATOM      6  C   UNL     1      44.754   4.045  10.914  0.00  0.00    +0.000 A 
ATOM      7  C   UNL     1      45.214   3.514  12.124  0.00  0.00    +0.000 A 
ATOM      8  C   UNL     1      45.860   4.327  13.066  0.00  0.00    +0.000 A 
BRANCH   6   9
ATOM      9  C   UNL     1      44.039   3.178   9.904  0.00  0.00    +0.000 C 
BRANCH   9  10
ATOM     10  N   UNL     1      44.831   1.993   9.559  0.00  0.00    +0.000 NA
ATOM     11  H   UNL     1      44.206   1.316   9.119  0.00  0.00    +0.000 HD
BRANCH  10  12
ATOM     12  C   UNL     1      45.947   2.289   8.650  0.00  0.00    +0.000 C 
ATOM     13  C   UNL     1      45.474   3.314   7.603  0.00  0.00    +0.000 C 
ATOM     14  C   UNL     1      46.581   3.653   6.604  0.00  0.00    +0.000 C 
ATOM     15  C   UNL     1      47.148   2.407   5.933  0.00  0.00    +0.000 C 
ATOM     16  C   UNL     1      47.589   1.369   6.956  0.00  0.00    +0.000 C 
ATOM     17  C   UNL     1      46.471   1.030   7.939  0.00  0.00    +0.000 C 
ENDBRANCH  10  12
ENDBRANCH   9  10
ENDBRANCH   6   9
ENDBRANCH   1   3
BRANCH   1  19
ATOM     18  C   UNL     1      48.941   7.063  12.563  0.00  0.00    +0.000 C 
ATOM     19  C   UNL     1      48.223   6.576  13.818  0.00  0.00    +0.000 C 
BRANCH  19  20
ATOM     20  C   UNL     1      48.710   7.287  15.101  0.00  0.00    +0.000 C 
ATOM     21  O   UNL     1      48.393   8.458  15.331  0.00  0.00    +0.000 OA
BRANCH  20  22
ATOM     22  C   UNL     1      49.472   6.543  16.125  0.00  0.00    +0.000 A 
ATOM     23  C   UNL     1      50.823   6.804  16.309  0.00  0.00    +0.000 A 
ATOM     24  S   UNL     1      51.511   5.949  17.616  0.00  0.00    +0.000 S 
ATOM     25  C   UNL     1      50.036   5.169  17.949  0.00  0.00    +0.000 A 
ATOM     26  N   UNL     1      49.915   4.320  19.002  0.00  0.00    +0.000 NA
ATOM     27  C   UNL     1      48.738   3.794  19.128  0.00  0.00    +0.000 A 
ATOM     28  N   UNL     1      47.688   4.014  18.276  0.00  0.00    +0.000 N 
ATOM     29  C   UNL     1      47.826   4.731  17.111  0.00  0.00    +0.000 A 
ATOM     30  O   UNL     1      46.995   4.654  16.215  0.00  0.00    +0.000 OA
ATOM     31  C   UNL     1      49.061   5.491  17.021  0.00  0.00    +0.000 A 
ATOM     32  H   UNL     1      46.832   3.491  18.375  0.00  0.00    +0.000 HD
ENDBRANCH  20  22
ENDBRANCH  19  20
ENDBRANCH   1  19
TORSDOF 7
ENDMDL
MODEL 2
REMARK VINA RESULT:    -7.854      1.855      2.621
REMARK INTER + INTRA:         -12.303
REMARK INTER:                 -11.529
REMARK INTRA:                  -0.774
REMARK UNBOUND:                -1.235
REMARK  Name = 
REMARK  8 active torsions:
REMARK  status: ('A' for Active; 'I' for Inactive)
REMARK    1  A    between atoms: C_1  and  C_2
REMARK    2  A    between atoms: C_2  and  N_3
REMARK    3  A    between atoms: C_2  and  C_18
REMARK    4  A    between atoms: N_3  and  C_4
REMARK    5  A    between atoms: C_7  and  C_8
REMARK    6  A    between atoms: C_8  and  N_9
REMARK    7  A    between atoms: N_9  and  C_10
REMARK    8  A    between atoms: C_18  and  C_20
REMARK                            x       y       z     vdW  Elec       q    Type
REMARK                         _______ _______ _______ _____ _____    ______ ____
ROOT
ATOM      1  N   UNL     1      46.776   5.454  14.898  0.00  0.00    +0.000 N 
ATOM      2  H   UNL     1      46.303   6.303  15.204  0.00  0.00    +0.000 HD
ENDROOT
BRANCH   1   3
ATOM      3  C   UNL     1      46.282   5.064  13.660  0.00  0.00    +0.000 A 
ATOM      4  C   UNL     1      45.919   3.719  13.508  0.00  0.00    +0.000 A 
ATOM      5  C   UNL     1      45.349   3.245  12.325  0.00  0.00    +0.000 A 
ATOM      6  C   UNL     1      45.096   4.118  11.263  0.00  0.00    +0.000 A 
ATOM      7  C   UNL     1      45.459   5.462  11.405  0.00  0.00    +0.000 A 
ATOM      8  C   UNL     1      46.040   5.927  12.593  0.00  0.00    +0.000 A 
BRANCH   6   9
ATOM      9  C   UNL     1      44.489   3.607   9.977  0.00  0.00    +0.000 C 
BRANCH   9  10
ATOM     10  N   UNL     1      45.055   2.309   9.596  0.00  0.00    +0.000 NA
ATOM     11  H   UNL     1      44.331   1.602   9.722  0.00  0.00    +0.000 HD
BRANCH  10  12
ATOM     12  C   UNL     1      45.536   2.274   8.208  0.00  0.00    +0.000 C 
ATOM     13  C   UNL     1      46.589   1.157   8.078  0.00  0.00    +0.000 C 
ATOM     14  C   UNL     1      47.155   1.076   6.660  0.00  0.00    +0.000 C 
ATOM     15  C   UNL     1      47.714   2.414   6.190  0.00  0.00    +0.000 C 
ATOM     16  C   UNL     1      46.696   3.536   6.344  0.00  0.00    +0.000 C 
ATOM     17  C   UNL     1      46.150   3.613   7.767  0.00  0.00    +0.000 C 
ENDBRANCH  10  12
ENDBRANCH   9  10
ENDBRANCH   6   9
ENDBRANCH   1   3
BRANCH   1  19
ATOM     18  C   UNL     1      48.922   6.736  15.073  0.00  0.00    +0.000 C 
ATOM     19  C   UNL     1      48.199   5.411  15.297  0.00  0.00    +0.000 C 
BRANCH  19  20
ATOM     20  C   UNL     1      48.440   4.829  16.709  0.00  0.00    +0.000 C 
ATOM     21  O   UNL     1      47.490   4.500  17.425  0.00  0.00    +0.000 OA
BRANCH  20  22
ATOM     22  C   UNL     1      49.814   4.556  17.181  0.00  0.00    +0.000 A 
ATOM     23  C   UNL     1      50.611   5.600  17.632  0.00  0.00    +0.000 A 
ATOM     24  S   UNL     1      52.114   5.088  18.258  0.00  0.00    +0.000 S 
ATOM     25  C   UNL     1      51.766   3.461  17.903  0.00  0.00    +0.000 A 
ATOM     26  N   UNL     1      52.632   2.470  18.238  0.00  0.00    +0.000 NA
ATOM     27  C   UNL     1      52.238   1.283  17.900  0.00  0.00    +0.000 A 
ATOM     28  N   UNL     1      51.077   1.006  17.228  0.00  0.00    +0.000 N 
ATOM     29  C   UNL     1      50.265   1.997  16.727  0.00  0.00    +0.000 A 
ATOM     30  O   UNL     1      49.424   1.756  15.870  0.00  0.00    +0.000 OA
ATOM     31  C   UNL     1      50.559   3.324  17.238  0.00  0.00    +0.000 A 
ATOM     32  H   UNL     1      50.885   0.070  16.905  0.00  0.00    +0.000 HD
ENDBRANCH  20  22
ENDBRANCH  19  20
ENDBRANCH   1  19
TORSDOF 7
ENDMDL
MODEL 3
REMARK VINA RESULT:    -7.846      1.626      2.884
REMARK INTER + INTRA:         -12.291
REMARK INTER:                 -11.117
REMARK INTRA:                  -1.174
REMARK UNBOUND:                -1.235
REMARK  Name = 
REMARK  8 active torsions:
REMARK  status: ('A' for Active; 'I' for Inactive)
REMARK    1  A    between atoms: C_1  and  C_2
REMARK    2  A    between atoms: C_2  and  N_3
REMARK    3  A    between atoms: C_2  and  C_18
REMARK    4  A    between atoms: N_3  and  C_4
REMARK    5  A    between atoms: C_7  and  C_8
REMARK    6  A    between atoms: C_8  and  N_9
REMARK    7  A    between atoms: N_9  and  C_10
REMARK    8  A    between atoms: C_18  and  C_20
REMARK                            x       y       z     vdW  Elec       q    Type
REMARK                         _______ _______ _______ _____ _____    ______ ____
ROOT
ATOM      1  N   UNL     1      47.021   5.176  14.835  0.00  0.00    +0.000 N 
ATOM      2  H   UNL     1      47.901   5.634  14.605  0.00  0.00    +0.000 HD
ENDROOT
BRANCH   1   3
ATOM      3  C   UNL     1      46.282   4.978  13.675  0.00  0.00    +0.000 A 
ATOM      4  C   UNL     1      46.516   5.854  12.607  0.00  0.00    +0.000 A 
ATOM      5  C   UNL     1      45.875   5.696  11.377  0.00  0.00    +0.000 A 
ATOM      6  C   UNL     1      44.995   4.629  11.171  0.00  0.00    +0.000 A 
ATOM      7  C   UNL     1      44.752   3.752  12.234  0.00  0.00    +0.000 A 
ATOM      8  C   UNL     1      45.394   3.924  13.468  0.00  0.00    +0.000 A 
BRANCH   6   9
ATOM      9  C   UNL     1      44.291   4.461   9.845  0.00  0.00    +0.000 C 
BRANCH   9  10
ATOM     10  N   UNL     1      45.191   4.740   8.721  0.00  0.00    +0.000 NA
ATOM     11  H   UNL     1      46.060   5.116   9.101  0.00  0.00    +0.000 HD
BRANCH  10  12
ATOM     12  C   UNL     1      45.487   3.552   7.908  0.00  0.00    +0.000 C 
ATOM     13  C   UNL     1      45.771   2.368   8.851  0.00  0.00    +0.000 C 
ATOM     14  C   UNL     1      46.112   1.096   8.073  0.00  0.00    +0.000 C 
ATOM     15  C   UNL     1      47.267   1.313   7.102  0.00  0.00    +0.000 C 
ATOM     16  C   UNL     1      47.016   2.503   6.185  0.00  0.00    +0.000 C 
ATOM     17  C   UNL     1      46.690   3.767   6.975  0.00  0.00    +0.000 C 
ENDBRANCH  10  12
ENDBRANCH   9  10
ENDBRANCH   6   9
ENDBRANCH   1   3
BRANCH   1  19
ATOM     18  C   UNL     1      47.977   2.976  15.559  0.00  0.00    +0.000 C 
ATOM     19  C   UNL     1      47.148   4.200  15.938  0.00  0.00    +0.000 C 
BRANCH  19  20
ATOM     20  C   UNL     1      47.583   4.824  17.284  0.00  0.00    +0.000 C 
ATOM     21  O   UNL     1      46.751   5.073  18.161  0.00  0.00    +0.000 OA
BRANCH  20  22
ATOM     22  C   UNL     1      49.015   5.031  17.584  0.00  0.00    +0.000 A 
ATOM     23  C   UNL     1      49.593   4.397  18.676  0.00  0.00    +0.000 A 
ATOM     24  S   UNL     1      51.277   4.646  18.796  0.00  0.00    +0.000 S 
ATOM     25  C   UNL     1      51.280   5.646  17.420  0.00  0.00    +0.000 A 
ATOM     26  N   UNL     1      52.437   6.164  16.933  0.00  0.00    +0.000 NA
ATOM     27  C   UNL     1      52.285   6.912  15.886  0.00  0.00    +0.000 A 
ATOM     28  N   UNL     1      51.080   7.214  15.309  0.00  0.00    +0.000 N 
ATOM     29  C   UNL     1      49.882   6.844  15.875  0.00  0.00    +0.000 A 
ATOM     30  O   UNL     1      48.831   7.378  15.542  0.00  0.00    +0.000 OA
ATOM     31  C   UNL     1      50.001   5.856  16.932  0.00  0.00    +0.000 A 
ATOM     32  H   UNL     1      51.027   7.886  14.559  0.00  0.00    +0.000 HD
ENDBRANCH  20  22
ENDBRANCH  19  20
ENDBRANCH   1  19
TORSDOF 7
ENDMDL
MODEL 4
REMARK VINA RESULT:    -7.845      1.638      1.999
REMARK INTER + INTRA:         -12.290
REMARK INTER:                 -11.149
REMARK INTRA:                  -1.141
REMARK UNBOUND:                -1.235
REMARK  Name = 
REMARK  8 active torsions:
REMARK  status: ('A' for Active; 'I' for Inactive)
REMARK    1  A    between atoms: C_1  and  C_2
REMARK    2  A    between atoms: C_2  and  N_3
REMARK    3  A    between atoms: C_2  and  C_18
REMARK    4  A    between atoms: N_3  and  C_4
REMARK    5  A    between atoms: C_7  and  C_8
REMARK    6  A    between atoms: C_8  and  N_9
REMARK    7  A    between atoms: N_9  and  C_10
REMARK    8  A    between atoms: C_18  and  C_20
REMARK                            x       y       z     vdW  Elec       q    Type
REMARK                         _______ _______ _______ _____ _____    ______ ____
ROOT
ATOM      1  N   UNL     1      47.066   6.986  13.973  0.00  0.00    +0.000 N 
ATOM      2  H   UNL     1      46.711   7.940  13.922  0.00  0.00    +0.000 HD
ENDROOT
BRANCH   1   3
ATOM      3  C   UNL     1      46.314   6.163  13.145  0.00  0.00    +0.000 A 
ATOM      4  C   UNL     1      45.734   6.750  12.012  0.00  0.00    +0.000 A 
ATOM      5  C   UNL     1      45.018   5.993  11.082  0.00  0.00    +0.000 A 
ATOM      6  C   UNL     1      44.886   4.612  11.247  0.00  0.00    +0.000 A 
ATOM      7  C   UNL     1      45.458   4.019  12.378  0.00  0.00    +0.000 A 
ATOM      8  C   UNL     1      46.167   4.788  13.311  0.00  0.00    +0.000 A 
BRANCH   6   9
ATOM      9  C   UNL     1      44.103   3.791  10.249  0.00  0.00    +0.000 C 
BRANCH   9  10
ATOM     10  N   UNL     1      44.298   4.283   8.881  0.00  0.00    +0.000 NA
ATOM     11  H   UNL     1      44.850   5.139   8.931  0.00  0.00    +0.000 HD
BRANCH  10  12
ATOM     12  C   UNL     1      44.979   3.314   8.010  0.00  0.00    +0.000 C 
ATOM     13  C   UNL     1      45.431   2.115   8.865  0.00  0.00    +0.000 C 
ATOM     14  C   UNL     1      46.172   1.071   8.027  0.00  0.00    +0.000 C 
ATOM     15  C   UNL     1      47.347   1.678   7.268  0.00  0.00    +0.000 C 
ATOM     16  C   UNL     1      46.922   2.887   6.444  0.00  0.00    +0.000 C 
ATOM     17  C   UNL     1      46.196   3.924   7.296  0.00  0.00    +0.000 C 
ENDBRANCH  10  12
ENDBRANCH   9  10
ENDBRANCH   6   9
ENDBRANCH   1   3
BRANCH   1  19
ATOM     18  C   UNL     1      49.276   6.991  12.793  0.00  0.00    +0.000 C 
ATOM     19  C   UNL     1      48.535   6.925  14.126  0.00  0.00    +0.000 C 
BRANCH  19  20
ATOM     20  C   UNL     1      49.102   7.908  15.175  0.00  0.00    +0.000 C 
ATOM     21  O   UNL     1      49.833   8.842  14.833  0.00  0.00    +0.000 OA
BRANCH  20  22
ATOM     22  C   UNL     1      48.690   7.811  16.591  0.00  0.00    +0.000 A 
ATOM     23  C   UNL     1      48.121   8.908  17.223  0.00  0.00    +0.000 A 
ATOM     24  S   UNL     1      47.589   8.579  18.811  0.00  0.00    +0.000 S 
ATOM     25  C   UNL     1      48.143   6.973  18.720  0.00  0.00    +0.000 A 
ATOM     26  N   UNL     1      47.950   6.106  19.747  0.00  0.00    +0.000 NA
ATOM     27  C   UNL     1      48.432   4.922  19.540  0.00  0.00    +0.000 A 
ATOM     28  N   UNL     1      49.116   4.541  18.416  0.00  0.00    +0.000 N 
ATOM     29  C   UNL     1      49.473   5.437  17.436  0.00  0.00    +0.000 A 
ATOM     30  O   UNL     1      50.341   5.168  16.615  0.00  0.00    +0.000 OA
ATOM     31  C   UNL     1      48.802   6.722  17.529  0.00  0.00    +0.000 A 
ATOM     32  H   UNL     1      49.553   3.633  18.367  0.00  0.00    +0.000 HD
ENDBRANCH  20  22
ENDBRANCH  19  20
ENDBRANCH   1  19
TORSDOF 7
ENDMDL
MODEL 5
REMARK VINA RESULT:    -7.768      1.408      2.275
REMARK INTER + INTRA:         -12.182
REMARK INTER:                 -11.181
REMARK INTRA:                  -1.001
REMARK UNBOUND:                -1.235
REMARK  Name = 
REMARK  8 active torsions:
REMARK  status: ('A' for Active; 'I' for Inactive)
REMARK    1  A    between atoms: C_1  and  C_2
REMARK    2  A    between atoms: C_2  and  N_3
REMARK    3  A    between atoms: C_2  and  C_18
REMARK    4  A    between atoms: N_3  and  C_4
REMARK    5  A    between atoms: C_7  and  C_8
REMARK    6  A    between atoms: C_8  and  N_9
REMARK    7  A    between atoms: N_9  and  C_10
REMARK    8  A    between atoms: C_18  and  C_20
REMARK                            x       y       z     vdW  Elec       q    Type
REMARK                         _______ _______ _______ _____ _____    ______ ____
ROOT
ATOM      1  N   UNL     1      46.887   6.265  14.010  0.00  0.00    +0.000 N 
ATOM      2  H   UNL     1      46.369   7.112  14.239  0.00  0.00    +0.000 HD
ENDROOT
BRANCH   1   3
ATOM      3  C   UNL     1      46.245   5.591  12.979  0.00  0.00    +0.000 A 
ATOM      4  C   UNL     1      45.910   4.248  13.200  0.00  0.00    +0.000 A 
ATOM      5  C   UNL     1      45.203   3.506  12.252  0.00  0.00    +0.000 A 
ATOM      6  C   UNL     1      44.783   4.100  11.059  0.00  0.00    +0.000 A 
ATOM      7  C   UNL     1      45.118   5.439  10.828  0.00  0.00    +0.000 A 
ATOM      8  C   UNL     1      45.836   6.174  11.781  0.00  0.00    +0.000 A 
BRANCH   6   9
ATOM      9  C   UNL     1      44.027   3.296  10.026  0.00  0.00    +0.000 C 
BRANCH   9  10
ATOM     10  N   UNL     1      44.758   2.081   9.653  0.00  0.00    +0.000 NA
ATOM     11  H   UNL     1      44.096   1.440   9.213  0.00  0.00    +0.000 HD
BRANCH  10  12
ATOM     12  C   UNL     1      45.874   2.337   8.732  0.00  0.00    +0.000 C 
ATOM     13  C   UNL     1      45.419   3.364   7.678  0.00  0.00    +0.000 C 
ATOM     14  C   UNL     1      46.525   3.664   6.666  0.00  0.00    +0.000 C 
ATOM     15  C   UNL     1      47.054   2.395   6.005  0.00  0.00    +0.000 C 
ATOM     16  C   UNL     1      47.477   1.357   7.035  0.00  0.00    +0.000 C 
ATOM     17  C   UNL     1      46.358   1.058   8.030  0.00  0.00    +0.000 C 
ENDBRANCH  10  12
ENDBRANCH   9  10
ENDBRANCH   6   9
ENDBRANCH   1   3
BRANCH   1  19
ATOM     18  C   UNL     1      48.957   7.252  13.002  0.00  0.00    +0.000 C 
ATOM     19  C   UNL     1      48.351   6.430  14.136  0.00  0.00    +0.000 C 
BRANCH  19  20
ATOM     20  C   UNL     1      48.813   6.905  15.533  0.00  0.00    +0.000 C 
ATOM     21  O   UNL     1      48.762   8.099  15.841  0.00  0.00    +0.000 OA
BRANCH  20  22
ATOM     22  C   UNL     1      49.221   5.923  16.559  0.00  0.00    +0.000 A 
ATOM     23  C   UNL     1      48.257   5.205  17.252  0.00  0.00    +0.000 A 
ATOM     24  S   UNL     1      48.908   4.027  18.303  0.00  0.00    +0.000 S 
ATOM     25  C   UNL     1      50.499   4.473  17.899  0.00  0.00    +0.000 A 
ATOM     26  N   UNL     1      51.565   3.810  18.418  0.00  0.00    +0.000 NA
ATOM     27  C   UNL     1      52.714   4.263  18.027  0.00  0.00    +0.000 A 
ATOM     28  N   UNL     1      52.889   5.338  17.196  0.00  0.00    +0.000 N 
ATOM     29  C   UNL     1      51.841   6.131  16.791  0.00  0.00    +0.000 A 
ATOM     30  O   UNL     1      52.033   7.248  16.329  0.00  0.00    +0.000 OA
ATOM     31  C   UNL     1      50.530   5.561  17.044  0.00  0.00    +0.000 A 
ATOM     32  H   UNL     1      53.814   5.700  17.018  0.00  0.00    +0.000 HD
ENDBRANCH  20  22
ENDBRANCH  19  20
ENDBRANCH   1  19
TORSDOF 7
ENDMDL
MODEL 6
REMARK VINA RESULT:    -7.679      1.832      2.303
REMARK INTER + INTRA:         -12.057
REMARK INTER:                 -10.974
REMARK INTRA:                  -1.082
REMARK UNBOUND:                -1.235
REMARK  Name = 
REMARK  8 active torsions:
REMARK  status: ('A' for Active; 'I' for Inactive)
REMARK    1  A    between atoms: C_1  and  C_2
REMARK    2  A    between atoms: C_2  and  N_3
REMARK    3  A    between atoms: C_2  and  C_18
REMARK    4  A    between atoms: N_3  and  C_4
REMARK    5  A    between atoms: C_7  and  C_8
REMARK    6  A    between atoms: C_8  and  N_9
REMARK    7  A    between atoms: N_9  and  C_10
REMARK    8  A    between atoms: C_18  and  C_20
REMARK                            x       y       z     vdW  Elec       q    Type
REMARK                         _______ _______ _______ _____ _____    ______ ____
ROOT
ATOM      1  N   UNL     1      47.276   6.902  13.895  0.00  0.00    +0.000 N 
ATOM      2  H   UNL     1      46.970   7.870  13.822  0.00  0.00    +0.000 HD
ENDROOT
BRANCH   1   3
ATOM      3  C   UNL     1      46.487   6.100  13.080  0.00  0.00    +0.000 A 
ATOM      4  C   UNL     1      46.065   6.644  11.859  0.00  0.00    +0.000 A 
ATOM      5  C   UNL     1      45.327   5.895  10.941  0.00  0.00    +0.000 A 
ATOM      6  C   UNL     1      45.013   4.559  11.209  0.00  0.00    +0.000 A 
ATOM      7  C   UNL     1      45.426   4.010  12.427  0.00  0.00    +0.000 A 
ATOM      8  C   UNL     1      46.159   4.773  13.348  0.00  0.00    +0.000 A 
BRANCH   6   9
ATOM      9  C   UNL     1      44.206   3.748  10.222  0.00  0.00    +0.000 C 
BRANCH   9  10
ATOM     10  N   UNL     1      44.382   4.241   8.852  0.00  0.00    +0.000 NA
ATOM     11  H   UNL     1      44.929   5.101   8.897  0.00  0.00    +0.000 HD
BRANCH  10  12
ATOM     12  C   UNL     1      45.058   3.277   7.974  0.00  0.00    +0.000 C 
ATOM     13  C   UNL     1      45.506   2.070   8.818  0.00  0.00    +0.000 C 
ATOM     14  C   UNL     1      46.243   1.030   7.972  0.00  0.00    +0.000 C 
ATOM     15  C   UNL     1      47.420   1.638   7.217  0.00  0.00    +0.000 C 
ATOM     16  C   UNL     1      46.999   2.854   6.403  0.00  0.00    +0.000 C 
ATOM     17  C   UNL     1      46.277   3.888   7.263  0.00  0.00    +0.000 C 
ENDBRANCH  10  12
ENDBRANCH   9  10
ENDBRANCH   6   9
ENDBRANCH   1   3
BRANCH   1  19
ATOM     18  C   UNL     1      49.527   7.468  12.952  0.00  0.00    +0.000 C 
ATOM     19  C   UNL     1      48.740   6.769  14.057  0.00  0.00    +0.000 C 
BRANCH  19  20
ATOM     20  C   UNL     1      49.252   7.122  15.472  0.00  0.00    +0.000 C 
ATOM     21  O   UNL     1      50.011   8.080  15.646  0.00  0.00    +0.000 OA
BRANCH  20  22
ATOM     22  C   UNL     1      48.755   6.385  16.653  0.00  0.00    +0.000 A 
ATOM     23  C   UNL     1      48.675   5.000  16.621  0.00  0.00    +0.000 A 
ATOM     24  S   UNL     1      48.204   4.310  18.110  0.00  0.00    +0.000 S 
ATOM     25  C   UNL     1      48.047   5.844  18.829  0.00  0.00    +0.000 A 
ATOM     26  N   UNL     1      47.715   5.972  20.140  0.00  0.00    +0.000 NA
ATOM     27  C   UNL     1      47.625   7.198  20.548  0.00  0.00    +0.000 A 
ATOM     28  N   UNL     1      47.801   8.301  19.755  0.00  0.00    +0.000 N 
ATOM     29  C   UNL     1      47.971   8.206  18.393  0.00  0.00    +0.000 A 
ATOM     30  O   UNL     1      47.806   9.176  17.664  0.00  0.00    +0.000 OA
ATOM     31  C   UNL     1      48.265   6.865  17.921  0.00  0.00    +0.000 A 
ATOM     32  H   UNL     1      47.613   9.224  20.115  0.00  0.00    +0.000 HD
ENDBRANCH  20  22
ENDBRANCH  19  20
ENDBRANCH   1  19
TORSDOF 7
ENDMDL
MODEL 7
REMARK VINA RESULT:    -7.525      1.333      2.014
REMARK INTER + INTRA:         -11.839
REMARK INTER:                 -10.674
REMARK INTRA:                  -1.165
REMARK UNBOUND:                -1.235
REMARK  Name = 
REMARK  8 active torsions:
REMARK  status: ('A' for Active; 'I' for Inactive)
REMARK    1  A    between atoms: C_1  and  C_2
REMARK    2  A    between atoms: C_2  and  N_3
REMARK    3  A    between atoms: C_2  and  C_18
REMARK    4  A    between atoms: N_3  and  C_4
REMARK    5  A    between atoms: C_7  and  C_8
REMARK    6  A    between atoms: C_8  and  N_9
REMARK    7  A    between atoms: N_9  and  C_10
REMARK    8  A    between atoms: C_18  and  C_20
REMARK                            x       y       z     vdW  Elec       q    Type
REMARK                         _______ _______ _______ _____ _____    ______ ____
ROOT
ATOM      1  N   UNL     1      47.927   6.598  13.514  0.00  0.00    +0.000 N 
ATOM      2  H   UNL     1      48.048   6.020  14.344  0.00  0.00    +0.000 HD
ENDROOT
BRANCH   1   3
ATOM      3  C   UNL     1      47.047   5.978  12.637  0.00  0.00    +0.000 A 
ATOM      4  C   UNL     1      46.351   4.858  13.112  0.00  0.00    +0.000 A 
ATOM      5  C   UNL     1      45.394   4.207  12.330  0.00  0.00    +0.000 A 
ATOM      6  C   UNL     1      45.084   4.680  11.053  0.00  0.00    +0.000 A 
ATOM      7  C   UNL     1      45.777   5.795  10.570  0.00  0.00    +0.000 A 
ATOM      8  C   UNL     1      46.743   6.437  11.357  0.00  0.00    +0.000 A 
BRANCH   6   9
ATOM      9  C   UNL     1      44.056   3.972  10.200  0.00  0.00    +0.000 C 
BRANCH   9  10
ATOM     10  N   UNL     1      44.180   4.348   8.788  0.00  0.00    +0.000 NA
ATOM     11  H   UNL     1      44.686   5.234   8.743  0.00  0.00    +0.000 HD
BRANCH  10  12
ATOM     12  C   UNL     1      44.884   3.342   7.982  0.00  0.00    +0.000 C 
ATOM     13  C   UNL     1      45.312   2.183   8.901  0.00  0.00    +0.000 C 
ATOM     14  C   UNL     1      46.075   1.104   8.133  0.00  0.00    +0.000 C 
ATOM     15  C   UNL     1      47.271   1.676   7.379  0.00  0.00    +0.000 C 
ATOM     16  C   UNL     1      46.869   2.846   6.490  0.00  0.00    +0.000 C 
ATOM     17  C   UNL     1      46.120   3.920   7.273  0.00  0.00    +0.000 C 
ENDBRANCH  10  12
ENDBRANCH   9  10
ENDBRANCH   6   9
ENDBRANCH   1   3
BRANCH   1  19
ATOM     18  C   UNL     1      46.588   8.711  13.649  0.00  0.00    +0.000 C 
ATOM     19  C   UNL     1      47.952   8.047  13.810  0.00  0.00    +0.000 C 
BRANCH  19  20
ATOM     20  C   UNL     1      48.638   8.405  15.149  0.00  0.00    +0.000 C 
ATOM     21  O   UNL     1      48.123   9.218  15.922  0.00  0.00    +0.000 OA
BRANCH  20  22
ATOM     22  C   UNL     1      49.864   7.698  15.573  0.00  0.00    +0.000 A 
ATOM     23  C   UNL     1      51.110   8.196  15.212  0.00  0.00    +0.000 A 
ATOM     24  S   UNL     1      52.413   7.330  15.894  0.00  0.00    +0.000 S 
ATOM     25  C   UNL     1      51.355   6.236  16.655  0.00  0.00    +0.000 A 
ATOM     26  N   UNL     1      51.828   5.249  17.459  0.00  0.00    +0.000 NA
ATOM     27  C   UNL     1      50.908   4.488  17.963  0.00  0.00    +0.000 A 
ATOM     28  N   UNL     1      49.568   4.606  17.706  0.00  0.00    +0.000 N 
ATOM     29  C   UNL     1      49.075   5.483  16.768  0.00  0.00    +0.000 A 
ATOM     30  O   UNL     1      47.943   5.361  16.318  0.00  0.00    +0.000 OA
ATOM     31  C   UNL     1      50.034   6.477  16.320  0.00  0.00    +0.000 A 
ATOM     32  H   UNL     1      48.919   3.914  18.050  0.00  0.00    +0.000 HD
ENDBRANCH  20  22
ENDBRANCH  19  20
ENDBRANCH   1  19
TORSDOF 7
ENDMDL
MODEL 8
REMARK VINA RESULT:    -7.322      3.403      8.666
REMARK INTER + INTRA:         -11.553
REMARK INTER:                 -10.245
REMARK INTRA:                  -1.309
REMARK UNBOUND:                -1.235
REMARK  Name = 
REMARK  8 active torsions:
REMARK  status: ('A' for Active; 'I' for Inactive)
REMARK    1  A    between atoms: C_1  and  C_2
REMARK    2  A    between atoms: C_2  and  N_3
REMARK    3  A    between atoms: C_2  and  C_18
REMARK    4  A    between atoms: N_3  and  C_4
REMARK    5  A    between atoms: C_7  and  C_8
REMARK    6  A    between atoms: C_8  and  N_9
REMARK    7  A    between atoms: N_9  and  C_10
REMARK    8  A    between atoms: C_18  and  C_20
REMARK                            x       y       z     vdW  Elec       q    Type
REMARK                         _______ _______ _______ _____ _____    ______ ____
ROOT
ATOM      1  N   UNL     1      46.318   6.300  12.458  0.00  0.00    +0.000 N 
ATOM      2  H   UNL     1      47.012   6.523  11.746  0.00  0.00    +0.000 HD
ENDROOT
BRANCH   1   3
ATOM      3  C   UNL     1      46.958   5.991  13.652  0.00  0.00    +0.000 A 
ATOM      4  C   UNL     1      46.620   4.778  14.267  0.00  0.00    +0.000 A 
ATOM      5  C   UNL     1      47.257   4.346  15.432  0.00  0.00    +0.000 A 
ATOM      6  C   UNL     1      48.279   5.110  16.003  0.00  0.00    +0.000 A 
ATOM      7  C   UNL     1      48.619   6.325  15.398  0.00  0.00    +0.000 A 
ATOM      8  C   UNL     1      47.968   6.755  14.234  0.00  0.00    +0.000 A 
BRANCH   6   9
ATOM      9  C   UNL     1      48.963   4.651  17.270  0.00  0.00    +0.000 C 
BRANCH   9  10
ATOM     10  N   UNL     1      50.418   4.579  17.097  0.00  0.00    +0.000 NA
ATOM     11  H   UNL     1      50.819   5.443  17.461  0.00  0.00    +0.000 HD
BRANCH  10  12
ATOM     12  C   UNL     1      51.025   3.431  17.784  0.00  0.00    +0.000 C 
ATOM     13  C   UNL     1      52.541   3.673  17.903  0.00  0.00    +0.000 C 
ATOM     14  C   UNL     1      53.248   2.503  18.589  0.00  0.00    +0.000 C 
ATOM     15  C   UNL     1      52.957   1.175  17.898  0.00  0.00    +0.000 C 
ATOM     16  C   UNL     1      51.461   0.937  17.742  0.00  0.00    +0.000 C 
ATOM     17  C   UNL     1      50.772   2.107  17.045  0.00  0.00    +0.000 C 
ENDBRANCH  10  12
ENDBRANCH   9  10
ENDBRANCH   6   9
ENDBRANCH   1   3
BRANCH   1  19
ATOM     18  C   UNL     1      45.352   8.528  11.843  0.00  0.00    +0.000 C 
ATOM     19  C   UNL     1      45.087   7.109  12.338  0.00  0.00    +0.000 C 
BRANCH  19  20
ATOM     20  C   UNL     1      43.946   6.409  11.566  0.00  0.00    +0.000 C 
ATOM     21  O   UNL     1      43.021   7.066  11.077  0.00  0.00    +0.000 OA
BRANCH  20  22
ATOM     22  C   UNL     1      43.999   4.956  11.308  0.00  0.00    +0.000 A 
ATOM     23  C   UNL     1      43.414   4.071  12.205  0.00  0.00    +0.000 A 
ATOM     24  S   UNL     1      43.458   2.446  11.685  0.00  0.00    +0.000 S 
ATOM     25  C   UNL     1      44.300   2.867  10.268  0.00  0.00    +0.000 A 
ATOM     26  N   UNL     1      44.613   1.931   9.335  0.00  0.00    +0.000 NA
ATOM     27  C   UNL     1      45.260   2.396   8.313  0.00  0.00    +0.000 A 
ATOM     28  N   UNL     1      45.651   3.700   8.162  0.00  0.00    +0.000 N 
ATOM     29  C   UNL     1      45.498   4.633   9.161  0.00  0.00    +0.000 A 
ATOM     30  O   UNL     1      46.124   5.685   9.148  0.00  0.00    +0.000 OA
ATOM     31  C   UNL     1      44.618   4.214  10.238  0.00  0.00    +0.000 A 
ATOM     32  H   UNL     1      46.242   3.970   7.390  0.00  0.00    +0.000 HD
ENDBRANCH  20  22
ENDBRANCH  19  20
ENDBRANCH   1  19
TORSDOF 7
ENDMDL
MODEL 9
REMARK VINA RESULT:    -7.135      2.299      2.959
REMARK INTER + INTRA:         -11.290
REMARK INTER:                 -10.719
REMARK INTRA:                  -0.571
REMARK UNBOUND:                -1.235
REMARK  Name = 
REMARK  8 active torsions:
REMARK  status: ('A' for Active; 'I' for Inactive)
REMARK    1  A    between atoms: C_1  and  C_2
REMARK    2  A    between atoms: C_2  and  N_3
REMARK    3  A    between atoms: C_2  and  C_18
REMARK    4  A    between atoms: N_3  and  C_4
REMARK    5  A    between atoms: C_7  and  C_8
REMARK    6  A    between atoms: C_8  and  N_9
REMARK    7  A    between atoms: N_9  and  C_10
REMARK    8  A    between atoms: C_18  and  C_20
REMARK                            x       y       z     vdW  Elec       q    Type
REMARK                         _______ _______ _______ _____ _____    ______ ____
ROOT
ATOM      1  N   UNL     1      47.863   5.585  14.458  0.00  0.00    +0.000 N 
ATOM      2  H   UNL     1      48.773   5.328  14.079  0.00  0.00    +0.000 HD
ENDROOT
BRANCH   1   3
ATOM      3  C   UNL     1      46.874   5.303  13.524  0.00  0.00    +0.000 A 
ATOM      4  C   UNL     1      46.488   3.963  13.383  0.00  0.00    +0.000 A 
ATOM      5  C   UNL     1      45.455   3.587  12.522  0.00  0.00    +0.000 A 
ATOM      6  C   UNL     1      44.754   4.553  11.795  0.00  0.00    +0.000 A 
ATOM      7  C   UNL     1      45.136   5.893  11.927  0.00  0.00    +0.000 A 
ATOM      8  C   UNL     1      46.181   6.261  12.786  0.00  0.00    +0.000 A 
BRANCH   6   9
ATOM      9  C   UNL     1      43.643   4.149  10.854  0.00  0.00    +0.000 C 
BRANCH   9  10
ATOM     10  N   UNL     1      43.842   4.712   9.515  0.00  0.00    +0.000 NA
ATOM     11  H   UNL     1      44.426   5.544   9.609  0.00  0.00    +0.000 HD
BRANCH  10  12
ATOM     12  C   UNL     1      44.476   3.772   8.581  0.00  0.00    +0.000 C 
ATOM     13  C   UNL     1      44.696   2.431   9.304  0.00  0.00    +0.000 C 
ATOM     14  C   UNL     1      45.378   1.404   8.398  0.00  0.00    +0.000 C 
ATOM     15  C   UNL     1      46.684   1.935   7.815  0.00  0.00    +0.000 C 
ATOM     16  C   UNL     1      46.489   3.278   7.125  0.00  0.00    +0.000 C 
ATOM     17  C   UNL     1      45.819   4.295   8.046  0.00  0.00    +0.000 C 
ENDBRANCH  10  12
ENDBRANCH   9  10
ENDBRANCH   6   9
ENDBRANCH   1   3
BRANCH   1  19
ATOM     18  C   UNL     1      47.602   3.867  16.262  0.00  0.00    +0.000 C 
ATOM     19  C   UNL     1      47.753   5.345  15.912  0.00  0.00    +0.000 C 
BRANCH  19  20
ATOM     20  C   UNL     1      48.843   6.050  16.752  0.00  0.00    +0.000 C 
ATOM     21  O   UNL     1      50.012   6.092  16.359  0.00  0.00    +0.000 OA
BRANCH  20  22
ATOM     22  C   UNL     1      48.481   6.780  17.984  0.00  0.00    +0.000 A 
ATOM     23  C   UNL     1      48.331   8.160  17.953  0.00  0.00    +0.000 A 
ATOM     24  S   UNL     1      47.788   8.820  19.431  0.00  0.00    +0.000 S 
ATOM     25  C   UNL     1      47.781   7.289  20.171  0.00  0.00    +0.000 A 
ATOM     26  N   UNL     1      47.358   7.133  21.453  0.00  0.00    +0.000 NA
ATOM     27  C   UNL     1      47.415   5.913  21.886  0.00  0.00    +0.000 A 
ATOM     28  N   UNL     1      47.888   4.849  21.166  0.00  0.00    +0.000 N 
ATOM     29  C   UNL     1      48.478   5.001  19.933  0.00  0.00    +0.000 A 
ATOM     30  O   UNL     1      49.175   4.118  19.448  0.00  0.00    +0.000 OA
ATOM     31  C   UNL     1      48.270   6.305  19.329  0.00  0.00    +0.000 A 
ATOM     32  H   UNL     1      48.001   3.946  21.602  0.00  0.00    +0.000 HD
ENDBRANCH  20  22
ENDBRANCH  19  20
ENDBRANCH   1  19
TORSDOF 7
ENDMDL
