MODEL 1
REMARK VINA RESULT:    -8.162      0.000      0.000
REMARK INTER + INTRA:         -14.424
REMARK INTER:                 -12.695
REMARK INTRA:                  -1.729
REMARK UNBOUND:                -1.729
REMARK  Name = 
REMARK  10 active torsions:
REMARK  status: ('A' for Active; 'I' for Inactive)
REMARK    1  A    between atoms: C_2  and  C_23
REMARK    2  A    between atoms: N_3  and  C_4
REMARK    3  A    between atoms: C_4  and  C_5
REMARK    4  A    between atoms: C_8  and  C_9
REMARK    5  A    between atoms: C_9  and  N_10
REMARK    6  A    between atoms: N_10  and  C_11
REMARK    7  A    between atoms: N_10  and  C_14
REMARK    8  A    between atoms: C_11  and  C_12
REMARK    9  A    between atoms: C_12  and  O_13
REMARK   10  A    between atoms: C_14  and  C_15
REMARK                            x       y       z     vdW  Elec       q    Type
REMARK                         _______ _______ _______ _____ _____    ______ ____
ROOT
ATOM      1  C   UNL     1      46.694   7.834  12.749  0.00  0.00    +0.000 A 
ATOM      2  C   UNL     1      47.160   6.715  12.050  0.00  0.00    +0.000 A 
ATOM      3  C   UNL     1      46.298   5.980  11.239  0.00  0.00    +0.000 A 
ATOM      4  C   UNL     1      44.952   6.350  11.117  0.00  0.00    +0.000 A 
ATOM      5  C   UNL     1      44.520   7.544  11.710  0.00  0.00    +0.000 A 
ATOM      6  C   UNL     1      45.388   8.287  12.515  0.00  0.00    +0.000 A 
ENDROOT
BRANCH   1   7
ATOM      7  C   UNL     1      47.579   8.503  13.765  0.00  0.00    +0.000 C 
BRANCH   7  10
ATOM      8  O   UNL     1      50.005   7.124  14.202  0.00  0.00    +0.000 OA
ATOM      9  C   UNL     1      49.106   7.041  15.033  0.00  0.00    +0.000 C 
ATOM     10  N   UNL     1      47.886   7.642  14.870  0.00  0.00    +0.000 N 
ATOM     11  H   UNL     1      47.243   7.686  15.652  0.00  0.00    +0.000 HD
BRANCH   9  12
ATOM     12  C   UNL     1      49.253   6.229  16.246  0.00  0.00    +0.000 A 
ATOM     13  C   UNL     1      50.198   6.573  17.200  0.00  0.00    +0.000 A 
ATOM     14  S   UNL     1      50.248   5.501  18.527  0.00  0.00    +0.000 S 
ATOM     15  C   UNL     1      48.972   4.570  17.892  0.00  0.00    +0.000 A 
ATOM     16  N   UNL     1      48.489   3.489  18.566  0.00  0.00    +0.000 NA
ATOM     17  C   UNL     1      47.489   2.905  17.994  0.00  0.00    +0.000 A 
ATOM     18  N   UNL     1      46.938   3.295  16.802  0.00  0.00    +0.000 N 
ATOM     19  C   UNL     1      47.442   4.322  16.048  0.00  0.00    +0.000 A 
ATOM     20  O   UNL     1      47.022   4.542  14.916  0.00  0.00    +0.000 OA
ATOM     21  C   UNL     1      48.532   5.051  16.673  0.00  0.00    +0.000 A 
ATOM     22  H   UNL     1      46.176   2.771  16.389  0.00  0.00    +0.000 HD
ENDBRANCH   9  12
ENDBRANCH   7  10
ENDBRANCH   1   7
BRANCH   4  23
ATOM     23  C   UNL     1      43.971   5.435  10.410  0.00  0.00    +0.000 C 
BRANCH  23  24
ATOM     24  N   UNL     1      44.506   4.063  10.186  0.00  0.00    +0.000 NA
BRANCH  24  25
ATOM     25  C   UNL     1      43.785   3.073  11.027  0.00  0.00    +0.000 C 
BRANCH  25  26
ATOM     26  C   UNL     1      44.095   3.144  12.535  0.00  0.00    +0.000 C 
BRANCH  26  27
ATOM     27  O   UNL     1      45.454   2.792  12.789  0.00  0.00    +0.000 OA
ATOM     28  H   UNL     1      45.866   2.602  11.927  0.00  0.00    +0.000 HD
ENDBRANCH  26  27
ENDBRANCH  25  26
ENDBRANCH  24  25
BRANCH  24  29
ATOM     29  C   UNL     1      44.364   3.711   8.752  0.00  0.00    +0.000 C 
BRANCH  29  30
ATOM     30  C   UNL     1      45.575   3.047   8.123  0.00  0.00    +0.000 A 
ATOM     31  C   UNL     1      45.834   1.694   8.341  0.00  0.00    +0.000 A 
ATOM     32  C   UNL     1      46.919   1.108   7.698  0.00  0.00    +0.000 A 
ATOM     33  C   UNL     1      47.712   1.881   6.860  0.00  0.00    +0.000 A 
ATOM     34  C   UNL     1      47.393   3.219   6.706  0.00  0.00    +0.000 A 
ATOM     35  N   UNL     1      46.348   3.818   7.317  0.00  0.00    +0.000 NA
ENDBRANCH  29  30
ENDBRANCH  24  29
ENDBRANCH  23  24
ENDBRANCH   4  23
TORSDOF 10
ENDMDL
MODEL 2
REMARK VINA RESULT:    -7.306      2.000      2.334
REMARK INTER + INTRA:         -13.093
REMARK INTER:                 -11.969
REMARK INTRA:                  -1.124
REMARK UNBOUND:                -1.729
REMARK  Name = 
REMARK  10 active torsions:
REMARK  status: ('A' for Active; 'I' for Inactive)
REMARK    1  A    between atoms: C_2  and  C_23
REMARK    2  A    between atoms: N_3  and  C_4
REMARK    3  A    between atoms: C_4  and  C_5
REMARK    4  A    between atoms: C_8  and  C_9
REMARK    5  A    between atoms: C_9  and  N_10
REMARK    6  A    between atoms: N_10  and  C_11
REMARK    7  A    between atoms: N_10  and  C_14
REMARK    8  A    between atoms: C_11  and  C_12
REMARK    9  A    between atoms: C_12  and  O_13
REMARK   10  A    between atoms: C_14  and  C_15
REMARK                            x       y       z     vdW  Elec       q    Type
REMARK                         _______ _______ _______ _____ _____    ______ ____
ROOT
ATOM      1  C   UNL     1      47.383   8.042  13.306  0.00  0.00    +0.000 A 
ATOM      2  C   UNL     1      47.886   7.138  12.363  0.00  0.00    +0.000 A 
ATOM      3  C   UNL     1      47.032   6.519  11.452  0.00  0.00    +0.000 A 
ATOM      4  C   UNL     1      45.658   6.791  11.473  0.00  0.00    +0.000 A 
ATOM      5  C   UNL     1      45.176   7.793  12.327  0.00  0.00    +0.000 A 
ATOM      6  C   UNL     1      46.036   8.421  13.233  0.00  0.00    +0.000 A 
ENDROOT
BRANCH   1   7
ATOM      7  C   UNL     1      48.278   8.555  14.402  0.00  0.00    +0.000 C 
BRANCH   7  10
ATOM      8  O   UNL     1      50.120   6.642  15.359  0.00  0.00    +0.000 OA
ATOM      9  C   UNL     1      49.123   6.904  16.024  0.00  0.00    +0.000 C 
ATOM     10  N   UNL     1      48.161   7.784  15.605  0.00  0.00    +0.000 N 
ATOM     11  H   UNL     1      47.449   8.092  16.256  0.00  0.00    +0.000 HD
BRANCH   9  12
ATOM     12  C   UNL     1      48.853   6.235  17.301  0.00  0.00    +0.000 A 
ATOM     13  C   UNL     1      49.128   4.883  17.448  0.00  0.00    +0.000 A 
ATOM     14  S   UNL     1      48.725   4.270  18.988  0.00  0.00    +0.000 S 
ATOM     15  C   UNL     1      48.215   5.803  19.525  0.00  0.00    +0.000 A 
ATOM     16  N   UNL     1      47.767   5.986  20.799  0.00  0.00    +0.000 NA
ATOM     17  C   UNL     1      47.460   7.207  21.087  0.00  0.00    +0.000 A 
ATOM     18  N   UNL     1      47.547   8.258  20.213  0.00  0.00    +0.000 N 
ATOM     19  C   UNL     1      47.912   8.109  18.900  0.00  0.00    +0.000 A 
ATOM     20  O   UNL     1      47.828   9.043  18.109  0.00  0.00    +0.000 OA
ATOM     21  C   UNL     1      48.323   6.763  18.539  0.00  0.00    +0.000 A 
ATOM     22  H   UNL     1      47.256   9.188  20.491  0.00  0.00    +0.000 HD
ENDBRANCH   9  12
ENDBRANCH   7  10
ENDBRANCH   1   7
BRANCH   4  23
ATOM     23  C   UNL     1      44.706   5.965  10.630  0.00  0.00    +0.000 C 
BRANCH  23  24
ATOM     24  N   UNL     1      45.156   4.557  10.445  0.00  0.00    +0.000 NA
BRANCH  24  25
ATOM     25  C   UNL     1      44.738   3.715  11.594  0.00  0.00    +0.000 C 
BRANCH  25  26
ATOM     26  C   UNL     1      43.223   3.449  11.695  0.00  0.00    +0.000 C 
BRANCH  26  27
ATOM     27  O   UNL     1      42.953   2.048  11.660  0.00  0.00    +0.000 OA
ATOM     28  H   UNL     1      43.422   1.685  10.888  0.00  0.00    +0.000 HD
ENDBRANCH  26  27
ENDBRANCH  25  26
ENDBRANCH  24  25
BRANCH  24  29
ATOM     29  C   UNL     1      44.581   4.022   9.187  0.00  0.00    +0.000 C 
BRANCH  29  30
ATOM     30  C   UNL     1      45.546   3.248   8.309  0.00  0.00    +0.000 A 
ATOM     31  C   UNL     1      45.816   1.904   8.566  0.00  0.00    +0.000 A 
ATOM     32  C   UNL     1      46.659   1.212   7.703  0.00  0.00    +0.000 A 
ATOM     33  C   UNL     1      47.209   1.875   6.613  0.00  0.00    +0.000 A 
ATOM     34  C   UNL     1      46.900   3.213   6.435  0.00  0.00    +0.000 A 
ATOM     35  N   UNL     1      46.086   3.912   7.255  0.00  0.00    +0.000 NA
ENDBRANCH  29  30
ENDBRANCH  24  29
ENDBRANCH  23  24
ENDBRANCH   4  23
TORSDOF 10
ENDMDL
MODEL 3
REMARK VINA RESULT:    -7.253      1.854      2.233
REMARK INTER + INTRA:         -13.010
REMARK INTER:                 -11.787
REMARK INTRA:                  -1.223
REMARK UNBOUND:                -1.729
REMARK  Name = 
REMARK  10 active torsions:
REMARK  status: ('A' for Active; 'I' for Inactive)
REMARK    1  A    between atoms: C_2  and  C_23
REMARK    2  A    between atoms: N_3  and  C_4
REMARK    3  A    between atoms: C_4  and  C_5
REMARK    4  A    between atoms: C_8  and  C_9
REMARK    5  A    between atoms: C_9  and  N_10
REMARK    6  A    between atoms: N_10  and  C_11
REMARK    7  A    between atoms: N_10  and  C_14
REMARK    8  A    between atoms: C_11  and  C_12
REMARK    9  A    between atoms: C_12  and  O_13
REMARK   10  A    between atoms: C_14  and  C_15
REMARK                            x       y       z     vdW  Elec       q    Type
REMARK                         _______ _______ _______ _____ _____    ______ ____
ROOT
ATOM      1  C   UNL     1      48.380   6.753  13.338  0.00  0.00    +0.000 A 
ATOM      2  C   UNL     1      47.409   5.859  13.805  0.00  0.00    +0.000 A 
ATOM      3  C   UNL     1      46.306   5.540  13.016  0.00  0.00    +0.000 A 
ATOM      4  C   UNL     1      46.153   6.114  11.747  0.00  0.00    +0.000 A 
ATOM      5  C   UNL     1      47.188   6.903  11.229  0.00  0.00    +0.000 A 
ATOM      6  C   UNL     1      48.300   7.214  12.017  0.00  0.00    +0.000 A 
ENDROOT
BRANCH   1   7
ATOM      7  C   UNL     1      49.460   7.235  14.267  0.00  0.00    +0.000 C 
BRANCH   7  10
ATOM      8  O   UNL     1      50.244   8.843  16.453  0.00  0.00    +0.000 OA
ATOM      9  C   UNL     1      49.510   7.879  16.646  0.00  0.00    +0.000 C 
ATOM     10  N   UNL     1      49.126   7.026  15.646  0.00  0.00    +0.000 N 
ATOM     11  H   UNL     1      48.391   6.351  15.821  0.00  0.00    +0.000 HD
BRANCH   9  12
ATOM     12  C   UNL     1      49.040   7.528  17.991  0.00  0.00    +0.000 A 
ATOM     13  C   UNL     1      48.480   8.502  18.805  0.00  0.00    +0.000 A 
ATOM     14  S   UNL     1      48.017   7.921  20.340  0.00  0.00    +0.000 S 
ATOM     15  C   UNL     1      48.503   6.337  19.948  0.00  0.00    +0.000 A 
ATOM     16  N   UNL     1      48.349   5.316  20.837  0.00  0.00    +0.000 NA
ATOM     17  C   UNL     1      48.713   4.160  20.391  0.00  0.00    +0.000 A 
ATOM     18  N   UNL     1      49.231   3.935  19.143  0.00  0.00    +0.000 N 
ATOM     19  C   UNL     1      49.482   4.941  18.247  0.00  0.00    +0.000 A 
ATOM     20  O   UNL     1      50.089   4.723  17.203  0.00  0.00    +0.000 OA
ATOM     21  C   UNL     1      49.037   6.256  18.677  0.00  0.00    +0.000 A 
ATOM     22  H   UNL     1      49.531   3.008  18.867  0.00  0.00    +0.000 HD
ENDBRANCH   9  12
ENDBRANCH   7  10
ENDBRANCH   1   7
BRANCH   4  23
ATOM     23  C   UNL     1      44.856   5.934  10.981  0.00  0.00    +0.000 C 
BRANCH  23  24
ATOM     24  N   UNL     1      44.532   4.507  10.703  0.00  0.00    +0.000 NA
BRANCH  24  25
ATOM     25  C   UNL     1      43.328   4.082  11.460  0.00  0.00    +0.000 C 
BRANCH  25  26
ATOM     26  C   UNL     1      43.502   2.808  12.308  0.00  0.00    +0.000 C 
BRANCH  26  27
ATOM     27  O   UNL     1      43.075   1.656  11.583  0.00  0.00    +0.000 OA
ATOM     28  H   UNL     1      43.361   0.876  12.090  0.00  0.00    +0.000 HD
ENDBRANCH  26  27
ENDBRANCH  25  26
ENDBRANCH  24  25
BRANCH  24  29
ATOM     29  C   UNL     1      44.307   4.333   9.248  0.00  0.00    +0.000 C 
BRANCH  29  30
ATOM     30  C   UNL     1      45.344   3.492   8.525  0.00  0.00    +0.000 A 
ATOM     31  C   UNL     1      45.457   2.127   8.788  0.00  0.00    +0.000 A 
ATOM     32  C   UNL     1      46.378   1.379   8.061  0.00  0.00    +0.000 A 
ATOM     33  C   UNL     1      47.158   2.009   7.099  0.00  0.00    +0.000 A 
ATOM     34  C   UNL     1      46.991   3.370   6.908  0.00  0.00    +0.000 A 
ATOM     35  N   UNL     1      46.107   4.123   7.597  0.00  0.00    +0.000 NA
ENDBRANCH  29  30
ENDBRANCH  24  29
ENDBRANCH  23  24
ENDBRANCH   4  23
TORSDOF 10
ENDMDL
MODEL 4
REMARK VINA RESULT:    -6.783      2.017      2.467
REMARK INTER + INTRA:         -12.279
REMARK INTER:                 -11.177
REMARK INTRA:                  -1.102
REMARK UNBOUND:                -1.729
REMARK  Name = 
REMARK  10 active torsions:
REMARK  status: ('A' for Active; 'I' for Inactive)
REMARK    1  A    between atoms: C_2  and  C_23
REMARK    2  A    between atoms: N_3  and  C_4
REMARK    3  A    between atoms: C_4  and  C_5
REMARK    4  A    between atoms: C_8  and  C_9
REMARK    5  A    between atoms: C_9  and  N_10
REMARK    6  A    between atoms: N_10  and  C_11
REMARK    7  A    between atoms: N_10  and  C_14
REMARK    8  A    between atoms: C_11  and  C_12
REMARK    9  A    between atoms: C_12  and  O_13
REMARK   10  A    between atoms: C_14  and  C_15
REMARK                            x       y       z     vdW  Elec       q    Type
REMARK                         _______ _______ _______ _____ _____    ______ ____
ROOT
ATOM      1  C   UNL     1      47.781   8.043  14.112  0.00  0.00    +0.000 A 
ATOM      2  C   UNL     1      46.713   8.769  13.572  0.00  0.00    +0.000 A 
ATOM      3  C   UNL     1      45.899   8.203  12.593  0.00  0.00    +0.000 A 
ATOM      4  C   UNL     1      46.144   6.903  12.133  0.00  0.00    +0.000 A 
ATOM      5  C   UNL     1      47.127   6.132  12.767  0.00  0.00    +0.000 A 
ATOM      6  C   UNL     1      47.937   6.696  13.757  0.00  0.00    +0.000 A 
ENDROOT
BRANCH   1   7
ATOM      7  C   UNL     1      48.764   8.726  15.025  0.00  0.00    +0.000 C 
BRANCH   7  10
ATOM      8  O   UNL     1      48.619   7.481  17.555  0.00  0.00    +0.000 OA
ATOM      9  C   UNL     1      49.551   7.213  16.804  0.00  0.00    +0.000 C 
ATOM     10  N   UNL     1      49.716   7.809  15.582  0.00  0.00    +0.000 N 
ATOM     11  H   UNL     1      50.398   7.437  14.933  0.00  0.00    +0.000 HD
BRANCH   9  12
ATOM     12  C   UNL     1      50.606   6.270  17.193  0.00  0.00    +0.000 A 
ATOM     13  C   UNL     1      51.849   6.743  17.585  0.00  0.00    +0.000 A 
ATOM     14  S   UNL     1      52.957   5.506  17.974  0.00  0.00    +0.000 S 
ATOM     15  C   UNL     1      51.795   4.298  17.679  0.00  0.00    +0.000 A 
ATOM     16  N   UNL     1      52.092   2.980  17.858  0.00  0.00    +0.000 NA
ATOM     17  C   UNL     1      51.103   2.176  17.646  0.00  0.00    +0.000 A 
ATOM     18  N   UNL     1      49.850   2.569  17.258  0.00  0.00    +0.000 N 
ATOM     19  C   UNL     1      49.528   3.872  16.985  0.00  0.00    +0.000 A 
ATOM     20  O   UNL     1      48.444   4.167  16.491  0.00  0.00    +0.000 OA
ATOM     21  C   UNL     1      50.588   4.826  17.263  0.00  0.00    +0.000 A 
ATOM     22  H   UNL     1      49.127   1.883  17.074  0.00  0.00    +0.000 HD
ENDBRANCH   9  12
ENDBRANCH   7  10
ENDBRANCH   1   7
BRANCH   4  23
ATOM     23  C   UNL     1      45.397   6.369  10.926  0.00  0.00    +0.000 C 
BRANCH  23  24
ATOM     24  N   UNL     1      44.777   5.035  11.163  0.00  0.00    +0.000 NA
BRANCH  24  25
ATOM     25  C   UNL     1      43.735   5.117  12.218  0.00  0.00    +0.000 C 
BRANCH  25  26
ATOM     26  C   UNL     1      42.299   5.340  11.706  0.00  0.00    +0.000 C 
BRANCH  26  27
ATOM     27  O   UNL     1      41.980   6.730  11.684  0.00  0.00    +0.000 OA
ATOM     28  H   UNL     1      41.931   7.028  12.609  0.00  0.00    +0.000 HD
ENDBRANCH  26  27
ENDBRANCH  25  26
ENDBRANCH  24  25
BRANCH  24  29
ATOM     29  C   UNL     1      44.181   4.543   9.897  0.00  0.00    +0.000 C 
BRANCH  29  30
ATOM     30  C   UNL     1      45.108   3.725   9.017  0.00  0.00    +0.000 A 
ATOM     31  C   UNL     1      45.226   2.347   9.201  0.00  0.00    +0.000 A 
ATOM     32  C   UNL     1      46.039   1.623   8.335  0.00  0.00    +0.000 A 
ATOM     33  C   UNL     1      46.709   2.288   7.316  0.00  0.00    +0.000 A 
ATOM     34  C   UNL     1      46.547   3.659   7.210  0.00  0.00    +0.000 A 
ATOM     35  N   UNL     1      45.766   4.389   8.034  0.00  0.00    +0.000 NA
ENDBRANCH  29  30
ENDBRANCH  24  29
ENDBRANCH  23  24
ENDBRANCH   4  23
TORSDOF 10
ENDMDL
MODEL 5
REMARK VINA RESULT:    -6.702      2.072      2.894
REMARK INTER + INTRA:         -12.153
REMARK INTER:                 -10.999
REMARK INTRA:                  -1.154
REMARK UNBOUND:                -1.729
REMARK  Name = 
REMARK  10 active torsions:
REMARK  status: ('A' for Active; 'I' for Inactive)
REMARK    1  A    between atoms: C_2  and  C_23
REMARK    2  A    between atoms: N_3  and  C_4
REMARK    3  A    between atoms: C_4  and  C_5
REMARK    4  A    between atoms: C_8  and  C_9
REMARK    5  A    between atoms: C_9  and  N_10
REMARK    6  A    between atoms: N_10  and  C_11
REMARK    7  A    between atoms: N_10  and  C_14
REMARK    8  A    between atoms: C_11  and  C_12
REMARK    9  A    between atoms: C_12  and  O_13
REMARK   10  A    between atoms: C_14  and  C_15
REMARK                            x       y       z     vdW  Elec       q    Type
REMARK                         _______ _______ _______ _____ _____    ______ ____
ROOT
ATOM      1  C   UNL     1      47.464   7.312  13.649  0.00  0.00    +0.000 A 
ATOM      2  C   UNL     1      46.509   8.229  13.193  0.00  0.00    +0.000 A 
ATOM      3  C   UNL     1      45.500   7.823  12.323  0.00  0.00    +0.000 A 
ATOM      4  C   UNL     1      45.431   6.493  11.890  0.00  0.00    +0.000 A 
ATOM      5  C   UNL     1      46.304   5.550  12.449  0.00  0.00    +0.000 A 
ATOM      6  C   UNL     1      47.310   5.956  13.330  0.00  0.00    +0.000 A 
ENDROOT
BRANCH   1   7
ATOM      7  C   UNL     1      48.655   7.798  14.430  0.00  0.00    +0.000 C 
BRANCH   7  10
ATOM      8  O   UNL     1      48.604   7.283  17.206  0.00  0.00    +0.000 OA
ATOM      9  C   UNL     1      49.218   6.524  16.463  0.00  0.00    +0.000 C 
ATOM     10  N   UNL     1      49.328   6.733  15.114  0.00  0.00    +0.000 N 
ATOM     11  H   UNL     1      49.697   5.997  14.524  0.00  0.00    +0.000 HD
BRANCH   9  12
ATOM     12  C   UNL     1      49.943   5.359  16.983  0.00  0.00    +0.000 A 
ATOM     13  C   UNL     1      49.262   4.181  17.249  0.00  0.00    +0.000 A 
ATOM     14  S   UNL     1      50.258   2.945  17.873  0.00  0.00    +0.000 S 
ATOM     15  C   UNL     1      51.642   3.929  17.761  0.00  0.00    +0.000 A 
ATOM     16  N   UNL     1      52.869   3.457  18.118  0.00  0.00    +0.000 NA
ATOM     17  C   UNL     1      53.838   4.292  17.935  0.00  0.00    +0.000 A 
ATOM     18  N   UNL     1      53.688   5.561  17.442  0.00  0.00    +0.000 N 
ATOM     19  C   UNL     1      52.466   6.108  17.148  0.00  0.00    +0.000 A 
ATOM     20  O   UNL     1      52.357   7.295  16.858  0.00  0.00    +0.000 OA
ATOM     21  C   UNL     1      51.348   5.190  17.281  0.00  0.00    +0.000 A 
ATOM     22  H   UNL     1      54.485   6.180  17.356  0.00  0.00    +0.000 HD
ENDBRANCH   9  12
ENDBRANCH   7  10
ENDBRANCH   1   7
BRANCH   4  23
ATOM     23  C   UNL     1      44.468   6.100  10.786  0.00  0.00    +0.000 C 
BRANCH  23  24
ATOM     24  N   UNL     1      44.354   4.626  10.605  0.00  0.00    +0.000 NA
BRANCH  24  25
ATOM     25  C   UNL     1      43.219   4.083  11.393  0.00  0.00    +0.000 C 
BRANCH  25  26
ATOM     26  C   UNL     1      43.609   3.089  12.505  0.00  0.00    +0.000 C 
BRANCH  26  27
ATOM     27  O   UNL     1      44.904   2.541  12.261  0.00  0.00    +0.000 OA
ATOM     28  H   UNL     1      45.526   3.288  12.210  0.00  0.00    +0.000 HD
ENDBRANCH  26  27
ENDBRANCH  25  26
ENDBRANCH  24  25
BRANCH  24  29
ATOM     29  C   UNL     1      44.162   4.325   9.165  0.00  0.00    +0.000 C 
BRANCH  29  30
ATOM     30  C   UNL     1      45.252   3.485   8.525  0.00  0.00    +0.000 A 
ATOM     31  C   UNL     1      45.331   2.116   8.779  0.00  0.00    +0.000 A 
ATOM     32  C   UNL     1      46.306   1.369   8.126  0.00  0.00    +0.000 A 
ATOM     33  C   UNL     1      47.172   2.003   7.244  0.00  0.00    +0.000 A 
ATOM     34  C   UNL     1      47.033   3.367   7.057  0.00  0.00    +0.000 A 
ATOM     35  N   UNL     1      46.098   4.120   7.675  0.00  0.00    +0.000 NA
ENDBRANCH  29  30
ENDBRANCH  24  29
ENDBRANCH  23  24
ENDBRANCH   4  23
TORSDOF 10
ENDMDL
MODEL 6
REMARK VINA RESULT:    -6.378      3.056      5.402
REMARK INTER + INTRA:         -11.649
REMARK INTER:                 -10.210
REMARK INTRA:                  -1.439
REMARK UNBOUND:                -1.729
REMARK  Name = 
REMARK  10 active torsions:
REMARK  status: ('A' for Active; 'I' for Inactive)
REMARK    1  A    between atoms: C_2  and  C_23
REMARK    2  A    between atoms: N_3  and  C_4
REMARK    3  A    between atoms: C_4  and  C_5
REMARK    4  A    between atoms: C_8  and  C_9
REMARK    5  A    between atoms: C_9  and  N_10
REMARK    6  A    between atoms: N_10  and  C_11
REMARK    7  A    between atoms: N_10  and  C_14
REMARK    8  A    between atoms: C_11  and  C_12
REMARK    9  A    between atoms: C_12  and  O_13
REMARK   10  A    between atoms: C_14  and  C_15
REMARK                            x       y       z     vdW  Elec       q    Type
REMARK                         _______ _______ _______ _____ _____    ______ ____
ROOT
ATOM      1  C   UNL     1      47.731   4.500  15.893  0.00  0.00    +0.000 A 
ATOM      2  C   UNL     1      46.997   3.999  14.811  0.00  0.00    +0.000 A 
ATOM      3  C   UNL     1      46.792   4.779  13.675  0.00  0.00    +0.000 A 
ATOM      4  C   UNL     1      47.313   6.077  13.604  0.00  0.00    +0.000 A 
ATOM      5  C   UNL     1      48.158   6.527  14.628  0.00  0.00    +0.000 A 
ATOM      6  C   UNL     1      48.373   5.740  15.763  0.00  0.00    +0.000 A 
ENDROOT
BRANCH   1   7
ATOM      7  C   UNL     1      47.785   3.728  17.183  0.00  0.00    +0.000 C 
BRANCH   7  10
ATOM      8  O   UNL     1      49.393   1.707  16.039  0.00  0.00    +0.000 OA
ATOM      9  C   UNL     1      49.858   2.420  16.923  0.00  0.00    +0.000 C 
ATOM     10  N   UNL     1      49.127   3.388  17.558  0.00  0.00    +0.000 N 
ATOM     11  H   UNL     1      49.598   4.057  18.155  0.00  0.00    +0.000 HD
BRANCH   9  12
ATOM     12  C   UNL     1      51.228   2.239  17.415  0.00  0.00    +0.000 A 
ATOM     13  C   UNL     1      51.742   0.961  17.582  0.00  0.00    +0.000 A 
ATOM     14  S   UNL     1      53.337   0.944  18.188  0.00  0.00    +0.000 S 
ATOM     15  C   UNL     1      53.410   2.644  18.198  0.00  0.00    +0.000 A 
ATOM     16  N   UNL     1      54.541   3.295  18.590  0.00  0.00    +0.000 NA
ATOM     17  C   UNL     1      54.475   4.582  18.501  0.00  0.00    +0.000 A 
ATOM     18  N   UNL     1      53.377   5.277  18.071  0.00  0.00    +0.000 N 
ATOM     19  C   UNL     1      52.191   4.672  17.746  0.00  0.00    +0.000 A 
ATOM     20  O   UNL     1      51.184   5.334  17.516  0.00  0.00    +0.000 OA
ATOM     21  C   UNL     1      52.229   3.219  17.774  0.00  0.00    +0.000 A 
ATOM     22  H   UNL     1      53.378   6.290  18.058  0.00  0.00    +0.000 HD
ENDBRANCH   9  12
ENDBRANCH   7  10
ENDBRANCH   1   7
BRANCH   4  23
ATOM     23  C   UNL     1      46.914   6.997  12.467  0.00  0.00    +0.000 C 
BRANCH  23  24
ATOM     24  N   UNL     1      45.524   7.519  12.594  0.00  0.00    +0.000 NA
BRANCH  24  25
ATOM     25  C   UNL     1      45.524   8.999  12.703  0.00  0.00    +0.000 C 
BRANCH  25  26
ATOM     26  C   UNL     1      46.750   9.702  12.087  0.00  0.00    +0.000 C 
BRANCH  26  27
ATOM     27  O   UNL     1      47.127  10.836  12.867  0.00  0.00    +0.000 OA
ATOM     28  H   UNL     1      47.305  10.517  13.769  0.00  0.00    +0.000 HD
ENDBRANCH  26  27
ENDBRANCH  25  26
ENDBRANCH  24  25
BRANCH  24  29
ATOM     29  C   UNL     1      44.734   7.096  11.412  0.00  0.00    +0.000 C 
BRANCH  29  30
ATOM     30  C   UNL     1      44.281   5.647  11.417  0.00  0.00    +0.000 A 
ATOM     31  C   UNL     1      44.655   4.785  10.387  0.00  0.00    +0.000 A 
ATOM     32  C   UNL     1      44.271   3.449  10.459  0.00  0.00    +0.000 A 
ATOM     33  C   UNL     1      43.528   3.013  11.548  0.00  0.00    +0.000 A 
ATOM     34  C   UNL     1      43.188   3.936  12.522  0.00  0.00    +0.000 A 
ATOM     35  N   UNL     1      43.545   5.238  12.481  0.00  0.00    +0.000 NA
ENDBRANCH  29  30
ENDBRANCH  24  29
ENDBRANCH  23  24
ENDBRANCH   4  23
TORSDOF 10
ENDMDL
MODEL 7
REMARK VINA RESULT:    -6.136      2.595      3.669
REMARK INTER + INTRA:         -11.273
REMARK INTER:                 -10.019
REMARK INTRA:                  -1.254
REMARK UNBOUND:                -1.729
REMARK  Name = 
REMARK  10 active torsions:
REMARK  status: ('A' for Active; 'I' for Inactive)
REMARK    1  A    between atoms: C_2  and  C_23
REMARK    2  A    between atoms: N_3  and  C_4
REMARK    3  A    between atoms: C_4  and  C_5
REMARK    4  A    between atoms: C_8  and  C_9
REMARK    5  A    between atoms: C_9  and  N_10
REMARK    6  A    between atoms: N_10  and  C_11
REMARK    7  A    between atoms: N_10  and  C_14
REMARK    8  A    between atoms: C_11  and  C_12
REMARK    9  A    between atoms: C_12  and  O_13
REMARK   10  A    between atoms: C_14  and  C_15
REMARK                            x       y       z     vdW  Elec       q    Type
REMARK                         _______ _______ _______ _____ _____    ______ ____
ROOT
ATOM      1  C   UNL     1      48.728   7.519  15.819  0.00  0.00    +0.000 A 
ATOM      2  C   UNL     1      48.309   8.583  15.011  0.00  0.00    +0.000 A 
ATOM      3  C   UNL     1      47.717   8.340  13.774  0.00  0.00    +0.000 A 
ATOM      4  C   UNL     1      47.538   7.026  13.321  0.00  0.00    +0.000 A 
ATOM      5  C   UNL     1      47.834   5.963  14.185  0.00  0.00    +0.000 A 
ATOM      6  C   UNL     1      48.419   6.208  15.430  0.00  0.00    +0.000 A 
ENDROOT
BRANCH   1   7
ATOM      7  C   UNL     1      49.534   7.794  17.059  0.00  0.00    +0.000 C 
BRANCH   7  10
ATOM      8  O   UNL     1      49.533   5.984  19.227  0.00  0.00    +0.000 OA
ATOM      9  C   UNL     1      50.408   5.899  18.371  0.00  0.00    +0.000 C 
ATOM     10  N   UNL     1      50.502   6.767  17.317  0.00  0.00    +0.000 N 
ATOM     11  H   UNL     1      51.132   6.557  16.552  0.00  0.00    +0.000 HD
BRANCH   9  12
ATOM     12  C   UNL     1      51.467   4.886  18.452  0.00  0.00    +0.000 A 
ATOM     13  C   UNL     1      52.673   5.192  19.063  0.00  0.00    +0.000 A 
ATOM     14  S   UNL     1      53.794   3.906  19.039  0.00  0.00    +0.000 S 
ATOM     15  C   UNL     1      52.684   2.881  18.256  0.00  0.00    +0.000 A 
ATOM     16  N   UNL     1      53.008   1.592  17.959  0.00  0.00    +0.000 NA
ATOM     17  C   UNL     1      52.055   0.914  17.410  0.00  0.00    +0.000 A 
ATOM     18  N   UNL     1      50.814   1.412  17.118  0.00  0.00    +0.000 N 
ATOM     19  C   UNL     1      50.469   2.723  17.320  0.00  0.00    +0.000 A 
ATOM     20  O   UNL     1      49.405   3.170  16.904  0.00  0.00    +0.000 OA
ATOM     21  C   UNL     1      51.486   3.516  17.989  0.00  0.00    +0.000 A 
ATOM     22  H   UNL     1      50.121   0.836  16.654  0.00  0.00    +0.000 HD
ENDBRANCH   9  12
ENDBRANCH   7  10
ENDBRANCH   1   7
BRANCH   4  23
ATOM     23  C   UNL     1      47.092   6.767  11.895  0.00  0.00    +0.000 C 
BRANCH  23  24
ATOM     24  N   UNL     1      45.900   5.878  11.806  0.00  0.00    +0.000 NA
BRANCH  24  25
ATOM     25  C   UNL     1      44.862   6.286  12.786  0.00  0.00    +0.000 C 
BRANCH  25  26
ATOM     26  C   UNL     1      43.914   5.161  13.245  0.00  0.00    +0.000 C 
BRANCH  26  27
ATOM     27  O   UNL     1      44.614   3.923  13.353  0.00  0.00    +0.000 OA
ATOM     28  H   UNL     1      45.349   4.063  13.975  0.00  0.00    +0.000 HD
ENDBRANCH  26  27
ENDBRANCH  25  26
ENDBRANCH  24  25
BRANCH  24  29
ATOM     29  C   UNL     1      45.350   5.935  10.430  0.00  0.00    +0.000 C 
BRANCH  29  30
ATOM     30  C   UNL     1      45.359   4.621   9.670  0.00  0.00    +0.000 A 
ATOM     31  C   UNL     1      45.881   4.553   8.379  0.00  0.00    +0.000 A 
ATOM     32  C   UNL     1      45.928   3.318   7.739  0.00  0.00    +0.000 A 
ATOM     33  C   UNL     1      45.454   2.192   8.400  0.00  0.00    +0.000 A 
ATOM     34  C   UNL     1      44.941   2.347   9.676  0.00  0.00    +0.000 A 
ATOM     35  N   UNL     1      44.882   3.531  10.323  0.00  0.00    +0.000 NA
ENDBRANCH  29  30
ENDBRANCH  24  29
ENDBRANCH  23  24
ENDBRANCH   4  23
TORSDOF 10
ENDMDL
MODEL 8
REMARK VINA RESULT:    -6.120      2.913      8.284
REMARK INTER + INTRA:         -11.248
REMARK INTER:                  -9.647
REMARK INTRA:                  -1.601
REMARK UNBOUND:                -1.729
REMARK  Name = 
REMARK  10 active torsions:
REMARK  status: ('A' for Active; 'I' for Inactive)
REMARK    1  A    between atoms: C_2  and  C_23
REMARK    2  A    between atoms: N_3  and  C_4
REMARK    3  A    between atoms: C_4  and  C_5
REMARK    4  A    between atoms: C_8  and  C_9
REMARK    5  A    between atoms: C_9  and  N_10
REMARK    6  A    between atoms: N_10  and  C_11
REMARK    7  A    between atoms: N_10  and  C_14
REMARK    8  A    between atoms: C_11  and  C_12
REMARK    9  A    between atoms: C_12  and  O_13
REMARK   10  A    between atoms: C_14  and  C_15
REMARK                            x       y       z     vdW  Elec       q    Type
REMARK                         _______ _______ _______ _____ _____    ______ ____
ROOT
ATOM      1  C   UNL     1      48.732   8.098  12.805  0.00  0.00    +0.000 A 
ATOM      2  C   UNL     1      48.175   7.978  14.083  0.00  0.00    +0.000 A 
ATOM      3  C   UNL     1      48.995   7.882  15.205  0.00  0.00    +0.000 A 
ATOM      4  C   UNL     1      50.389   7.899  15.066  0.00  0.00    +0.000 A 
ATOM      5  C   UNL     1      50.943   8.152  13.805  0.00  0.00    +0.000 A 
ATOM      6  C   UNL     1      50.119   8.260  12.681  0.00  0.00    +0.000 A 
ENDROOT
BRANCH   1   7
ATOM      7  C   UNL     1      47.847   8.009  11.592  0.00  0.00    +0.000 C 
BRANCH   7  10
ATOM      8  O   UNL     1      45.028   7.885  11.692  0.00  0.00    +0.000 OA
ATOM      9  C   UNL     1      45.674   6.847  11.598  0.00  0.00    +0.000 C 
ATOM     10  N   UNL     1      47.043   6.822  11.591  0.00  0.00    +0.000 N 
ATOM     11  H   UNL     1      47.525   5.966  11.344  0.00  0.00    +0.000 HD
BRANCH   9  12
ATOM     12  C   UNL     1      45.019   5.534  11.552  0.00  0.00    +0.000 A 
ATOM     13  C   UNL     1      44.316   5.071  12.655  0.00  0.00    +0.000 A 
ATOM     14  S   UNL     1      43.646   3.518  12.431  0.00  0.00    +0.000 S 
ATOM     15  C   UNL     1      44.231   3.436  10.835  0.00  0.00    +0.000 A 
ATOM     16  N   UNL     1      43.975   2.353  10.049  0.00  0.00    +0.000 NA
ATOM     17  C   UNL     1      44.436   2.445   8.845  0.00  0.00    +0.000 A 
ATOM     18  N   UNL     1      45.139   3.515   8.361  0.00  0.00    +0.000 N 
ATOM     19  C   UNL     1      45.492   4.588   9.136  0.00  0.00    +0.000 A 
ATOM     20  O   UNL     1      46.254   5.452   8.714  0.00  0.00    +0.000 OA
ATOM     21  C   UNL     1      44.950   4.562  10.484  0.00  0.00    +0.000 A 
ATOM     22  H   UNL     1      45.504   3.509   7.416  0.00  0.00    +0.000 HD
ENDBRANCH   9  12
ENDBRANCH   7  10
ENDBRANCH   1   7
BRANCH   4  23
ATOM     23  C   UNL     1      51.277   7.583  16.255  0.00  0.00    +0.000 C 
BRANCH  23  24
ATOM     24  N   UNL     1      51.335   6.129  16.573  0.00  0.00    +0.000 NA
BRANCH  24  25
ATOM     25  C   UNL     1      52.732   5.704  16.843  0.00  0.00    +0.000 C 
BRANCH  25  26
ATOM     26  C   UNL     1      53.112   5.608  18.334  0.00  0.00    +0.000 C 
BRANCH  26  27
ATOM     27  O   UNL     1      53.740   6.811  18.773  0.00  0.00    +0.000 OA
ATOM     28  H   UNL     1      53.104   7.274  19.345  0.00  0.00    +0.000 HD
ENDBRANCH  26  27
ENDBRANCH  25  26
ENDBRANCH  24  25
BRANCH  24  29
ATOM     29  C   UNL     1      50.483   5.854  17.756  0.00  0.00    +0.000 C 
BRANCH  29  30
ATOM     30  C   UNL     1      49.432   4.776  17.563  0.00  0.00    +0.000 A 
ATOM     31  C   UNL     1      48.077   5.076  17.700  0.00  0.00    +0.000 A 
ATOM     32  C   UNL     1      47.141   4.075  17.455  0.00  0.00    +0.000 A 
ATOM     33  C   UNL     1      47.580   2.810  17.085  0.00  0.00    +0.000 A 
ATOM     34  C   UNL     1      48.943   2.593  16.982  0.00  0.00    +0.000 A 
ATOM     35  N   UNL     1      49.875   3.542  17.213  0.00  0.00    +0.000 NA
ENDBRANCH  29  30
ENDBRANCH  24  29
ENDBRANCH  23  24
ENDBRANCH   4  23
TORSDOF 10
ENDMDL
MODEL 9
REMARK VINA RESULT:    -6.080      2.882      7.884
REMARK INTER + INTRA:         -11.186
REMARK INTER:                 -10.306
REMARK INTRA:                  -0.881
REMARK UNBOUND:                -1.729
REMARK  Name = 
REMARK  10 active torsions:
REMARK  status: ('A' for Active; 'I' for Inactive)
REMARK    1  A    between atoms: C_2  and  C_23
REMARK    2  A    between atoms: N_3  and  C_4
REMARK    3  A    between atoms: C_4  and  C_5
REMARK    4  A    between atoms: C_8  and  C_9
REMARK    5  A    between atoms: C_9  and  N_10
REMARK    6  A    between atoms: N_10  and  C_11
REMARK    7  A    between atoms: N_10  and  C_14
REMARK    8  A    between atoms: C_11  and  C_12
REMARK    9  A    between atoms: C_12  and  O_13
REMARK   10  A    between atoms: C_14  and  C_15
REMARK                            x       y       z     vdW  Elec       q    Type
REMARK                         _______ _______ _______ _____ _____    ______ ____
ROOT
ATOM      1  C   UNL     1      48.592   8.190  13.164  0.00  0.00    +0.000 A 
ATOM      2  C   UNL     1      47.835   8.934  14.077  0.00  0.00    +0.000 A 
ATOM      3  C   UNL     1      48.242   9.049  15.404  0.00  0.00    +0.000 A 
ATOM      4  C   UNL     1      49.413   8.418  15.842  0.00  0.00    +0.000 A 
ATOM      5  C   UNL     1      50.238   7.787  14.901  0.00  0.00    +0.000 A 
ATOM      6  C   UNL     1      49.834   7.681  13.567  0.00  0.00    +0.000 A 
ENDROOT
BRANCH   1   7
ATOM      7  C   UNL     1      48.047   7.915  11.789  0.00  0.00    +0.000 C 
BRANCH   7  10
ATOM      8  O   UNL     1      45.225   7.840  11.867  0.00  0.00    +0.000 OA
ATOM      9  C   UNL     1      45.853   6.792  11.755  0.00  0.00    +0.000 C 
ATOM     10  N   UNL     1      47.221   6.743  11.756  0.00  0.00    +0.000 N 
ATOM     11  H   UNL     1      47.690   5.884  11.493  0.00  0.00    +0.000 HD
BRANCH   9  12
ATOM     12  C   UNL     1      45.174   5.494  11.674  0.00  0.00    +0.000 A 
ATOM     13  C   UNL     1      44.518   4.985  12.785  0.00  0.00    +0.000 A 
ATOM     14  S   UNL     1      43.812   3.455  12.517  0.00  0.00    +0.000 S 
ATOM     15  C   UNL     1      44.318   3.446  10.892  0.00  0.00    +0.000 A 
ATOM     16  N   UNL     1      44.007   2.408  10.066  0.00  0.00    +0.000 NA
ATOM     17  C   UNL     1      44.411   2.554   8.848  0.00  0.00    +0.000 A 
ATOM     18  N   UNL     1      45.109   3.637   8.384  0.00  0.00    +0.000 N 
ATOM     19  C   UNL     1      45.516   4.665   9.194  0.00  0.00    +0.000 A 
ATOM     20  O   UNL     1      46.271   5.538   8.779  0.00  0.00    +0.000 OA
ATOM     21  C   UNL     1      45.039   4.578  10.564  0.00  0.00    +0.000 A 
ATOM     22  H   UNL     1      45.428   3.675   7.423  0.00  0.00    +0.000 HD
ENDBRANCH   9  12
ENDBRANCH   7  10
ENDBRANCH   1   7
BRANCH   4  23
ATOM     23  C   UNL     1      49.743   8.366  17.321  0.00  0.00    +0.000 C 
BRANCH  23  24
ATOM     24  N   UNL     1      49.586   7.007  17.910  0.00  0.00    +0.000 NA
BRANCH  24  25
ATOM     25  C   UNL     1      48.900   7.077  19.225  0.00  0.00    +0.000 C 
BRANCH  25  26
ATOM     26  C   UNL     1      47.371   6.884  19.177  0.00  0.00    +0.000 C 
BRANCH  26  27
ATOM     27  O   UNL     1      46.993   5.681  19.845  0.00  0.00    +0.000 OA
ATOM     28  H   UNL     1      47.742   5.419  20.409  0.00  0.00    +0.000 HD
ENDBRANCH  26  27
ENDBRANCH  25  26
ENDBRANCH  24  25
BRANCH  24  29
ATOM     29  C   UNL     1      48.810   6.157  16.975  0.00  0.00    +0.000 C 
BRANCH  29  30
ATOM     30  C   UNL     1      49.146   4.677  17.010  0.00  0.00    +0.000 A 
ATOM     31  C   UNL     1      48.178   3.723  16.694  0.00  0.00    +0.000 A 
ATOM     32  C   UNL     1      48.541   2.380  16.677  0.00  0.00    +0.000 A 
ATOM     33  C   UNL     1      49.850   2.026  16.976  0.00  0.00    +0.000 A 
ATOM     34  C   UNL     1      50.746   3.033  17.291  0.00  0.00    +0.000 A 
ATOM     35  N   UNL     1      50.425   4.344  17.316  0.00  0.00    +0.000 NA
ENDBRANCH  29  30
ENDBRANCH  24  29
ENDBRANCH  23  24
ENDBRANCH   4  23
TORSDOF 10
ENDMDL
