MODEL 1
REMARK VINA RESULT:    -8.850      0.000      0.000
REMARK INTER + INTRA:         -13.677
REMARK INTER:                 -12.471
REMARK INTRA:                  -1.205
REMARK UNBOUND:                -1.205
REMARK  Name = 
REMARK  8 active torsions:
REMARK  status: ('A' for Active; 'I' for Inactive)
REMARK    1  A    between atoms: C_1  and  C_2
REMARK    2  A    between atoms: C_10  and  C_11
REMARK    3  A    between atoms: N_13  and  C_14
REMARK    4  A    between atoms: C_14  and  C_15
REMARK    5  A    between atoms: C_18  and  C_19
REMARK    6  A    between atoms: C_19  and  C_20
REMARK    7  A    between atoms: C_20  and  C_21
REMARK    8  A    between atoms: C_21  and  C_22
REMARK                            x       y       z     vdW  Elec       q    Type
REMARK                         _______ _______ _______ _____ _____    ______ ____
ROOT
ATOM      1  C   UNL     1      48.094   6.419  14.038  0.00  0.00    +0.000 C 
ENDROOT
BRANCH   1   2
ATOM      2  C   UNL     1      46.955   5.976  13.157  0.00  0.00    +0.000 A 
ATOM      3  C   UNL     1      46.050   5.010  13.618  0.00  0.00    +0.000 A 
ATOM      4  C   UNL     1      44.996   4.578  12.808  0.00  0.00    +0.000 A 
ATOM      5  C   UNL     1      44.822   5.103  11.518  0.00  0.00    +0.000 A 
ATOM      6  C   UNL     1      45.743   6.047  11.052  0.00  0.00    +0.000 A 
ATOM      7  C   UNL     1      46.795   6.485  11.863  0.00  0.00    +0.000 A 
BRANCH   5   8
ATOM      8  C   UNL     1      43.654   4.684  10.652  0.00  0.00    +0.000 C 
BRANCH   8   9
ATOM      9  C   UNL     1      44.121   4.195   9.278  0.00  0.00    +0.000 C 
BRANCH   9  10
ATOM     10  C   UNL     1      44.610   2.745   9.296  0.00  0.00    +0.000 C 
BRANCH  10  11
ATOM     11  C   UNL     1      45.663   2.530   8.234  0.00  0.00    +0.000 A 
ATOM     12  C   UNL     1      45.935   3.513   7.274  0.00  0.00    +0.000 A 
ATOM     13  C   UNL     1      46.860   3.269   6.253  0.00  0.00    +0.000 A 
ATOM     14  C   UNL     1      47.514   2.040   6.182  0.00  0.00    +0.000 A 
ATOM     15  C   UNL     1      47.253   1.058   7.134  0.00  0.00    +0.000 A 
ATOM     16  C   UNL     1      46.336   1.302   8.156  0.00  0.00    +0.000 A 
ENDBRANCH  10  11
ENDBRANCH   9  10
ENDBRANCH   8   9
ENDBRANCH   5   8
ENDBRANCH   1   2
BRANCH   1  19
ATOM     17  C   UNL     1      48.903   5.974  16.303  0.00  0.00    +0.000 C 
ATOM     18  O   UNL     1      50.065   6.200  15.973  0.00  0.00    +0.000 OA
ATOM     19  N   UNL     1      47.860   6.044  15.414  0.00  0.00    +0.000 N 
ATOM     20  H   UNL     1      46.928   6.155  15.788  0.00  0.00    +0.000 HD
BRANCH  17  30
ATOM     21  C   UNL     1      48.640   3.045  17.526  0.00  0.00    +0.000 C 
ATOM     22  C   UNL     1      48.397   4.359  18.178  0.00  0.00    +0.000 A 
ATOM     23  N   UNL     1      47.985   4.440  19.485  0.00  0.00    +0.000 N 
ATOM     24  C   UNL     1      47.841   5.743  19.853  0.00  0.00    +0.000 A 
ATOM     25  N   UNL     1      47.436   6.130  21.077  0.00  0.00    +0.000 NA
ATOM     26  C   UNL     1      47.356   7.472  21.204  0.00  0.00    +0.000 A 
ATOM     27  C   UNL     1      47.649   8.395  20.214  0.00  0.00    +0.000 A 
ATOM     28  C   UNL     1      48.064   7.937  18.960  0.00  0.00    +0.000 A 
ATOM     29  C   UNL     1      48.172   6.546  18.763  0.00  0.00    +0.000 A 
ATOM     30  C   UNL     1      48.521   5.657  17.683  0.00  0.00    +0.000 A 
ATOM     31  H   UNL     1      47.800   3.666  20.105  0.00  0.00    +0.000 HD
ENDBRANCH  17  30
ENDBRANCH   1  19
TORSDOF 7
ENDMDL
MODEL 2
REMARK VINA RESULT:    -8.265      1.817      2.692
REMARK INTER + INTRA:         -12.852
REMARK INTER:                 -11.644
REMARK INTRA:                  -1.208
REMARK UNBOUND:                -1.205
REMARK  Name = 
REMARK  8 active torsions:
REMARK  status: ('A' for Active; 'I' for Inactive)
REMARK    1  A    between atoms: C_1  and  C_2
REMARK    2  A    between atoms: C_10  and  C_11
REMARK    3  A    between atoms: N_13  and  C_14
REMARK    4  A    between atoms: C_14  and  C_15
REMARK    5  A    between atoms: C_18  and  C_19
REMARK    6  A    between atoms: C_19  and  C_20
REMARK    7  A    between atoms: C_20  and  C_21
REMARK    8  A    between atoms: C_21  and  C_22
REMARK                            x       y       z     vdW  Elec       q    Type
REMARK                         _______ _______ _______ _____ _____    ______ ____
ROOT
ATOM      1  C   UNL     1      47.248   8.115  13.490  0.00  0.00    +0.000 C 
ENDROOT
BRANCH   1   2
ATOM      2  C   UNL     1      46.292   7.224  12.741  0.00  0.00    +0.000 A 
ATOM      3  C   UNL     1      45.217   7.785  12.038  0.00  0.00    +0.000 A 
ATOM      4  C   UNL     1      44.315   6.971  11.349  0.00  0.00    +0.000 A 
ATOM      5  C   UNL     1      44.467   5.576  11.345  0.00  0.00    +0.000 A 
ATOM      6  C   UNL     1      45.525   5.017  12.070  0.00  0.00    +0.000 A 
ATOM      7  C   UNL     1      46.433   5.831  12.756  0.00  0.00    +0.000 A 
BRANCH   5   8
ATOM      8  C   UNL     1      43.528   4.687  10.558  0.00  0.00    +0.000 C 
BRANCH   8   9
ATOM      9  C   UNL     1      44.296   3.644   9.740  0.00  0.00    +0.000 C 
BRANCH   9  10
ATOM     10  C   UNL     1      44.922   4.227   8.471  0.00  0.00    +0.000 C 
BRANCH  10  11
ATOM     11  C   UNL     1      45.854   3.223   7.834  0.00  0.00    +0.000 A 
ATOM     12  C   UNL     1      46.559   3.530   6.663  0.00  0.00    +0.000 A 
ATOM     13  C   UNL     1      47.361   2.564   6.045  0.00  0.00    +0.000 A 
ATOM     14  C   UNL     1      47.458   1.284   6.590  0.00  0.00    +0.000 A 
ATOM     15  C   UNL     1      46.763   0.970   7.755  0.00  0.00    +0.000 A 
ATOM     16  C   UNL     1      45.969   1.935   8.376  0.00  0.00    +0.000 A 
ENDBRANCH  10  11
ENDBRANCH   9  10
ENDBRANCH   8   9
ENDBRANCH   5   8
ENDBRANCH   1   2
BRANCH   1  19
ATOM     17  C   UNL     1      48.941   6.962  14.828  0.00  0.00    +0.000 C 
ATOM     18  O   UNL     1      49.741   6.973  13.894  0.00  0.00    +0.000 OA
ATOM     19  N   UNL     1      47.680   7.492  14.721  0.00  0.00    +0.000 N 
ATOM     20  H   UNL     1      47.195   7.732  15.574  0.00  0.00    +0.000 HD
BRANCH  17  30
ATOM     21  C   UNL     1      51.031   8.240  16.861  0.00  0.00    +0.000 C 
ATOM     22  C   UNL     1      50.217   7.005  17.007  0.00  0.00    +0.000 A 
ATOM     23  N   UNL     1      50.308   6.220  18.130  0.00  0.00    +0.000 N 
ATOM     24  C   UNL     1      49.461   5.158  18.031  0.00  0.00    +0.000 A 
ATOM     25  N   UNL     1      49.343   4.210  18.979  0.00  0.00    +0.000 NA
ATOM     26  C   UNL     1      48.451   3.250  18.654  0.00  0.00    +0.000 A 
ATOM     27  C   UNL     1      47.710   3.199  17.485  0.00  0.00    +0.000 A 
ATOM     28  C   UNL     1      47.873   4.211  16.534  0.00  0.00    +0.000 A 
ATOM     29  C   UNL     1      48.788   5.245  16.814  0.00  0.00    +0.000 A 
ATOM     30  C   UNL     1      49.279   6.428  16.151  0.00  0.00    +0.000 A 
ATOM     31  H   UNL     1      50.909   6.377  18.924  0.00  0.00    +0.000 HD
ENDBRANCH  17  30
ENDBRANCH   1  19
TORSDOF 7
ENDMDL
MODEL 3
REMARK VINA RESULT:    -7.989      2.080      2.886
REMARK INTER + INTRA:         -12.464
REMARK INTER:                 -11.192
REMARK INTRA:                  -1.272
REMARK UNBOUND:                -1.205
REMARK  Name = 
REMARK  8 active torsions:
REMARK  status: ('A' for Active; 'I' for Inactive)
REMARK    1  A    between atoms: C_1  and  C_2
REMARK    2  A    between atoms: C_10  and  C_11
REMARK    3  A    between atoms: N_13  and  C_14
REMARK    4  A    between atoms: C_14  and  C_15
REMARK    5  A    between atoms: C_18  and  C_19
REMARK    6  A    between atoms: C_19  and  C_20
REMARK    7  A    between atoms: C_20  and  C_21
REMARK    8  A    between atoms: C_21  and  C_22
REMARK                            x       y       z     vdW  Elec       q    Type
REMARK                         _______ _______ _______ _____ _____    ______ ____
ROOT
ATOM      1  C   UNL     1      47.856   7.112  14.042  0.00  0.00    +0.000 C 
ENDROOT
BRANCH   1   2
ATOM      2  C   UNL     1      46.734   6.476  13.265  0.00  0.00    +0.000 A 
ATOM      3  C   UNL     1      45.929   7.262  12.428  0.00  0.00    +0.000 A 
ATOM      4  C   UNL     1      44.876   6.689  11.710  0.00  0.00    +0.000 A 
ATOM      5  C   UNL     1      44.602   5.317  11.812  0.00  0.00    +0.000 A 
ATOM      6  C   UNL     1      45.390   4.540  12.669  0.00  0.00    +0.000 A 
ATOM      7  C   UNL     1      46.449   5.110  13.383  0.00  0.00    +0.000 A 
BRANCH   5   8
ATOM      8  C   UNL     1      43.499   4.675  10.999  0.00  0.00    +0.000 C 
BRANCH   8   9
ATOM      9  C   UNL     1      44.056   3.640  10.015  0.00  0.00    +0.000 C 
BRANCH   9  10
ATOM     10  C   UNL     1      44.790   4.278   8.833  0.00  0.00    +0.000 C 
BRANCH  10  11
ATOM     11  C   UNL     1      45.711   3.274   8.181  0.00  0.00    +0.000 A 
ATOM     12  C   UNL     1      46.554   3.643   7.124  0.00  0.00    +0.000 A 
ATOM     13  C   UNL     1      47.347   2.685   6.483  0.00  0.00    +0.000 A 
ATOM     14  C   UNL     1      47.298   1.352   6.890  0.00  0.00    +0.000 A 
ATOM     15  C   UNL     1      46.466   0.976   7.941  0.00  0.00    +0.000 A 
ATOM     16  C   UNL     1      45.681   1.932   8.586  0.00  0.00    +0.000 A 
ENDBRANCH  10  11
ENDBRANCH   9  10
ENDBRANCH   8   9
ENDBRANCH   5   8
ENDBRANCH   1   2
BRANCH   1  19
ATOM     17  C   UNL     1      48.844   6.364  16.151  0.00  0.00    +0.000 C 
ATOM     18  O   UNL     1      48.533   7.412  16.713  0.00  0.00    +0.000 OA
ATOM     19  N   UNL     1      48.563   6.127  14.830  0.00  0.00    +0.000 N 
ATOM     20  H   UNL     1      48.556   5.168  14.513  0.00  0.00    +0.000 HD
BRANCH  17  30
ATOM     21  C   UNL     1      47.376   3.792  17.321  0.00  0.00    +0.000 C 
ATOM     22  C   UNL     1      48.818   4.153  17.372  0.00  0.00    +0.000 A 
ATOM     23  N   UNL     1      49.733   3.343  17.997  0.00  0.00    +0.000 N 
ATOM     24  C   UNL     1      50.980   3.882  17.901  0.00  0.00    +0.000 A 
ATOM     25  N   UNL     1      52.079   3.315  18.433  0.00  0.00    +0.000 NA
ATOM     26  C   UNL     1      53.199   4.038  18.221  0.00  0.00    +0.000 A 
ATOM     27  C   UNL     1      53.266   5.239  17.535  0.00  0.00    +0.000 A 
ATOM     28  C   UNL     1      52.093   5.784  17.004  0.00  0.00    +0.000 A 
ATOM     29  C   UNL     1      50.889   5.076  17.189  0.00  0.00    +0.000 A 
ATOM     30  C   UNL     1      49.497   5.255  16.855  0.00  0.00    +0.000 A 
ATOM     31  H   UNL     1      49.540   2.476  18.474  0.00  0.00    +0.000 HD
ENDBRANCH  17  30
ENDBRANCH   1  19
TORSDOF 7
ENDMDL
MODEL 4
REMARK VINA RESULT:    -7.866      1.038      2.257
REMARK INTER + INTRA:         -12.290
REMARK INTER:                 -11.164
REMARK INTRA:                  -1.126
REMARK UNBOUND:                -1.205
REMARK  Name = 
REMARK  8 active torsions:
REMARK  status: ('A' for Active; 'I' for Inactive)
REMARK    1  A    between atoms: C_1  and  C_2
REMARK    2  A    between atoms: C_10  and  C_11
REMARK    3  A    between atoms: N_13  and  C_14
REMARK    4  A    between atoms: C_14  and  C_15
REMARK    5  A    between atoms: C_18  and  C_19
REMARK    6  A    between atoms: C_19  and  C_20
REMARK    7  A    between atoms: C_20  and  C_21
REMARK    8  A    between atoms: C_21  and  C_22
REMARK                            x       y       z     vdW  Elec       q    Type
REMARK                         _______ _______ _______ _____ _____    ______ ____
ROOT
ATOM      1  C   UNL     1      48.338   6.515  13.938  0.00  0.00    +0.000 C 
ENDROOT
BRANCH   1   2
ATOM      2  C   UNL     1      47.156   5.923  13.217  0.00  0.00    +0.000 A 
ATOM      3  C   UNL     1      46.497   6.664  12.227  0.00  0.00    +0.000 A 
ATOM      4  C   UNL     1      45.390   6.133  11.558  0.00  0.00    +0.000 A 
ATOM      5  C   UNL     1      44.917   4.848  11.865  0.00  0.00    +0.000 A 
ATOM      6  C   UNL     1      45.560   4.122  12.873  0.00  0.00    +0.000 A 
ATOM      7  C   UNL     1      46.671   4.649  13.539  0.00  0.00    +0.000 A 
BRANCH   5   8
ATOM      8  C   UNL     1      43.753   4.241  11.111  0.00  0.00    +0.000 C 
BRANCH   8   9
ATOM      9  C   UNL     1      44.135   3.903   9.666  0.00  0.00    +0.000 C 
BRANCH   9  10
ATOM     10  C   UNL     1      44.699   2.488   9.516  0.00  0.00    +0.000 C 
BRANCH  10  11
ATOM     11  C   UNL     1      45.682   2.431   8.370  0.00  0.00    +0.000 A 
ATOM     12  C   UNL     1      45.889   3.539   7.537  0.00  0.00    +0.000 A 
ATOM     13  C   UNL     1      46.747   3.447   6.436  0.00  0.00    +0.000 A 
ATOM     14  C   UNL     1      47.399   2.246   6.157  0.00  0.00    +0.000 A 
ATOM     15  C   UNL     1      47.202   1.141   6.980  0.00  0.00    +0.000 A 
ATOM     16  C   UNL     1      46.352   1.234   8.083  0.00  0.00    +0.000 A 
ENDBRANCH  10  11
ENDBRANCH   9  10
ENDBRANCH   8   9
ENDBRANCH   5   8
ENDBRANCH   1   2
BRANCH   1  19
ATOM     17  C   UNL     1      48.926   7.316  16.173  0.00  0.00    +0.000 C 
ATOM     18  O   UNL     1      49.914   7.908  15.743  0.00  0.00    +0.000 OA
ATOM     19  N   UNL     1      48.093   6.590  15.361  0.00  0.00    +0.000 N 
ATOM     20  H   UNL     1      47.160   6.393  15.696  0.00  0.00    +0.000 HD
BRANCH  17  30
ATOM     21  C   UNL     1      47.833   9.897  17.685  0.00  0.00    +0.000 C 
ATOM     22  C   UNL     1      48.068   8.528  18.216  0.00  0.00    +0.000 A 
ATOM     23  N   UNL     1      47.826   8.225  19.533  0.00  0.00    +0.000 N 
ATOM     24  C   UNL     1      48.107   6.913  19.772  0.00  0.00    +0.000 A 
ATOM     25  N   UNL     1      47.977   6.333  20.980  0.00  0.00    +0.000 NA
ATOM     26  C   UNL     1      48.326   5.029  20.976  0.00  0.00    +0.000 A 
ATOM     27  C   UNL     1      48.774   4.317  19.877  0.00  0.00    +0.000 A 
ATOM     28  C   UNL     1      48.892   4.971  18.647  0.00  0.00    +0.000 A 
ATOM     29  C   UNL     1      48.540   6.333  18.582  0.00  0.00    +0.000 A 
ATOM     30  C   UNL     1      48.523   7.373  17.583  0.00  0.00    +0.000 A 
ATOM     31  H   UNL     1      47.496   8.859  20.244  0.00  0.00    +0.000 HD
ENDBRANCH  17  30
ENDBRANCH   1  19
TORSDOF 7
ENDMDL
MODEL 5
REMARK VINA RESULT:    -7.859      3.556      9.292
REMARK INTER + INTRA:         -12.281
REMARK INTER:                 -10.562
REMARK INTRA:                  -1.719
REMARK UNBOUND:                -1.205
REMARK  Name = 
REMARK  8 active torsions:
REMARK  status: ('A' for Active; 'I' for Inactive)
REMARK    1  A    between atoms: C_1  and  C_2
REMARK    2  A    between atoms: C_10  and  C_11
REMARK    3  A    between atoms: N_13  and  C_14
REMARK    4  A    between atoms: C_14  and  C_15
REMARK    5  A    between atoms: C_18  and  C_19
REMARK    6  A    between atoms: C_19  and  C_20
REMARK    7  A    between atoms: C_20  and  C_21
REMARK    8  A    between atoms: C_21  and  C_22
REMARK                            x       y       z     vdW  Elec       q    Type
REMARK                         _______ _______ _______ _____ _____    ______ ____
ROOT
ATOM      1  C   UNL     1      45.624   7.346  11.927  0.00  0.00    +0.000 C 
ENDROOT
BRANCH   1   2
ATOM      2  C   UNL     1      46.861   7.589  12.751  0.00  0.00    +0.000 A 
ATOM      3  C   UNL     1      47.968   6.740  12.619  0.00  0.00    +0.000 A 
ATOM      4  C   UNL     1      49.119   6.944  13.385  0.00  0.00    +0.000 A 
ATOM      5  C   UNL     1      49.189   8.003  14.304  0.00  0.00    +0.000 A 
ATOM      6  C   UNL     1      48.072   8.832  14.454  0.00  0.00    +0.000 A 
ATOM      7  C   UNL     1      46.922   8.633  13.683  0.00  0.00    +0.000 A 
BRANCH   5   8
ATOM      8  C   UNL     1      50.448   8.267  15.101  0.00  0.00    +0.000 C 
BRANCH   8   9
ATOM      9  C   UNL     1      50.838   7.056  15.953  0.00  0.00    +0.000 C 
BRANCH   9  10
ATOM     10  C   UNL     1      49.868   6.805  17.110  0.00  0.00    +0.000 C 
BRANCH  10  11
ATOM     11  C   UNL     1      49.339   5.390  17.058  0.00  0.00    +0.000 A 
ATOM     12  C   UNL     1      50.097   4.315  17.542  0.00  0.00    +0.000 A 
ATOM     13  C   UNL     1      49.624   3.004  17.419  0.00  0.00    +0.000 A 
ATOM     14  C   UNL     1      48.396   2.759  16.807  0.00  0.00    +0.000 A 
ATOM     15  C   UNL     1      47.635   3.820  16.326  0.00  0.00    +0.000 A 
ATOM     16  C   UNL     1      48.101   5.129  16.455  0.00  0.00    +0.000 A 
ENDBRANCH  10  11
ENDBRANCH   9  10
ENDBRANCH   8   9
ENDBRANCH   5   8
ENDBRANCH   1   2
BRANCH   1  19
ATOM     17  C   UNL     1      44.493   5.443  10.887  0.00  0.00    +0.000 C 
ATOM     18  O   UNL     1      43.396   5.986  10.997  0.00  0.00    +0.000 OA
ATOM     19  N   UNL     1      45.652   6.030  11.328  0.00  0.00    +0.000 N 
ATOM     20  H   UNL     1      46.526   5.698  10.945  0.00  0.00    +0.000 HD
BRANCH  17  30
ATOM     21  C   UNL     1      43.304   2.674  11.916  0.00  0.00    +0.000 C 
ATOM     22  C   UNL     1      44.149   2.946  10.723  0.00  0.00    +0.000 A 
ATOM     23  N   UNL     1      44.542   1.934   9.884  0.00  0.00    +0.000 N 
ATOM     24  C   UNL     1      45.296   2.434   8.865  0.00  0.00    +0.000 A 
ATOM     25  N   UNL     1      45.833   1.672   7.894  0.00  0.00    +0.000 NA
ATOM     26  C   UNL     1      46.551   2.388   7.001  0.00  0.00    +0.000 A 
ATOM     27  C   UNL     1      46.744   3.759   7.035  0.00  0.00    +0.000 A 
ATOM     28  C   UNL     1      46.164   4.500   8.069  0.00  0.00    +0.000 A 
ATOM     29  C   UNL     1      45.399   3.813   9.032  0.00  0.00    +0.000 A 
ATOM     30  C   UNL     1      44.668   4.143  10.231  0.00  0.00    +0.000 A 
ATOM     31  H   UNL     1      44.328   0.953   9.984  0.00  0.00    +0.000 HD
ENDBRANCH  17  30
ENDBRANCH   1  19
TORSDOF 7
ENDMDL
MODEL 6
REMARK VINA RESULT:    -7.768      3.592      5.696
REMARK INTER + INTRA:         -12.152
REMARK INTER:                 -10.669
REMARK INTRA:                  -1.483
REMARK UNBOUND:                -1.205
REMARK  Name = 
REMARK  8 active torsions:
REMARK  status: ('A' for Active; 'I' for Inactive)
REMARK    1  A    between atoms: C_1  and  C_2
REMARK    2  A    between atoms: C_10  and  C_11
REMARK    3  A    between atoms: N_13  and  C_14
REMARK    4  A    between atoms: C_14  and  C_15
REMARK    5  A    between atoms: C_18  and  C_19
REMARK    6  A    between atoms: C_19  and  C_20
REMARK    7  A    between atoms: C_20  and  C_21
REMARK    8  A    between atoms: C_21  and  C_22
REMARK                            x       y       z     vdW  Elec       q    Type
REMARK                         _______ _______ _______ _____ _____    ______ ____
ROOT
ATOM      1  C   UNL     1      47.700   6.330  14.131  0.00  0.00    +0.000 C 
ENDROOT
BRANCH   1   2
ATOM      2  C   UNL     1      46.643   5.494  13.459  0.00  0.00    +0.000 A 
ATOM      3  C   UNL     1      46.811   4.107  13.353  0.00  0.00    +0.000 A 
ATOM      4  C   UNL     1      45.846   3.318  12.720  0.00  0.00    +0.000 A 
ATOM      5  C   UNL     1      44.690   3.900  12.178  0.00  0.00    +0.000 A 
ATOM      6  C   UNL     1      44.538   5.288  12.261  0.00  0.00    +0.000 A 
ATOM      7  C   UNL     1      45.500   6.078  12.899  0.00  0.00    +0.000 A 
BRANCH   5   8
ATOM      8  C   UNL     1      43.612   3.052  11.539  0.00  0.00    +0.000 C 
BRANCH   8   9
ATOM      9  C   UNL     1      44.117   2.370  10.263  0.00  0.00    +0.000 C 
BRANCH   9  10
ATOM     10  C   UNL     1      44.466   3.366   9.154  0.00  0.00    +0.000 C 
BRANCH  10  11
ATOM     11  C   UNL     1      45.561   2.811   8.273  0.00  0.00    +0.000 A 
ATOM     12  C   UNL     1      46.170   3.602   7.290  0.00  0.00    +0.000 A 
ATOM     13  C   UNL     1      47.130   3.052   6.434  0.00  0.00    +0.000 A 
ATOM     14  C   UNL     1      47.483   1.708   6.551  0.00  0.00    +0.000 A 
ATOM     15  C   UNL     1      46.886   0.915   7.527  0.00  0.00    +0.000 A 
ATOM     16  C   UNL     1      45.933   1.464   8.387  0.00  0.00    +0.000 A 
ENDBRANCH  10  11
ENDBRANCH   9  10
ENDBRANCH   8   9
ENDBRANCH   5   8
ENDBRANCH   1   2
BRANCH   1  19
ATOM     17  C   UNL     1      48.233   8.268  12.737  0.00  0.00    +0.000 C 
ATOM     18  O   UNL     1      49.013   7.609  12.052  0.00  0.00    +0.000 OA
ATOM     19  N   UNL     1      47.547   7.728  13.794  0.00  0.00    +0.000 N 
ATOM     20  H   UNL     1      46.716   8.207  14.113  0.00  0.00    +0.000 HD
BRANCH  17  30
ATOM     21  C   UNL     1      50.309  10.678  12.903  0.00  0.00    +0.000 C 
ATOM     22  C   UNL     1      48.862  10.708  12.559  0.00  0.00    +0.000 A 
ATOM     23  N   UNL     1      48.225  11.888  12.266  0.00  0.00    +0.000 N 
ATOM     24  C   UNL     1      46.914  11.655  11.975  0.00  0.00    +0.000 A 
ATOM     25  N   UNL     1      46.038  12.626  11.662  0.00  0.00    +0.000 NA
ATOM     26  C   UNL     1      44.794  12.156  11.426  0.00  0.00    +0.000 A 
ATOM     27  C   UNL     1      44.410  10.827  11.485  0.00  0.00    +0.000 A 
ATOM     28  C   UNL     1      45.362   9.859  11.817  0.00  0.00    +0.000 A 
ATOM     29  C   UNL     1      46.681  10.284  12.072  0.00  0.00    +0.000 A 
ATOM     30  C   UNL     1      47.931   9.676  12.455  0.00  0.00    +0.000 A 
ATOM     31  H   UNL     1      48.637  12.808  12.265  0.00  0.00    +0.000 HD
ENDBRANCH  17  30
ENDBRANCH   1  19
TORSDOF 7
ENDMDL
MODEL 7
REMARK VINA RESULT:    -7.306      3.867      6.473
REMARK INTER + INTRA:         -11.501
REMARK INTER:                 -10.412
REMARK INTRA:                  -1.090
REMARK UNBOUND:                -1.205
REMARK  Name = 
REMARK  8 active torsions:
REMARK  status: ('A' for Active; 'I' for Inactive)
REMARK    1  A    between atoms: C_1  and  C_2
REMARK    2  A    between atoms: C_10  and  C_11
REMARK    3  A    between atoms: N_13  and  C_14
REMARK    4  A    between atoms: C_14  and  C_15
REMARK    5  A    between atoms: C_18  and  C_19
REMARK    6  A    between atoms: C_19  and  C_20
REMARK    7  A    between atoms: C_20  and  C_21
REMARK    8  A    between atoms: C_21  and  C_22
REMARK                            x       y       z     vdW  Elec       q    Type
REMARK                         _______ _______ _______ _____ _____    ______ ____
ROOT
ATOM      1  C   UNL     1      47.620   7.596  13.808  0.00  0.00    +0.000 C 
ENDROOT
BRANCH   1   2
ATOM      2  C   UNL     1      46.600   6.798  13.038  0.00  0.00    +0.000 A 
ATOM      3  C   UNL     1      46.553   5.404  13.177  0.00  0.00    +0.000 A 
ATOM      4  C   UNL     1      45.621   4.648  12.461  0.00  0.00    +0.000 A 
ATOM      5  C   UNL     1      44.714   5.269  11.588  0.00  0.00    +0.000 A 
ATOM      6  C   UNL     1      44.782   6.658  11.431  0.00  0.00    +0.000 A 
ATOM      7  C   UNL     1      45.710   7.416  12.152  0.00  0.00    +0.000 A 
BRANCH   5   8
ATOM      8  C   UNL     1      43.665   4.468  10.848  0.00  0.00    +0.000 C 
BRANCH   8   9
ATOM      9  C   UNL     1      44.154   4.052   9.457  0.00  0.00    +0.000 C 
BRANCH   9  10
ATOM     10  C   UNL     1      44.672   2.612   9.414  0.00  0.00    +0.000 C 
BRANCH  10  11
ATOM     11  C   UNL     1      45.642   2.434   8.269  0.00  0.00    +0.000 A 
ATOM     12  C   UNL     1      46.362   1.243   8.107  0.00  0.00    +0.000 A 
ATOM     13  C   UNL     1      47.310   1.122   7.086  0.00  0.00    +0.000 A 
ATOM     14  C   UNL     1      47.549   2.192   6.224  0.00  0.00    +0.000 A 
ATOM     15  C   UNL     1      46.836   3.378   6.374  0.00  0.00    +0.000 A 
ATOM     16  C   UNL     1      45.885   3.498   7.388  0.00  0.00    +0.000 A 
ENDBRANCH  10  11
ENDBRANCH   9  10
ENDBRANCH   8   9
ENDBRANCH   5   8
ENDBRANCH   1   2
BRANCH   1  19
ATOM     17  C   UNL     1      49.842   8.300  13.067  0.00  0.00    +0.000 C 
ATOM     18  O   UNL     1      50.386   7.666  13.969  0.00  0.00    +0.000 OA
ATOM     19  N   UNL     1      48.480   8.337  12.912  0.00  0.00    +0.000 N 
ATOM     20  H   UNL     1      48.114   8.601  12.008  0.00  0.00    +0.000 HD
BRANCH  17  30
ATOM     21  C   UNL     1      50.061  11.469  12.842  0.00  0.00    +0.000 C 
ATOM     22  C   UNL     1      50.658  10.424  11.969  0.00  0.00    +0.000 A 
ATOM     23  N   UNL     1      51.419  10.758  10.877  0.00  0.00    +0.000 N 
ATOM     24  C   UNL     1      51.858   9.632  10.248  0.00  0.00    +0.000 A 
ATOM     25  N   UNL     1      52.617   9.649   9.136  0.00  0.00    +0.000 NA
ATOM     26  C   UNL     1      52.919   8.412   8.687  0.00  0.00    +0.000 A 
ATOM     27  C   UNL     1      52.518   7.222   9.271  0.00  0.00    +0.000 A 
ATOM     28  C   UNL     1      51.728   7.263  10.424  0.00  0.00    +0.000 A 
ATOM     29  C   UNL     1      51.381   8.525  10.946  0.00  0.00    +0.000 A 
ATOM     30  C   UNL     1      50.602   9.033  12.049  0.00  0.00    +0.000 A 
ATOM     31  H   UNL     1      51.632  11.690  10.556  0.00  0.00    +0.000 HD
ENDBRANCH  17  30
ENDBRANCH   1  19
TORSDOF 7
ENDMDL
MODEL 8
REMARK VINA RESULT:    -7.254      5.114      8.834
REMARK INTER + INTRA:         -11.428
REMARK INTER:                 -10.062
REMARK INTRA:                  -1.366
REMARK UNBOUND:                -1.205
REMARK  Name = 
REMARK  8 active torsions:
REMARK  status: ('A' for Active; 'I' for Inactive)
REMARK    1  A    between atoms: C_1  and  C_2
REMARK    2  A    between atoms: C_10  and  C_11
REMARK    3  A    between atoms: N_13  and  C_14
REMARK    4  A    between atoms: C_14  and  C_15
REMARK    5  A    between atoms: C_18  and  C_19
REMARK    6  A    between atoms: C_19  and  C_20
REMARK    7  A    between atoms: C_20  and  C_21
REMARK    8  A    between atoms: C_21  and  C_22
REMARK                            x       y       z     vdW  Elec       q    Type
REMARK                         _______ _______ _______ _____ _____    ______ ____
ROOT
ATOM      1  C   UNL     1      45.478   7.330  12.416  0.00  0.00    +0.000 C 
ENDROOT
BRANCH   1   2
ATOM      2  C   UNL     1      46.736   8.106  12.129  0.00  0.00    +0.000 A 
ATOM      3  C   UNL     1      46.717   9.507  12.160  0.00  0.00    +0.000 A 
ATOM      4  C   UNL     1      47.873  10.242  11.883  0.00  0.00    +0.000 A 
ATOM      5  C   UNL     1      49.076   9.592  11.569  0.00  0.00    +0.000 A 
ATOM      6  C   UNL     1      49.086   8.194  11.513  0.00  0.00    +0.000 A 
ATOM      7  C   UNL     1      47.932   7.457  11.795  0.00  0.00    +0.000 A 
BRANCH   5   8
ATOM      8  C   UNL     1      50.348  10.374  11.321  0.00  0.00    +0.000 C 
BRANCH   8   9
ATOM      9  C   UNL     1      51.589   9.485  11.452  0.00  0.00    +0.000 C 
BRANCH   9  10
ATOM     10  C   UNL     1      52.707   9.879  10.483  0.00  0.00    +0.000 C 
BRANCH  10  11
ATOM     11  C   UNL     1      52.761   8.915   9.321  0.00  0.00    +0.000 A 
ATOM     12  C   UNL     1      52.998   9.366   8.016  0.00  0.00    +0.000 A 
ATOM     13  C   UNL     1      52.972   8.471   6.941  0.00  0.00    +0.000 A 
ATOM     14  C   UNL     1      52.702   7.121   7.163  0.00  0.00    +0.000 A 
ATOM     15  C   UNL     1      52.469   6.663   8.456  0.00  0.00    +0.000 A 
ATOM     16  C   UNL     1      52.502   7.553   9.530  0.00  0.00    +0.000 A 
ENDBRANCH  10  11
ENDBRANCH   9  10
ENDBRANCH   8   9
ENDBRANCH   5   8
ENDBRANCH   1   2
BRANCH   1  19
ATOM     17  C   UNL     1      44.425   5.553  11.105  0.00  0.00    +0.000 C 
ATOM     18  O   UNL     1      43.376   6.186  11.017  0.00  0.00    +0.000 OA
ATOM     19  N   UNL     1      45.517   6.029  11.786  0.00  0.00    +0.000 N 
ATOM     20  H   UNL     1      46.420   5.630  11.570  0.00  0.00    +0.000 HD
BRANCH  17  30
ATOM     21  C   UNL     1      43.310   2.761  12.153  0.00  0.00    +0.000 C 
ATOM     22  C   UNL     1      44.134   3.049  10.949  0.00  0.00    +0.000 A 
ATOM     23  N   UNL     1      44.539   2.044  10.107  0.00  0.00    +0.000 N 
ATOM     24  C   UNL     1      45.270   2.558   9.079  0.00  0.00    +0.000 A 
ATOM     25  N   UNL     1      45.811   1.807   8.102  0.00  0.00    +0.000 NA
ATOM     26  C   UNL     1      46.502   2.537   7.200  0.00  0.00    +0.000 A 
ATOM     27  C   UNL     1      46.666   3.912   7.229  0.00  0.00    +0.000 A 
ATOM     28  C   UNL     1      46.082   4.642   8.269  0.00  0.00    +0.000 A 
ATOM     29  C   UNL     1      45.344   3.940   9.242  0.00  0.00    +0.000 A 
ATOM     30  C   UNL     1      44.621   4.255  10.449  0.00  0.00    +0.000 A 
ATOM     31  H   UNL     1      44.348   1.059  10.211  0.00  0.00    +0.000 HD
ENDBRANCH  17  30
ENDBRANCH   1  19
TORSDOF 7
ENDMDL
MODEL 9
REMARK VINA RESULT:    -7.186      3.866      9.270
REMARK INTER + INTRA:         -11.332
REMARK INTER:                  -9.099
REMARK INTRA:                  -2.233
REMARK UNBOUND:                -1.205
REMARK  Name = 
REMARK  8 active torsions:
REMARK  status: ('A' for Active; 'I' for Inactive)
REMARK    1  A    between atoms: C_1  and  C_2
REMARK    2  A    between atoms: C_10  and  C_11
REMARK    3  A    between atoms: N_13  and  C_14
REMARK    4  A    between atoms: C_14  and  C_15
REMARK    5  A    between atoms: C_18  and  C_19
REMARK    6  A    between atoms: C_19  and  C_20
REMARK    7  A    between atoms: C_20  and  C_21
REMARK    8  A    between atoms: C_21  and  C_22
REMARK                            x       y       z     vdW  Elec       q    Type
REMARK                         _______ _______ _______ _____ _____    ______ ____
ROOT
ATOM      1  C   UNL     1      45.694   7.803  12.603  0.00  0.00    +0.000 C 
ENDROOT
BRANCH   1   2
ATOM      2  C   UNL     1      47.020   8.402  12.213  0.00  0.00    +0.000 A 
ATOM      3  C   UNL     1      48.107   7.568  11.922  0.00  0.00    +0.000 A 
ATOM      4  C   UNL     1      49.347   8.109  11.572  0.00  0.00    +0.000 A 
ATOM      5  C   UNL     1      49.528   9.498  11.504  0.00  0.00    +0.000 A 
ATOM      6  C   UNL     1      48.448  10.330  11.821  0.00  0.00    +0.000 A 
ATOM      7  C   UNL     1      47.205   9.790  12.166  0.00  0.00    +0.000 A 
BRANCH   5   8
ATOM      8  C   UNL     1      50.850  10.096  11.073  0.00  0.00    +0.000 C 
BRANCH   8   9
ATOM      9  C   UNL     1      51.984   9.694  12.021  0.00  0.00    +0.000 C 
BRANCH   9  10
ATOM     10  C   UNL     1      51.878  10.363  13.394  0.00  0.00    +0.000 C 
BRANCH  10  11
ATOM     11  C   UNL     1      51.077   9.499  14.341  0.00  0.00    +0.000 A 
ATOM     12  C   UNL     1      51.364   8.136  14.497  0.00  0.00    +0.000 A 
ATOM     13  C   UNL     1      50.567   7.335  15.321  0.00  0.00    +0.000 A 
ATOM     14  C   UNL     1      49.476   7.888  15.989  0.00  0.00    +0.000 A 
ATOM     15  C   UNL     1      49.185   9.241  15.843  0.00  0.00    +0.000 A 
ATOM     16  C   UNL     1      49.983  10.044  15.028  0.00  0.00    +0.000 A 
ENDBRANCH  10  11
ENDBRANCH   9  10
ENDBRANCH   8   9
ENDBRANCH   5   8
ENDBRANCH   1   2
BRANCH   1  19
ATOM     17  C   UNL     1      44.510   6.036  11.395  0.00  0.00    +0.000 C 
ATOM     18  O   UNL     1      43.589   6.798  11.105  0.00  0.00    +0.000 OA
ATOM     19  N   UNL     1      45.588   6.437  12.141  0.00  0.00    +0.000 N 
ATOM     20  H   UNL     1      46.433   5.885  12.085  0.00  0.00    +0.000 HD
BRANCH  17  30
ATOM     21  C   UNL     1      43.382   3.508  12.969  0.00  0.00    +0.000 C 
ATOM     22  C   UNL     1      44.074   3.561  11.654  0.00  0.00    +0.000 A 
ATOM     23  N   UNL     1      44.327   2.420  10.935  0.00  0.00    +0.000 N 
ATOM     24  C   UNL     1      44.958   2.728   9.768  0.00  0.00    +0.000 A 
ATOM     25  N   UNL     1      45.343   1.808   8.865  0.00  0.00    +0.000 NA
ATOM     26  C   UNL     1      45.960   2.350   7.793  0.00  0.00    +0.000 A 
ATOM     27  C   UNL     1      46.196   3.700   7.595  0.00  0.00    +0.000 A 
ATOM     28  C   UNL     1      45.776   4.612   8.568  0.00  0.00    +0.000 A 
ATOM     29  C   UNL     1      45.122   4.111   9.711  0.00  0.00    +0.000 A 
ATOM     30  C   UNL     1      44.561   4.647  10.926  0.00  0.00    +0.000 A 
ATOM     31  H   UNL     1      44.098   1.476  11.208  0.00  0.00    +0.000 HD
ENDBRANCH  17  30
ENDBRANCH   1  19
TORSDOF 7
ENDMDL
