MODEL 1
REMARK VINA RESULT:    -8.700      0.000      0.000
REMARK INTER + INTRA:         -12.838
REMARK INTER:                 -11.751
REMARK INTRA:                  -1.087
REMARK UNBOUND:                -1.087
REMARK  Name = 
REMARK  7 active torsions:
REMARK  status: ('A' for Active; 'I' for Inactive)
REMARK    1  A    between atoms: C_1  and  C_2
REMARK    2  A    between atoms: C_6  and  C_7
REMARK    3  A    between atoms: C_7  and  C_8
REMARK    4  A    between atoms: C_8  and  C_9
REMARK    5  A    between atoms: C_12  and  C_13
REMARK    6  A    between atoms: C_13  and  N_14
REMARK    7  A    between atoms: C_15  and  C_17
REMARK                            x       y       z     vdW  Elec       q    Type
REMARK                         _______ _______ _______ _____ _____    ______ ____
ROOT
ATOM      1  C   UNL     1      48.211   6.473  13.848  0.00  0.00    +0.000 C 
ENDROOT
BRANCH   1   5
ATOM      2  C   UNL     1      44.718   5.347  11.566  0.00  0.00    +0.000 A 
ATOM      3  C   UNL     1      44.977   4.750  12.803  0.00  0.00    +0.000 A 
ATOM      4  C   UNL     1      46.071   5.158  13.575  0.00  0.00    +0.000 A 
ATOM      5  C   UNL     1      46.917   6.183  13.134  0.00  0.00    +0.000 A 
ATOM      6  C   UNL     1      46.586   6.865  11.959  0.00  0.00    +0.000 A 
ATOM      7  C   UNL     1      45.500   6.451  11.184  0.00  0.00    +0.000 A 
BRANCH   2   8
ATOM      8  C   UNL     1      43.801   4.728  10.533  0.00  0.00    +0.000 C 
BRANCH   8   9
ATOM      9  C   UNL     1      44.020   3.271  10.096  0.00  0.00    +0.000 C 
BRANCH   9  15
ATOM     10  C   UNL     1      46.870  -0.047   7.598  0.00  0.00    +0.000 C 
ATOM     11  C   UNL     1      46.455   1.371   7.858  0.00  0.00    +0.000 A 
ATOM     12  C   UNL     1      47.070   2.422   7.173  0.00  0.00    +0.000 A 
ATOM     13  C   UNL     1      46.602   3.726   7.322  0.00  0.00    +0.000 A 
ATOM     14  C   UNL     1      45.545   4.000   8.189  0.00  0.00    +0.000 A 
ATOM     15  C   UNL     1      44.968   2.982   8.953  0.00  0.00    +0.000 A 
ATOM     16  C   UNL     1      45.417   1.661   8.758  0.00  0.00    +0.000 A 
ENDBRANCH   9  15
ENDBRANCH   8   9
ENDBRANCH   2   8
ENDBRANCH   1   5
BRANCH   1  17
ATOM     17  N   UNL     1      47.994   6.673  15.268  0.00  0.00    +0.000 N 
ATOM     18  C   UNL     1      49.027   6.513  16.158  0.00  0.00    +0.000 C 
ATOM     19  O   UNL     1      50.157   6.213  15.778  0.00  0.00    +0.000 OA
ATOM     20  H   UNL     1      47.037   6.708  15.608  0.00  0.00    +0.000 HD
BRANCH  18  21
ATOM     21  C   UNL     1      48.758   6.769  17.583  0.00  0.00    +0.000 A 
ATOM     22  C   UNL     1      48.574   8.078  18.010  0.00  0.00    +0.000 A 
ATOM     23  S   UNL     1      48.228   8.220  19.673  0.00  0.00    +0.000 S 
ATOM     24  C   UNL     1      48.362   6.542  19.897  0.00  0.00    +0.000 A 
ATOM     25  N   UNL     1      48.202   5.989  21.130  0.00  0.00    +0.000 NA
ATOM     26  C   UNL     1      48.368   4.708  21.170  0.00  0.00    +0.000 A 
ATOM     27  N   UNL     1      48.676   3.935  20.082  0.00  0.00    +0.000 N 
ATOM     28  C   UNL     1      48.816   4.448  18.811  0.00  0.00    +0.000 A 
ATOM     29  O   UNL     1      49.051   3.719  17.851  0.00  0.00    +0.000 OA
ATOM     30  C   UNL     1      48.646   5.880  18.720  0.00  0.00    +0.000 A 
ATOM     31  H   UNL     1      48.792   2.934  20.178  0.00  0.00    +0.000 HD
ENDBRANCH  18  21
ENDBRANCH   1  17
TORSDOF 6
ENDMDL
MODEL 2
REMARK VINA RESULT:    -8.502      1.719      2.074
REMARK INTER + INTRA:         -12.571
REMARK INTER:                 -11.335
REMARK INTRA:                  -1.236
REMARK UNBOUND:                -1.087
REMARK  Name = 
REMARK  7 active torsions:
REMARK  status: ('A' for Active; 'I' for Inactive)
REMARK    1  A    between atoms: C_1  and  C_2
REMARK    2  A    between atoms: C_6  and  C_7
REMARK    3  A    between atoms: C_7  and  C_8
REMARK    4  A    between atoms: C_8  and  C_9
REMARK    5  A    between atoms: C_12  and  C_13
REMARK    6  A    between atoms: C_13  and  N_14
REMARK    7  A    between atoms: C_15  and  C_17
REMARK                            x       y       z     vdW  Elec       q    Type
REMARK                         _______ _______ _______ _____ _____    ______ ____
ROOT
ATOM      1  C   UNL     1      47.599   8.425  13.615  0.00  0.00    +0.000 C 
ENDROOT
BRANCH   1   5
ATOM      2  C   UNL     1      44.964   6.180  11.026  0.00  0.00    +0.000 A 
ATOM      3  C   UNL     1      44.639   7.486  11.405  0.00  0.00    +0.000 A 
ATOM      4  C   UNL     1      45.520   8.239  12.190  0.00  0.00    +0.000 A 
ATOM      5  C   UNL     1      46.751   7.709  12.596  0.00  0.00    +0.000 A 
ATOM      6  C   UNL     1      47.131   6.452  12.113  0.00  0.00    +0.000 A 
ATOM      7  C   UNL     1      46.247   5.697  11.338  0.00  0.00    +0.000 A 
BRANCH   2   8
ATOM      8  C   UNL     1      43.937   5.198  10.506  0.00  0.00    +0.000 C 
BRANCH   8   9
ATOM      9  C   UNL     1      44.322   3.723  10.314  0.00  0.00    +0.000 C 
BRANCH   9  15
ATOM     10  C   UNL     1      46.692   0.133   7.693  0.00  0.00    +0.000 C 
ATOM     11  C   UNL     1      46.368   1.581   7.910  0.00  0.00    +0.000 A 
ATOM     12  C   UNL     1      46.923   2.560   7.081  0.00  0.00    +0.000 A 
ATOM     13  C   UNL     1      46.527   3.890   7.203  0.00  0.00    +0.000 A 
ATOM     14  C   UNL     1      45.606   4.264   8.180  0.00  0.00    +0.000 A 
ATOM     15  C   UNL     1      45.099   3.321   9.080  0.00  0.00    +0.000 A 
ATOM     16  C   UNL     1      45.470   1.972   8.916  0.00  0.00    +0.000 A 
ENDBRANCH   9  15
ENDBRANCH   8   9
ENDBRANCH   2   8
ENDBRANCH   1   5
BRANCH   1  17
ATOM     17  N   UNL     1      47.833   7.594  14.781  0.00  0.00    +0.000 N 
ATOM     18  C   UNL     1      49.109   7.226  15.126  0.00  0.00    +0.000 C 
ATOM     19  O   UNL     1      50.081   7.599  14.471  0.00  0.00    +0.000 OA
ATOM     20  H   UNL     1      47.040   7.111  15.194  0.00  0.00    +0.000 HD
BRANCH  18  21
ATOM     21  C   UNL     1      49.290   6.415  16.342  0.00  0.00    +0.000 A 
ATOM     22  C   UNL     1      50.261   6.789  17.262  0.00  0.00    +0.000 A 
ATOM     23  S   UNL     1      50.329   5.787  18.640  0.00  0.00    +0.000 S 
ATOM     24  C   UNL     1      49.098   4.785  18.034  0.00  0.00    +0.000 A 
ATOM     25  N   UNL     1      48.683   3.692  18.733  0.00  0.00    +0.000 NA
ATOM     26  C   UNL     1      47.769   2.994  18.144  0.00  0.00    +0.000 A 
ATOM     27  N   UNL     1      47.234   3.297  16.920  0.00  0.00    +0.000 N 
ATOM     28  C   UNL     1      47.602   4.409  16.194  0.00  0.00    +0.000 A 
ATOM     29  O   UNL     1      47.069   4.673  15.119  0.00  0.00    +0.000 OA
ATOM     30  C   UNL     1      48.628   5.217  16.812  0.00  0.00    +0.000 A 
ATOM     31  H   UNL     1      46.517   2.710  16.511  0.00  0.00    +0.000 HD
ENDBRANCH  18  21
ENDBRANCH   1  17
TORSDOF 6
ENDMDL
MODEL 3
REMARK VINA RESULT:    -8.425      2.358      2.936
REMARK INTER + INTRA:         -12.467
REMARK INTER:                 -11.260
REMARK INTRA:                  -1.207
REMARK UNBOUND:                -1.087
REMARK  Name = 
REMARK  7 active torsions:
REMARK  status: ('A' for Active; 'I' for Inactive)
REMARK    1  A    between atoms: C_1  and  C_2
REMARK    2  A    between atoms: C_6  and  C_7
REMARK    3  A    between atoms: C_7  and  C_8
REMARK    4  A    between atoms: C_8  and  C_9
REMARK    5  A    between atoms: C_12  and  C_13
REMARK    6  A    between atoms: C_13  and  N_14
REMARK    7  A    between atoms: C_15  and  C_17
REMARK                            x       y       z     vdW  Elec       q    Type
REMARK                         _______ _______ _______ _____ _____    ______ ____
ROOT
ATOM      1  C   UNL     1      47.952   6.705  14.875  0.00  0.00    +0.000 C 
ENDROOT
BRANCH   1   5
ATOM      2  C   UNL     1      45.698   4.094  12.271  0.00  0.00    +0.000 A 
ATOM      3  C   UNL     1      45.906   5.431  11.922  0.00  0.00    +0.000 A 
ATOM      4  C   UNL     1      46.690   6.263  12.731  0.00  0.00    +0.000 A 
ATOM      5  C   UNL     1      47.296   5.770  13.893  0.00  0.00    +0.000 A 
ATOM      6  C   UNL     1      47.192   4.404  14.174  0.00  0.00    +0.000 A 
ATOM      7  C   UNL     1      46.401   3.576  13.373  0.00  0.00    +0.000 A 
BRANCH   2   8
ATOM      8  C   UNL     1      44.594   3.252  11.667  0.00  0.00    +0.000 C 
BRANCH   8   9
ATOM      9  C   UNL     1      44.092   3.558  10.247  0.00  0.00    +0.000 C 
BRANCH   9  15
ATOM     10  C   UNL     1      46.762   0.160   7.660  0.00  0.00    +0.000 C 
ATOM     11  C   UNL     1      46.389   1.589   7.925  0.00  0.00    +0.000 A 
ATOM     12  C   UNL     1      46.996   2.621   7.205  0.00  0.00    +0.000 A 
ATOM     13  C   UNL     1      46.563   3.935   7.362  0.00  0.00    +0.000 A 
ATOM     14  C   UNL     1      45.550   4.239   8.271  0.00  0.00    +0.000 A 
ATOM     15  C   UNL     1      44.984   3.240   9.068  0.00  0.00    +0.000 A 
ATOM     16  C   UNL     1      45.397   1.908   8.865  0.00  0.00    +0.000 A 
ENDBRANCH   9  15
ENDBRANCH   8   9
ENDBRANCH   2   8
ENDBRANCH   1   5
BRANCH   1  17
ATOM     17  N   UNL     1      49.137   6.107  15.459  0.00  0.00    +0.000 N 
ATOM     18  C   UNL     1      49.123   5.663  16.757  0.00  0.00    +0.000 C 
ATOM     19  O   UNL     1      48.110   5.745  17.450  0.00  0.00    +0.000 OA
ATOM     20  H   UNL     1      50.024   6.229  14.977  0.00  0.00    +0.000 HD
BRANCH  18  21
ATOM     21  C   UNL     1      50.342   5.027  17.284  0.00  0.00    +0.000 A 
ATOM     22  C   UNL     1      51.345   5.829  17.813  0.00  0.00    +0.000 A 
ATOM     23  S   UNL     1      52.677   4.957  18.424  0.00  0.00    +0.000 S 
ATOM     24  C   UNL     1      51.986   3.477  17.958  0.00  0.00    +0.000 A 
ATOM     25  N   UNL     1      52.643   2.304  18.174  0.00  0.00    +0.000 NA
ATOM     26  C   UNL     1      52.026   1.256  17.738  0.00  0.00    +0.000 A 
ATOM     27  N   UNL     1      50.809   1.281  17.109  0.00  0.00    +0.000 N 
ATOM     28  C   UNL     1      50.096   2.441  16.898  0.00  0.00    +0.000 A 
ATOM     29  O   UNL     1      48.988   2.421  16.370  0.00  0.00    +0.000 OA
ATOM     30  C   UNL     1      50.752   3.641  17.365  0.00  0.00    +0.000 A 
ATOM     31  H   UNL     1      50.376   0.423  16.791  0.00  0.00    +0.000 HD
ENDBRANCH  18  21
ENDBRANCH   1  17
TORSDOF 6
ENDMDL
MODEL 4
REMARK VINA RESULT:    -8.368      1.363      2.066
REMARK INTER + INTRA:         -12.390
REMARK INTER:                 -11.216
REMARK INTRA:                  -1.175
REMARK UNBOUND:                -1.087
REMARK  Name = 
REMARK  7 active torsions:
REMARK  status: ('A' for Active; 'I' for Inactive)
REMARK    1  A    between atoms: C_1  and  C_2
REMARK    2  A    between atoms: C_6  and  C_7
REMARK    3  A    between atoms: C_7  and  C_8
REMARK    4  A    between atoms: C_8  and  C_9
REMARK    5  A    between atoms: C_12  and  C_13
REMARK    6  A    between atoms: C_13  and  N_14
REMARK    7  A    between atoms: C_15  and  C_17
REMARK                            x       y       z     vdW  Elec       q    Type
REMARK                         _______ _______ _______ _____ _____    ______ ____
ROOT
ATOM      1  C   UNL     1      48.195   6.195  14.048  0.00  0.00    +0.000 C 
ENDROOT
BRANCH   1   5
ATOM      2  C   UNL     1      44.731   5.338  11.610  0.00  0.00    +0.000 A 
ATOM      3  C   UNL     1      44.783   4.908  12.939  0.00  0.00    +0.000 A 
ATOM      4  C   UNL     1      45.874   5.239  13.751  0.00  0.00    +0.000 A 
ATOM      5  C   UNL     1      46.926   6.021  13.257  0.00  0.00    +0.000 A 
ATOM      6  C   UNL     1      46.813   6.556  11.969  0.00  0.00    +0.000 A 
ATOM      7  C   UNL     1      45.729   6.217  11.155  0.00  0.00    +0.000 A 
BRANCH   2   8
ATOM      8  C   UNL     1      43.794   4.730  10.589  0.00  0.00    +0.000 C 
BRANCH   8   9
ATOM      9  C   UNL     1      44.016   3.283  10.118  0.00  0.00    +0.000 C 
BRANCH   9  15
ATOM     10  C   UNL     1      46.908   0.041   7.569  0.00  0.00    +0.000 C 
ATOM     11  C   UNL     1      46.472   1.450   7.847  0.00  0.00    +0.000 A 
ATOM     12  C   UNL     1      47.066   2.518   7.172  0.00  0.00    +0.000 A 
ATOM     13  C   UNL     1      46.578   3.812   7.339  0.00  0.00    +0.000 A 
ATOM     14  C   UNL     1      45.521   4.060   8.214  0.00  0.00    +0.000 A 
ATOM     15  C   UNL     1      44.963   3.023   8.968  0.00  0.00    +0.000 A 
ATOM     16  C   UNL     1      45.433   1.712   8.755  0.00  0.00    +0.000 A 
ENDBRANCH   9  15
ENDBRANCH   8   9
ENDBRANCH   2   8
ENDBRANCH   1   5
BRANCH   1  17
ATOM     17  N   UNL     1      47.931   6.173  15.475  0.00  0.00    +0.000 N 
ATOM     18  C   UNL     1      48.969   6.129  16.372  0.00  0.00    +0.000 C 
ATOM     19  O   UNL     1      50.140   6.121  15.995  0.00  0.00    +0.000 OA
ATOM     20  H   UNL     1      46.987   5.964  15.786  0.00  0.00    +0.000 HD
BRANCH  18  21
ATOM     21  C   UNL     1      48.643   6.150  17.807  0.00  0.00    +0.000 A 
ATOM     22  C   UNL     1      48.783   4.983  18.548  0.00  0.00    +0.000 A 
ATOM     23  S   UNL     1      48.414   5.165  20.202  0.00  0.00    +0.000 S 
ATOM     24  C   UNL     1      48.002   6.798  19.982  0.00  0.00    +0.000 A 
ATOM     25  N   UNL     1      47.564   7.553  21.028  0.00  0.00    +0.000 NA
ATOM     26  C   UNL     1      47.247   8.766  20.718  0.00  0.00    +0.000 A 
ATOM     27  N   UNL     1      47.335   9.290  19.455  0.00  0.00    +0.000 N 
ATOM     28  C   UNL     1      47.803   8.573  18.375  0.00  0.00    +0.000 A 
ATOM     29  O   UNL     1      47.909   9.088  17.266  0.00  0.00    +0.000 OA
ATOM     30  C   UNL     1      48.162   7.206  18.674  0.00  0.00    +0.000 A 
ATOM     31  H   UNL     1      47.074  10.251  19.277  0.00  0.00    +0.000 HD
ENDBRANCH  18  21
ENDBRANCH   1  17
TORSDOF 6
ENDMDL
MODEL 5
REMARK VINA RESULT:    -7.967      3.550      5.329
REMARK INTER + INTRA:         -11.849
REMARK INTER:                 -10.778
REMARK INTRA:                  -1.071
REMARK UNBOUND:                -1.087
REMARK  Name = 
REMARK  7 active torsions:
REMARK  status: ('A' for Active; 'I' for Inactive)
REMARK    1  A    between atoms: C_1  and  C_2
REMARK    2  A    between atoms: C_6  and  C_7
REMARK    3  A    between atoms: C_7  and  C_8
REMARK    4  A    between atoms: C_8  and  C_9
REMARK    5  A    between atoms: C_12  and  C_13
REMARK    6  A    between atoms: C_13  and  N_14
REMARK    7  A    between atoms: C_15  and  C_17
REMARK                            x       y       z     vdW  Elec       q    Type
REMARK                         _______ _______ _______ _____ _____    ______ ____
ROOT
ATOM      1  C   UNL     1      47.336   5.501  14.468  0.00  0.00    +0.000 C 
ENDROOT
BRANCH   1   5
ATOM      2  C   UNL     1      44.565   4.196  11.418  0.00  0.00    +0.000 A 
ATOM      3  C   UNL     1      45.322   3.263  12.131  0.00  0.00    +0.000 A 
ATOM      4  C   UNL     1      46.173   3.675  13.163  0.00  0.00    +0.000 A 
ATOM      5  C   UNL     1      46.269   5.028  13.516  0.00  0.00    +0.000 A 
ATOM      6  C   UNL     1      45.419   5.945  12.889  0.00  0.00    +0.000 A 
ATOM      7  C   UNL     1      44.578   5.533  11.852  0.00  0.00    +0.000 A 
BRANCH   2   8
ATOM      8  C   UNL     1      43.922   3.883  10.084  0.00  0.00    +0.000 C 
BRANCH   8   9
ATOM      9  C   UNL     1      44.677   4.198   8.783  0.00  0.00    +0.000 C 
BRANCH   9  15
ATOM     10  C   UNL     1      47.740   2.756   5.053  0.00  0.00    +0.000 C 
ATOM     11  C   UNL     1      46.965   2.430   6.296  0.00  0.00    +0.000 A 
ATOM     12  C   UNL     1      46.963   1.128   6.803  0.00  0.00    +0.000 A 
ATOM     13  C   UNL     1      46.346   0.851   8.021  0.00  0.00    +0.000 A 
ATOM     14  C   UNL     1      45.690   1.861   8.725  0.00  0.00    +0.000 A 
ATOM     15  C   UNL     1      45.602   3.153   8.199  0.00  0.00    +0.000 A 
ATOM     16  C   UNL     1      46.270   3.432   6.991  0.00  0.00    +0.000 A 
ENDBRANCH   9  15
ENDBRANCH   8   9
ENDBRANCH   2   8
ENDBRANCH   1   5
BRANCH   1  17
ATOM     17  N   UNL     1      47.617   6.912  14.282  0.00  0.00    +0.000 N 
ATOM     18  C   UNL     1      48.609   7.315  13.423  0.00  0.00    +0.000 C 
ATOM     19  O   UNL     1      49.269   6.499  12.781  0.00  0.00    +0.000 OA
ATOM     20  H   UNL     1      47.234   7.571  14.955  0.00  0.00    +0.000 HD
BRANCH  18  21
ATOM     21  C   UNL     1      48.822   8.761  13.244  0.00  0.00    +0.000 A 
ATOM     22  C   UNL     1      50.057   9.305  13.573  0.00  0.00    +0.000 A 
ATOM     23  S   UNL     1      50.176  10.979  13.273  0.00  0.00    +0.000 S 
ATOM     24  C   UNL     1      48.565  11.051  12.742  0.00  0.00    +0.000 A 
ATOM     25  N   UNL     1      48.011  12.232  12.353  0.00  0.00    +0.000 NA
ATOM     26  C   UNL     1      46.768  12.155  12.009  0.00  0.00    +0.000 A 
ATOM     27  N   UNL     1      46.035  10.998  12.017  0.00  0.00    +0.000 N 
ATOM     28  C   UNL     1      46.562   9.776  12.372  0.00  0.00    +0.000 A 
ATOM     29  O   UNL     1      45.887   8.752  12.326  0.00  0.00    +0.000 OA
ATOM     30  C   UNL     1      47.950   9.816  12.772  0.00  0.00    +0.000 A 
ATOM     31  H   UNL     1      45.063  11.003  11.733  0.00  0.00    +0.000 HD
ENDBRANCH  18  21
ENDBRANCH   1  17
TORSDOF 6
ENDMDL
MODEL 6
REMARK VINA RESULT:    -7.850      1.638      2.851
REMARK INTER + INTRA:         -11.690
REMARK INTER:                 -10.572
REMARK INTRA:                  -1.118
REMARK UNBOUND:                -1.087
REMARK  Name = 
REMARK  7 active torsions:
REMARK  status: ('A' for Active; 'I' for Inactive)
REMARK    1  A    between atoms: C_1  and  C_2
REMARK    2  A    between atoms: C_6  and  C_7
REMARK    3  A    between atoms: C_7  and  C_8
REMARK    4  A    between atoms: C_8  and  C_9
REMARK    5  A    between atoms: C_12  and  C_13
REMARK    6  A    between atoms: C_13  and  N_14
REMARK    7  A    between atoms: C_15  and  C_17
REMARK                            x       y       z     vdW  Elec       q    Type
REMARK                         _______ _______ _______ _____ _____    ______ ____
ROOT
ATOM      1  C   UNL     1      47.228   3.679  14.847  0.00  0.00    +0.000 C 
ENDROOT
BRANCH   1   5
ATOM      2  C   UNL     1      45.443   4.934  11.115  0.00  0.00    +0.000 A 
ATOM      3  C   UNL     1      45.141   3.681  11.657  0.00  0.00    +0.000 A 
ATOM      4  C   UNL     1      45.666   3.297  12.897  0.00  0.00    +0.000 A 
ATOM      5  C   UNL     1      46.488   4.165  13.628  0.00  0.00    +0.000 A 
ATOM      6  C   UNL     1      46.686   5.463  13.146  0.00  0.00    +0.000 A 
ATOM      7  C   UNL     1      46.171   5.842  11.904  0.00  0.00    +0.000 A 
BRANCH   2   8
ATOM      8  C   UNL     1      45.225   5.270   9.655  0.00  0.00    +0.000 C 
BRANCH   8   9
ATOM      9  C   UNL     1      44.665   4.200   8.704  0.00  0.00    +0.000 C 
BRANCH   9  15
ATOM     10  C   UNL     1      47.797   2.690   5.059  0.00  0.00    +0.000 C 
ATOM     11  C   UNL     1      46.997   2.386   6.292  0.00  0.00    +0.000 A 
ATOM     12  C   UNL     1      46.980   1.093   6.819  0.00  0.00    +0.000 A 
ATOM     13  C   UNL     1      46.338   0.837   8.030  0.00  0.00    +0.000 A 
ATOM     14  C   UNL     1      45.672   1.860   8.703  0.00  0.00    +0.000 A 
ATOM     15  C   UNL     1      45.598   3.144   8.156  0.00  0.00    +0.000 A 
ATOM     16  C   UNL     1      46.290   3.401   6.956  0.00  0.00    +0.000 A 
ENDBRANCH   9  15
ENDBRANCH   8   9
ENDBRANCH   2   8
ENDBRANCH   1   5
BRANCH   1  17
ATOM     17  N   UNL     1      47.419   4.750  15.806  0.00  0.00    +0.000 N 
ATOM     18  C   UNL     1      47.946   4.486  17.045  0.00  0.00    +0.000 C 
ATOM     19  O   UNL     1      48.282   3.348  17.367  0.00  0.00    +0.000 OA
ATOM     20  H   UNL     1      46.954   5.638  15.635  0.00  0.00    +0.000 HD
BRANCH  18  21
ATOM     21  C   UNL     1      48.156   5.618  17.963  0.00  0.00    +0.000 A 
ATOM     22  C   UNL     1      47.793   5.480  19.297  0.00  0.00    +0.000 A 
ATOM     23  S   UNL     1      48.133   6.852  20.250  0.00  0.00    +0.000 S 
ATOM     24  C   UNL     1      48.729   7.703  18.906  0.00  0.00    +0.000 A 
ATOM     25  N   UNL     1      49.171   8.984  19.033  0.00  0.00    +0.000 NA
ATOM     26  C   UNL     1      49.561   9.528  17.928  0.00  0.00    +0.000 A 
ATOM     27  N   UNL     1      49.552   8.900  16.711  0.00  0.00    +0.000 N 
ATOM     28  C   UNL     1      49.143   7.595  16.543  0.00  0.00    +0.000 A 
ATOM     29  O   UNL     1      49.188   7.050  15.443  0.00  0.00    +0.000 OA
ATOM     30  C   UNL     1      48.690   6.948  17.752  0.00  0.00    +0.000 A 
ATOM     31  H   UNL     1      49.873   9.381  15.880  0.00  0.00    +0.000 HD
ENDBRANCH  18  21
ENDBRANCH   1  17
TORSDOF 6
ENDMDL
MODEL 7
REMARK VINA RESULT:    -7.726      3.938      8.755
REMARK INTER + INTRA:         -11.523
REMARK INTER:                  -9.889
REMARK INTRA:                  -1.634
REMARK UNBOUND:                -1.087
REMARK  Name = 
REMARK  7 active torsions:
REMARK  status: ('A' for Active; 'I' for Inactive)
REMARK    1  A    between atoms: C_1  and  C_2
REMARK    2  A    between atoms: C_6  and  C_7
REMARK    3  A    between atoms: C_7  and  C_8
REMARK    4  A    between atoms: C_8  and  C_9
REMARK    5  A    between atoms: C_12  and  C_13
REMARK    6  A    between atoms: C_13  and  N_14
REMARK    7  A    between atoms: C_15  and  C_17
REMARK                            x       y       z     vdW  Elec       q    Type
REMARK                         _______ _______ _______ _____ _____    ______ ____
ROOT
ATOM      1  C   UNL     1      47.871   7.930  12.091  0.00  0.00    +0.000 C 
ENDROOT
BRANCH   1   5
ATOM      2  C   UNL     1      49.343   7.901  16.155  0.00  0.00    +0.000 A 
ATOM      3  C   UNL     1      50.021   7.201  15.152  0.00  0.00    +0.000 A 
ATOM      4  C   UNL     1      49.585   7.261  13.824  0.00  0.00    +0.000 A 
ATOM      5  C   UNL     1      48.473   8.035  13.468  0.00  0.00    +0.000 A 
ATOM      6  C   UNL     1      47.873   8.833  14.447  0.00  0.00    +0.000 A 
ATOM      7  C   UNL     1      48.302   8.765  15.775  0.00  0.00    +0.000 A 
BRANCH   2   8
ATOM      8  C   UNL     1      49.522   7.601  17.628  0.00  0.00    +0.000 C 
BRANCH   8   9
ATOM      9  C   UNL     1      48.517   6.687  18.347  0.00  0.00    +0.000 C 
BRANCH   9  15
ATOM     10  C   UNL     1      50.971   2.394  17.388  0.00  0.00    +0.000 C 
ATOM     11  C   UNL     1      49.702   3.194  17.376  0.00  0.00    +0.000 A 
ATOM     12  C   UNL     1      48.526   2.641  16.864  0.00  0.00    +0.000 A 
ATOM     13  C   UNL     1      47.322   3.336  16.964  0.00  0.00    +0.000 A 
ATOM     14  C   UNL     1      47.288   4.607  17.538  0.00  0.00    +0.000 A 
ATOM     15  C   UNL     1      48.464   5.221  17.979  0.00  0.00    +0.000 A 
ATOM     16  C   UNL     1      49.666   4.489  17.916  0.00  0.00    +0.000 A 
ENDBRANCH   9  15
ENDBRANCH   8   9
ENDBRANCH   2   8
ENDBRANCH   1   5
BRANCH   1  17
ATOM     17  N   UNL     1      47.157   6.679  11.925  0.00  0.00    +0.000 N 
ATOM     18  C   UNL     1      45.785   6.662  11.886  0.00  0.00    +0.000 C 
ATOM     19  O   UNL     1      45.131   7.700  11.974  0.00  0.00    +0.000 OA
ATOM     20  H   UNL     1      47.667   5.811  12.066  0.00  0.00    +0.000 HD
BRANCH  18  21
ATOM     21  C   UNL     1      45.115   5.369  11.674  0.00  0.00    +0.000 A 
ATOM     22  C   UNL     1      44.442   4.777  12.735  0.00  0.00    +0.000 A 
ATOM     23  S   UNL     1      43.677   3.307  12.335  0.00  0.00    +0.000 S 
ATOM     24  C   UNL     1      44.260   3.378  10.741  0.00  0.00    +0.000 A 
ATOM     25  N   UNL     1      43.983   2.385   9.853  0.00  0.00    +0.000 NA
ATOM     26  C   UNL     1      44.518   2.542   8.688  0.00  0.00    +0.000 A 
ATOM     27  N   UNL     1      45.301   3.609   8.335  0.00  0.00    +0.000 N 
ATOM     28  C   UNL     1      45.581   4.651   9.191  0.00  0.00    +0.000 A 
ATOM     29  O   UNL     1      46.252   5.613   8.826  0.00  0.00    +0.000 OA
ATOM     30  C   UNL     1      45.008   4.514  10.510  0.00  0.00    +0.000 A 
ATOM     31  H   UNL     1      45.691   3.676   7.402  0.00  0.00    +0.000 HD
ENDBRANCH  18  21
ENDBRANCH   1  17
TORSDOF 6
ENDMDL
MODEL 8
REMARK VINA RESULT:    -7.663      1.726      2.432
REMARK INTER + INTRA:         -11.438
REMARK INTER:                 -10.371
REMARK INTRA:                  -1.067
REMARK UNBOUND:                -1.087
REMARK  Name = 
REMARK  7 active torsions:
REMARK  status: ('A' for Active; 'I' for Inactive)
REMARK    1  A    between atoms: C_1  and  C_2
REMARK    2  A    between atoms: C_6  and  C_7
REMARK    3  A    between atoms: C_7  and  C_8
REMARK    4  A    between atoms: C_8  and  C_9
REMARK    5  A    between atoms: C_12  and  C_13
REMARK    6  A    between atoms: C_13  and  N_14
REMARK    7  A    between atoms: C_15  and  C_17
REMARK                            x       y       z     vdW  Elec       q    Type
REMARK                         _______ _______ _______ _____ _____    ______ ____
ROOT
ATOM      1  C   UNL     1      47.937   5.304  14.142  0.00  0.00    +0.000 C 
ENDROOT
BRANCH   1   5
ATOM      2  C   UNL     1      44.769   4.637  11.279  0.00  0.00    +0.000 A 
ATOM      3  C   UNL     1      44.921   3.784  12.376  0.00  0.00    +0.000 A 
ATOM      4  C   UNL     1      45.905   4.034  13.341  0.00  0.00    +0.000 A 
ATOM      5  C   UNL     1      46.744   5.151  13.237  0.00  0.00    +0.000 A 
ATOM      6  C   UNL     1      46.508   6.071  12.210  0.00  0.00    +0.000 A 
ATOM      7  C   UNL     1      45.533   5.816  11.242  0.00  0.00    +0.000 A 
BRANCH   2   8
ATOM      8  C   UNL     1      44.000   4.244  10.036  0.00  0.00    +0.000 C 
BRANCH   8   9
ATOM      9  C   UNL     1      44.667   4.367   8.657  0.00  0.00    +0.000 C 
BRANCH   9  15
ATOM     10  C   UNL     1      47.864   2.609   5.184  0.00  0.00    +0.000 C 
ATOM     11  C   UNL     1      47.009   2.380   6.395  0.00  0.00    +0.000 A 
ATOM     12  C   UNL     1      46.922   1.108   6.966  0.00  0.00    +0.000 A 
ATOM     13  C   UNL     1      46.228   0.920   8.159  0.00  0.00    +0.000 A 
ATOM     14  C   UNL     1      45.579   1.990   8.773  0.00  0.00    +0.000 A 
ATOM     15  C   UNL     1      45.576   3.256   8.180  0.00  0.00    +0.000 A 
ATOM     16  C   UNL     1      46.321   3.444   6.999  0.00  0.00    +0.000 A 
ENDBRANCH   9  15
ENDBRANCH   8   9
ENDBRANCH   2   8
ENDBRANCH   1   5
BRANCH   1  17
ATOM     17  N   UNL     1      47.788   6.449  15.020  0.00  0.00    +0.000 N 
ATOM     18  C   UNL     1      48.890   7.034  15.591  0.00  0.00    +0.000 C 
ATOM     19  O   UNL     1      50.025   6.617  15.364  0.00  0.00    +0.000 OA
ATOM     20  H   UNL     1      46.861   6.662  15.379  0.00  0.00    +0.000 HD
BRANCH  18  21
ATOM     21  C   UNL     1      48.682   8.218  16.441  0.00  0.00    +0.000 A 
ATOM     22  C   UNL     1      48.951   9.478  15.920  0.00  0.00    +0.000 A 
ATOM     23  S   UNL     1      48.624  10.756  16.999  0.00  0.00    +0.000 S 
ATOM     24  C   UNL     1      48.159   9.673  18.222  0.00  0.00    +0.000 A 
ATOM     25  N   UNL     1      47.776  10.128  19.447  0.00  0.00    +0.000 NA
ATOM     26  C   UNL     1      47.485   9.200  20.297  0.00  0.00    +0.000 A 
ATOM     27  N   UNL     1      47.540   7.858  20.025  0.00  0.00    +0.000 N 
ATOM     28  C   UNL     1      47.890   7.355  18.791  0.00  0.00    +0.000 A 
ATOM     29  O   UNL     1      47.887   6.147  18.571  0.00  0.00    +0.000 OA
ATOM     30  C   UNL     1      48.231   8.359  17.810  0.00  0.00    +0.000 A 
ATOM     31  H   UNL     1      47.297   7.179  20.735  0.00  0.00    +0.000 HD
ENDBRANCH  18  21
ENDBRANCH   1  17
TORSDOF 6
ENDMDL
MODEL 9
REMARK VINA RESULT:    -7.583      3.992      8.385
REMARK INTER + INTRA:         -11.330
REMARK INTER:                  -9.028
REMARK INTRA:                  -2.301
REMARK UNBOUND:                -1.087
REMARK  Name = 
REMARK  7 active torsions:
REMARK  status: ('A' for Active; 'I' for Inactive)
REMARK    1  A    between atoms: C_1  and  C_2
REMARK    2  A    between atoms: C_6  and  C_7
REMARK    3  A    between atoms: C_7  and  C_8
REMARK    4  A    between atoms: C_8  and  C_9
REMARK    5  A    between atoms: C_12  and  C_13
REMARK    6  A    between atoms: C_13  and  N_14
REMARK    7  A    between atoms: C_15  and  C_17
REMARK                            x       y       z     vdW  Elec       q    Type
REMARK                         _______ _______ _______ _____ _____    ______ ____
ROOT
ATOM      1  C   UNL     1      48.621   8.470  14.389  0.00  0.00    +0.000 C 
ENDROOT
BRANCH   1   5
ATOM      2  C   UNL     1      49.412   7.453  18.515  0.00  0.00    +0.000 A 
ATOM      3  C   UNL     1      50.278   7.028  17.504  0.00  0.00    +0.000 A 
ATOM      4  C   UNL     1      50.061   7.410  16.174  0.00  0.00    +0.000 A 
ATOM      5  C   UNL     1      48.985   8.238  15.832  0.00  0.00    +0.000 A 
ATOM      6  C   UNL     1      48.194   8.765  16.858  0.00  0.00    +0.000 A 
ATOM      7  C   UNL     1      48.404   8.376  18.184  0.00  0.00    +0.000 A 
BRANCH   2   8
ATOM      8  C   UNL     1      49.363   6.801  19.880  0.00  0.00    +0.000 C 
BRANCH   8   9
ATOM      9  C   UNL     1      48.550   5.512  20.081  0.00  0.00    +0.000 C 
BRANCH   9  15
ATOM     10  C   UNL     1      50.248   1.911  16.996  0.00  0.00    +0.000 C 
ATOM     11  C   UNL     1      49.228   2.959  17.330  0.00  0.00    +0.000 A 
ATOM     12  C   UNL     1      48.164   3.209  16.459  0.00  0.00    +0.000 A 
ATOM     13  C   UNL     1      47.152   4.093  16.825  0.00  0.00    +0.000 A 
ATOM     14  C   UNL     1      47.212   4.769  18.043  0.00  0.00    +0.000 A 
ATOM     15  C   UNL     1      48.308   4.604  18.896  0.00  0.00    +0.000 A 
ATOM     16  C   UNL     1      49.301   3.672  18.537  0.00  0.00    +0.000 A 
ENDBRANCH   9  15
ENDBRANCH   8   9
ENDBRANCH   2   8
ENDBRANCH   1   5
BRANCH   1  17
ATOM     17  N   UNL     1      47.511   7.629  13.986  0.00  0.00    +0.000 N 
ATOM     18  C   UNL     1      47.730   6.512  13.219  0.00  0.00    +0.000 C 
ATOM     19  O   UNL     1      48.864   6.189  12.869  0.00  0.00    +0.000 OA
ATOM     20  H   UNL     1      46.568   7.996  14.084  0.00  0.00    +0.000 HD
BRANCH  18  21
ATOM     21  C   UNL     1      46.570   5.673  12.873  0.00  0.00    +0.000 A 
ATOM     22  C   UNL     1      46.635   4.305  13.106  0.00  0.00    +0.000 A 
ATOM     23  S   UNL     1      45.208   3.466  12.699  0.00  0.00    +0.000 S 
ATOM     24  C   UNL     1      44.467   4.891  12.147  0.00  0.00    +0.000 A 
ATOM     25  N   UNL     1      43.207   4.867  11.630  0.00  0.00    +0.000 NA
ATOM     26  C   UNL     1      42.777   6.010  11.212  0.00  0.00    +0.000 A 
ATOM     27  N   UNL     1      43.495   7.175  11.271  0.00  0.00    +0.000 N 
ATOM     28  C   UNL     1      44.759   7.252  11.814  0.00  0.00    +0.000 A 
ATOM     29  O   UNL     1      45.356   8.322  11.889  0.00  0.00    +0.000 OA
ATOM     30  C   UNL     1      45.285   5.993  12.289  0.00  0.00    +0.000 A 
ATOM     31  H   UNL     1      43.100   8.042  10.927  0.00  0.00    +0.000 HD
ENDBRANCH  18  21
ENDBRANCH   1  17
TORSDOF 6
ENDMDL
