MODEL 1
REMARK VINA RESULT:    -8.653      0.000      0.000
REMARK INTER + INTRA:         -12.542
REMARK INTER:                 -11.688
REMARK INTRA:                  -0.854
REMARK UNBOUND:                -0.854
REMARK  Name = 
REMARK  7 active torsions:
REMARK  status: ('A' for Active; 'I' for Inactive)
REMARK    1  A    between atoms: C_1  and  C_2
REMARK    2  A    between atoms: C_2  and  C_3
REMARK    3  A    between atoms: C_2  and  C_13
REMARK    4  A    between atoms: C_3  and  C_4
REMARK    5  A    between atoms: C_7  and  C_8
REMARK    6  A    between atoms: C_17  and  O_18
REMARK    7  A    between atoms: O_18  and  C_19
REMARK                            x       y       z     vdW  Elec       q    Type
REMARK                         _______ _______ _______ _____ _____    ______ ____
ROOT
ATOM      1  C   UNL     1      42.484   5.633  11.696  0.00  0.00    +0.000 C 
ATOM      2  C   UNL     1      43.789   5.237  10.989  0.00  0.00    +0.000 C 
ENDROOT
BRANCH   2   3
ATOM      3  C   UNL     1      45.040   5.405  11.869  0.00  0.00    +0.000 A 
ATOM      4  C   UNL     1      46.039   6.313  11.473  0.00  0.00    +0.000 A 
ATOM      5  C   UNL     1      47.201   6.486  12.230  0.00  0.00    +0.000 A 
ATOM      6  C   UNL     1      47.370   5.791  13.424  0.00  0.00    +0.000 A 
ATOM      7  C   UNL     1      46.370   4.929  13.869  0.00  0.00    +0.000 A 
ATOM      8  C   UNL     1      45.238   4.708  13.076  0.00  0.00    +0.000 A 
BRANCH   7   9
ATOM      9  O   UNL     1      46.433   4.234  15.052  0.00  0.00    +0.000 OA
BRANCH   9  10
ATOM     10  C   UNL     1      47.726   4.254  15.680  0.00  0.00    +0.000 C 
ATOM     11  C   UNL     1      48.062   2.880  16.213  0.00  0.00    +0.000 C 
ATOM     12  C   UNL     1      47.470   2.885  17.606  0.00  0.00    +0.000 C 
ATOM     13  O   UNL     1      47.489   4.235  18.073  0.00  0.00    +0.000 OA
ATOM     14  C   UNL     1      47.673   5.106  16.946  0.00  0.00    +0.000 C 
ENDBRANCH   9  10
ENDBRANCH   7   9
ENDBRANCH   2   3
BRANCH   2  15
ATOM     15  C   UNL     1      43.716   3.785  10.449  0.00  0.00    +0.000 C 
BRANCH  15  16
ATOM     16  C   UNL     1      44.643   3.394   9.315  0.00  0.00    +0.000 A 
ATOM     17  C   UNL     1      45.059   2.066   9.221  0.00  0.00    +0.000 A 
ATOM     18  C   UNL     1      46.031   1.717   8.280  0.00  0.00    +0.000 A 
ATOM     19  C   UNL     1      46.573   2.694   7.452  0.00  0.00    +0.000 A 
ATOM     20  C   UNL     1      46.092   3.986   7.597  0.00  0.00    +0.000 A 
ATOM     21  N   UNL     1      45.153   4.359   8.514  0.00  0.00    +0.000 NA
BRANCH  19  22
ATOM     22  C   UNL     1      47.639   2.304   6.492  0.00  0.00    +0.000 C 
ATOM     23  N   UNL     1      47.759   2.976   5.309  0.00  0.00    +0.000 N 
ATOM     24  O   UNL     1      48.423   1.394   6.757  0.00  0.00    +0.000 OA
ATOM     25  H   UNL     1      47.165   3.723   4.986  0.00  0.00    +0.000 HD
ATOM     26  H   UNL     1      48.512   2.681   4.699  0.00  0.00    +0.000 HD
ENDBRANCH  19  22
ENDBRANCH  15  16
ENDBRANCH   2  15
TORSDOF 6
ENDMDL
MODEL 2
REMARK VINA RESULT:    -8.036      2.092      3.500
REMARK INTER + INTRA:         -11.708
REMARK INTER:                 -10.700
REMARK INTRA:                  -1.008
REMARK UNBOUND:                -0.854
REMARK  Name = 
REMARK  7 active torsions:
REMARK  status: ('A' for Active; 'I' for Inactive)
REMARK    1  A    between atoms: C_1  and  C_2
REMARK    2  A    between atoms: C_2  and  C_3
REMARK    3  A    between atoms: C_2  and  C_13
REMARK    4  A    between atoms: C_3  and  C_4
REMARK    5  A    between atoms: C_7  and  C_8
REMARK    6  A    between atoms: C_17  and  O_18
REMARK    7  A    between atoms: O_18  and  C_19
REMARK                            x       y       z     vdW  Elec       q    Type
REMARK                         _______ _______ _______ _____ _____    ______ ____
ROOT
ATOM      1  C   UNL     1      42.493   5.430  11.774  0.00  0.00    +0.000 C 
ATOM      2  C   UNL     1      43.822   5.064  11.095  0.00  0.00    +0.000 C 
ENDROOT
BRANCH   2   3
ATOM      3  C   UNL     1      45.041   5.189  12.025  0.00  0.00    +0.000 A 
ATOM      4  C   UNL     1      45.525   4.040  12.678  0.00  0.00    +0.000 A 
ATOM      5  C   UNL     1      46.618   4.108  13.546  0.00  0.00    +0.000 A 
ATOM      6  C   UNL     1      47.282   5.316  13.746  0.00  0.00    +0.000 A 
ATOM      7  C   UNL     1      46.859   6.456  13.067  0.00  0.00    +0.000 A 
ATOM      8  C   UNL     1      45.724   6.399  12.249  0.00  0.00    +0.000 A 
BRANCH   7   9
ATOM      9  O   UNL     1      47.477   7.678  13.171  0.00  0.00    +0.000 OA
BRANCH   9  10
ATOM     10  C   UNL     1      48.027   8.167  11.936  0.00  0.00    +0.000 C 
ATOM     11  C   UNL     1      49.415   7.602  11.729  0.00  0.00    +0.000 C 
ATOM     12  C   UNL     1      50.311   8.596  12.435  0.00  0.00    +0.000 C 
ATOM     13  O   UNL     1      49.668   9.870  12.374  0.00  0.00    +0.000 OA
ATOM     14  C   UNL     1      48.285   9.668  12.044  0.00  0.00    +0.000 C 
ENDBRANCH   9  10
ENDBRANCH   7   9
ENDBRANCH   2   3
BRANCH   2  15
ATOM     15  C   UNL     1      43.767   3.639  10.485  0.00  0.00    +0.000 C 
BRANCH  15  16
ATOM     16  C   UNL     1      44.686   3.322   9.322  0.00  0.00    +0.000 A 
ATOM     17  C   UNL     1      45.104   2.003   9.142  0.00  0.00    +0.000 A 
ATOM     18  C   UNL     1      46.069   1.715   8.175  0.00  0.00    +0.000 A 
ATOM     19  C   UNL     1      46.603   2.742   7.404  0.00  0.00    +0.000 A 
ATOM     20  C   UNL     1      46.122   4.021   7.634  0.00  0.00    +0.000 A 
ATOM     21  N   UNL     1      45.190   4.336   8.579  0.00  0.00    +0.000 NA
BRANCH  19  22
ATOM     22  C   UNL     1      47.663   2.414   6.414  0.00  0.00    +0.000 C 
ATOM     23  N   UNL     1      47.729   3.113   5.243  0.00  0.00    +0.000 N 
ATOM     24  O   UNL     1      48.488   1.532   6.644  0.00  0.00    +0.000 OA
ATOM     25  H   UNL     1      47.099   3.841   4.948  0.00  0.00    +0.000 HD
ATOM     26  H   UNL     1      48.480   2.861   4.611  0.00  0.00    +0.000 HD
ENDBRANCH  19  22
ENDBRANCH  15  16
ENDBRANCH   2  15
TORSDOF 6
ENDMDL
MODEL 3
REMARK VINA RESULT:    -7.573      3.284      5.213
REMARK INTER + INTRA:         -11.084
REMARK INTER:                 -10.427
REMARK INTRA:                  -0.656
REMARK UNBOUND:                -0.854
REMARK  Name = 
REMARK  7 active torsions:
REMARK  status: ('A' for Active; 'I' for Inactive)
REMARK    1  A    between atoms: C_1  and  C_2
REMARK    2  A    between atoms: C_2  and  C_3
REMARK    3  A    between atoms: C_2  and  C_13
REMARK    4  A    between atoms: C_3  and  C_4
REMARK    5  A    between atoms: C_7  and  C_8
REMARK    6  A    between atoms: C_17  and  O_18
REMARK    7  A    between atoms: O_18  and  C_19
REMARK                            x       y       z     vdW  Elec       q    Type
REMARK                         _______ _______ _______ _____ _____    ______ ____
ROOT
ATOM      1  C   UNL     1      45.339   3.446  12.165  0.00  0.00    +0.000 C 
ATOM      2  C   UNL     1      44.466   4.650  11.781  0.00  0.00    +0.000 C 
ENDROOT
BRANCH   2   3
ATOM      3  C   UNL     1      45.197   5.999  11.892  0.00  0.00    +0.000 A 
ATOM      4  C   UNL     1      46.604   6.017  11.898  0.00  0.00    +0.000 A 
ATOM      5  C   UNL     1      47.312   7.217  12.016  0.00  0.00    +0.000 A 
ATOM      6  C   UNL     1      46.630   8.430  12.084  0.00  0.00    +0.000 A 
ATOM      7  C   UNL     1      45.239   8.444  12.023  0.00  0.00    +0.000 A 
ATOM      8  C   UNL     1      44.532   7.237  11.971  0.00  0.00    +0.000 A 
BRANCH   7   9
ATOM      9  O   UNL     1      44.487   9.592  12.042  0.00  0.00    +0.000 OA
BRANCH   9  10
ATOM     10  C   UNL     1      44.019  10.013  10.749  0.00  0.00    +0.000 C 
ATOM     11  C   UNL     1      44.297  11.486  10.553  0.00  0.00    +0.000 C 
ATOM     12  C   UNL     1      43.070  12.158  11.131  0.00  0.00    +0.000 C 
ATOM     13  O   UNL     1      41.973  11.258  10.969  0.00  0.00    +0.000 OA
ATOM     14  C   UNL     1      42.495   9.946  10.704  0.00  0.00    +0.000 C 
ENDBRANCH   9  10
ENDBRANCH   7   9
ENDBRANCH   2   3
BRANCH   2  15
ATOM     15  C   UNL     1      43.878   4.485  10.356  0.00  0.00    +0.000 C 
BRANCH  15  16
ATOM     16  C   UNL     1      44.768   3.904   9.276  0.00  0.00    +0.000 A 
ATOM     17  C   UNL     1      44.909   2.518   9.200  0.00  0.00    +0.000 A 
ATOM     18  C   UNL     1      45.841   1.970   8.316  0.00  0.00    +0.000 A 
ATOM     19  C   UNL     1      46.618   2.809   7.523  0.00  0.00    +0.000 A 
ATOM     20  C   UNL     1      46.403   4.173   7.646  0.00  0.00    +0.000 A 
ATOM     21  N   UNL     1      45.510   4.738   8.509  0.00  0.00    +0.000 NA
BRANCH  19  22
ATOM     22  C   UNL     1      47.635   2.201   6.625  0.00  0.00    +0.000 C 
ATOM     23  N   UNL     1      48.013   2.863   5.492  0.00  0.00    +0.000 N 
ATOM     24  O   UNL     1      48.149   1.118   6.897  0.00  0.00    +0.000 OA
ATOM     25  H   UNL     1      47.648   3.744   5.167  0.00  0.00    +0.000 HD
ATOM     26  H   UNL     1      48.721   2.413   4.924  0.00  0.00    +0.000 HD
ENDBRANCH  19  22
ENDBRANCH  15  16
ENDBRANCH   2  15
TORSDOF 6
ENDMDL
MODEL 4
REMARK VINA RESULT:    -7.555      2.501      3.172
REMARK INTER + INTRA:         -11.059
REMARK INTER:                 -10.323
REMARK INTRA:                  -0.736
REMARK UNBOUND:                -0.854
REMARK  Name = 
REMARK  7 active torsions:
REMARK  status: ('A' for Active; 'I' for Inactive)
REMARK    1  A    between atoms: C_1  and  C_2
REMARK    2  A    between atoms: C_2  and  C_3
REMARK    3  A    between atoms: C_2  and  C_13
REMARK    4  A    between atoms: C_3  and  C_4
REMARK    5  A    between atoms: C_7  and  C_8
REMARK    6  A    between atoms: C_17  and  O_18
REMARK    7  A    between atoms: O_18  and  C_19
REMARK                            x       y       z     vdW  Elec       q    Type
REMARK                         _______ _______ _______ _____ _____    ______ ____
ROOT
ATOM      1  C   UNL     1      45.327   3.521  12.310  0.00  0.00    +0.000 C 
ATOM      2  C   UNL     1      44.308   4.612  11.948  0.00  0.00    +0.000 C 
ENDROOT
BRANCH   2   3
ATOM      3  C   UNL     1      44.875   6.039  12.047  0.00  0.00    +0.000 A 
ATOM      4  C   UNL     1      44.236   7.081  11.349  0.00  0.00    +0.000 A 
ATOM      5  C   UNL     1      44.726   8.389  11.394  0.00  0.00    +0.000 A 
ATOM      6  C   UNL     1      45.838   8.695  12.175  0.00  0.00    +0.000 A 
ATOM      7  C   UNL     1      46.455   7.694  12.920  0.00  0.00    +0.000 A 
ATOM      8  C   UNL     1      46.002   6.373  12.822  0.00  0.00    +0.000 A 
BRANCH   7   9
ATOM      9  O   UNL     1      47.529   7.912  13.748  0.00  0.00    +0.000 OA
BRANCH   9  10
ATOM     10  C   UNL     1      48.608   6.978  13.572  0.00  0.00    +0.000 C 
ATOM     11  C   UNL     1      49.600   7.115  14.705  0.00  0.00    +0.000 C 
ATOM     12  C   UNL     1      50.550   8.187  14.217  0.00  0.00    +0.000 C 
ATOM     13  O   UNL     1      50.577   8.119  12.791  0.00  0.00    +0.000 OA
ATOM     14  C   UNL     1      49.435   7.368  12.349  0.00  0.00    +0.000 C 
ENDBRANCH   9  10
ENDBRANCH   7   9
ENDBRANCH   2   3
BRANCH   2  15
ATOM     15  C   UNL     1      43.712   4.379  10.536  0.00  0.00    +0.000 C 
BRANCH  15  16
ATOM     16  C   UNL     1      44.600   3.755   9.478  0.00  0.00    +0.000 A 
ATOM     17  C   UNL     1      44.692   2.364   9.418  0.00  0.00    +0.000 A 
ATOM     18  C   UNL     1      45.618   1.773   8.556  0.00  0.00    +0.000 A 
ATOM     19  C   UNL     1      46.439   2.575   7.770  0.00  0.00    +0.000 A 
ATOM     20  C   UNL     1      46.273   3.947   7.876  0.00  0.00    +0.000 A 
ATOM     21  N   UNL     1      45.386   4.553   8.717  0.00  0.00    +0.000 NA
BRANCH  19  22
ATOM     22  C   UNL     1      47.450   1.921   6.897  0.00  0.00    +0.000 C 
ATOM     23  N   UNL     1      48.505   2.649   6.427  0.00  0.00    +0.000 N 
ATOM     24  O   UNL     1      47.353   0.731   6.604  0.00  0.00    +0.000 OA
ATOM     25  H   UNL     1      48.672   3.629   6.592  0.00  0.00    +0.000 HD
ATOM     26  H   UNL     1      49.173   2.152   5.850  0.00  0.00    +0.000 HD
ENDBRANCH  19  22
ENDBRANCH  15  16
ENDBRANCH   2  15
TORSDOF 6
ENDMDL
MODEL 5
REMARK VINA RESULT:    -6.932      2.853      7.996
REMARK INTER + INTRA:         -10.218
REMARK INTER:                  -9.630
REMARK INTRA:                  -0.588
REMARK UNBOUND:                -0.854
REMARK  Name = 
REMARK  7 active torsions:
REMARK  status: ('A' for Active; 'I' for Inactive)
REMARK    1  A    between atoms: C_1  and  C_2
REMARK    2  A    between atoms: C_2  and  C_3
REMARK    3  A    between atoms: C_2  and  C_13
REMARK    4  A    between atoms: C_3  and  C_4
REMARK    5  A    between atoms: C_7  and  C_8
REMARK    6  A    between atoms: C_17  and  O_18
REMARK    7  A    between atoms: O_18  and  C_19
REMARK                            x       y       z     vdW  Elec       q    Type
REMARK                         _______ _______ _______ _____ _____    ______ ____
ROOT
ATOM      1  C   UNL     1      44.839   7.755  11.418  0.00  0.00    +0.000 C 
ATOM      2  C   UNL     1      45.365   6.400  11.917  0.00  0.00    +0.000 C 
ENDROOT
BRANCH   2   3
ATOM      3  C   UNL     1      45.102   5.242  10.938  0.00  0.00    +0.000 A 
ATOM      4  C   UNL     1      44.167   4.249  11.287  0.00  0.00    +0.000 A 
ATOM      5  C   UNL     1      43.910   3.169  10.439  0.00  0.00    +0.000 A 
ATOM      6  C   UNL     1      44.545   3.080   9.203  0.00  0.00    +0.000 A 
ATOM      7  C   UNL     1      45.432   4.079   8.809  0.00  0.00    +0.000 A 
ATOM      8  C   UNL     1      45.737   5.125   9.688  0.00  0.00    +0.000 A 
BRANCH   7   9
ATOM      9  O   UNL     1      46.072   4.095   7.594  0.00  0.00    +0.000 OA
BRANCH   9  10
ATOM     10  C   UNL     1      45.961   2.868   6.853  0.00  0.00    +0.000 C 
ATOM     11  C   UNL     1      46.834   1.804   7.480  0.00  0.00    +0.000 C 
ATOM     12  C   UNL     1      48.174   2.002   6.805  0.00  0.00    +0.000 C 
ATOM     13  O   UNL     1      47.923   2.531   5.503  0.00  0.00    +0.000 OA
ATOM     14  C   UNL     1      46.581   3.043   5.469  0.00  0.00    +0.000 C 
ENDBRANCH   9  10
ENDBRANCH   7   9
ENDBRANCH   2   3
BRANCH   2  15
ATOM     15  C   UNL     1      46.877   6.474  12.252  0.00  0.00    +0.000 C 
BRANCH  15  16
ATOM     16  C   UNL     1      47.346   5.905  13.576  0.00  0.00    +0.000 A 
ATOM     17  C   UNL     1      46.746   4.739  14.052  0.00  0.00    +0.000 A 
ATOM     18  C   UNL     1      47.053   4.285  15.336  0.00  0.00    +0.000 A 
ATOM     19  C   UNL     1      47.949   4.998  16.126  0.00  0.00    +0.000 A 
ATOM     20  C   UNL     1      48.514   6.135  15.572  0.00  0.00    +0.000 A 
ATOM     21  N   UNL     1      48.226   6.611  14.326  0.00  0.00    +0.000 NA
BRANCH  19  22
ATOM     22  C   UNL     1      48.222   4.518  17.506  0.00  0.00    +0.000 C 
ATOM     23  N   UNL     1      47.255   4.636  18.463  0.00  0.00    +0.000 N 
ATOM     24  O   UNL     1      49.301   4.003  17.793  0.00  0.00    +0.000 OA
ATOM     25  H   UNL     1      46.346   5.053  18.342  0.00  0.00    +0.000 HD
ATOM     26  H   UNL     1      47.486   4.278  19.382  0.00  0.00    +0.000 HD
ENDBRANCH  19  22
ENDBRANCH  15  16
ENDBRANCH   2  15
TORSDOF 6
ENDMDL
MODEL 6
REMARK VINA RESULT:    -6.710      2.987      4.482
REMARK INTER + INTRA:          -9.917
REMARK INTER:                  -8.862
REMARK INTRA:                  -1.056
REMARK UNBOUND:                -0.854
REMARK  Name = 
REMARK  7 active torsions:
REMARK  status: ('A' for Active; 'I' for Inactive)
REMARK    1  A    between atoms: C_1  and  C_2
REMARK    2  A    between atoms: C_2  and  C_3
REMARK    3  A    between atoms: C_2  and  C_13
REMARK    4  A    between atoms: C_3  and  C_4
REMARK    5  A    between atoms: C_7  and  C_8
REMARK    6  A    between atoms: C_17  and  O_18
REMARK    7  A    between atoms: O_18  and  C_19
REMARK                            x       y       z     vdW  Elec       q    Type
REMARK                         _______ _______ _______ _____ _____    ______ ____
ROOT
ATOM      1  C   UNL     1      47.216   9.840  12.190  0.00  0.00    +0.000 C 
ATOM      2  C   UNL     1      47.103   8.385  12.669  0.00  0.00    +0.000 C 
ENDROOT
BRANCH   2   3
ATOM      3  C   UNL     1      47.815   8.122  14.007  0.00  0.00    +0.000 A 
ATOM      4  C   UNL     1      48.013   9.192  14.900  0.00  0.00    +0.000 A 
ATOM      5  C   UNL     1      48.671   9.005  16.118  0.00  0.00    +0.000 A 
ATOM      6  C   UNL     1      49.104   7.736  16.494  0.00  0.00    +0.000 A 
ATOM      7  C   UNL     1      48.870   6.649  15.655  0.00  0.00    +0.000 A 
ATOM      8  C   UNL     1      48.269   6.851  14.407  0.00  0.00    +0.000 A 
BRANCH   7   9
ATOM      9  O   UNL     1      49.224   5.359  15.962  0.00  0.00    +0.000 OA
BRANCH   9  10
ATOM     10  C   UNL     1      48.696   4.882  17.211  0.00  0.00    +0.000 C 
ATOM     11  C   UNL     1      49.327   3.555  17.567  0.00  0.00    +0.000 C 
ATOM     12  C   UNL     1      48.430   2.543  16.889  0.00  0.00    +0.000 C 
ATOM     13  O   UNL     1      47.119   3.107  16.825  0.00  0.00    +0.000 OA
ATOM     14  C   UNL     1      47.221   4.523  17.045  0.00  0.00    +0.000 C 
ENDBRANCH   9  10
ENDBRANCH   7   9
ENDBRANCH   2   3
BRANCH   2  15
ATOM     15  C   UNL     1      45.621   7.938  12.763  0.00  0.00    +0.000 C 
BRANCH  15  16
ATOM     16  C   UNL     1      45.275   6.515  12.373  0.00  0.00    +0.000 A 
ATOM     17  C   UNL     1      45.497   6.110  11.057  0.00  0.00    +0.000 A 
ATOM     18  C   UNL     1      45.044   4.857  10.639  0.00  0.00    +0.000 A 
ATOM     19  C   UNL     1      44.377   4.029  11.536  0.00  0.00    +0.000 A 
ATOM     20  C   UNL     1      44.213   4.499  12.829  0.00  0.00    +0.000 A 
ATOM     21  N   UNL     1      44.633   5.722  13.264  0.00  0.00    +0.000 NA
BRANCH  19  22
ATOM     22  C   UNL     1      43.865   2.720  11.051  0.00  0.00    +0.000 C 
ATOM     23  N   UNL     1      44.454   2.123   9.974  0.00  0.00    +0.000 N 
ATOM     24  O   UNL     1      42.927   2.162  11.618  0.00  0.00    +0.000 OA
ATOM     25  H   UNL     1      45.214   2.497   9.429  0.00  0.00    +0.000 HD
ATOM     26  H   UNL     1      44.077   1.225   9.695  0.00  0.00    +0.000 HD
ENDBRANCH  19  22
ENDBRANCH  15  16
ENDBRANCH   2  15
TORSDOF 6
ENDMDL
MODEL 7
REMARK VINA RESULT:    -6.437      3.756      7.454
REMARK INTER + INTRA:          -9.549
REMARK INTER:                  -8.539
REMARK INTRA:                  -1.010
REMARK UNBOUND:                -0.854
REMARK  Name = 
REMARK  7 active torsions:
REMARK  status: ('A' for Active; 'I' for Inactive)
REMARK    1  A    between atoms: C_1  and  C_2
REMARK    2  A    between atoms: C_2  and  C_3
REMARK    3  A    between atoms: C_2  and  C_13
REMARK    4  A    between atoms: C_3  and  C_4
REMARK    5  A    between atoms: C_7  and  C_8
REMARK    6  A    between atoms: C_17  and  O_18
REMARK    7  A    between atoms: O_18  and  C_19
REMARK                            x       y       z     vdW  Elec       q    Type
REMARK                         _______ _______ _______ _____ _____    ______ ____
ROOT
ATOM      1  C   UNL     1      48.494   9.926  13.373  0.00  0.00    +0.000 C 
ATOM      2  C   UNL     1      47.551   8.730  13.569  0.00  0.00    +0.000 C 
ENDROOT
BRANCH   2   3
ATOM      3  C   UNL     1      46.293   8.787  12.685  0.00  0.00    +0.000 A 
ATOM      4  C   UNL     1      45.941  10.004  12.073  0.00  0.00    +0.000 A 
ATOM      5  C   UNL     1      44.797  10.109  11.277  0.00  0.00    +0.000 A 
ATOM      6  C   UNL     1      44.005   8.990  11.036  0.00  0.00    +0.000 A 
ATOM      7  C   UNL     1      44.363   7.760  11.582  0.00  0.00    +0.000 A 
ATOM      8  C   UNL     1      45.472   7.672  12.432  0.00  0.00    +0.000 A 
BRANCH   7   9
ATOM      9  O   UNL     1      43.667   6.597  11.365  0.00  0.00    +0.000 OA
BRANCH   9  10
ATOM     10  C   UNL     1      44.388   5.403  11.712  0.00  0.00    +0.000 C 
ATOM     11  C   UNL     1      45.037   4.814  10.479  0.00  0.00    +0.000 C 
ATOM     12  C   UNL     1      43.965   3.910   9.912  0.00  0.00    +0.000 C 
ATOM     13  O   UNL     1      43.165   3.456  11.005  0.00  0.00    +0.000 OA
ATOM     14  C   UNL     1      43.408   4.311  12.134  0.00  0.00    +0.000 C 
ENDBRANCH   9  10
ENDBRANCH   7   9
ENDBRANCH   2   3
BRANCH   2  15
ATOM     15  C   UNL     1      48.294   7.387  13.342  0.00  0.00    +0.000 C 
BRANCH  15  16
ATOM     16  C   UNL     1      48.189   6.320  14.413  0.00  0.00    +0.000 A 
ATOM     17  C   UNL     1      47.257   5.295  14.246  0.00  0.00    +0.000 A 
ATOM     18  C   UNL     1      47.036   4.392  15.288  0.00  0.00    +0.000 A 
ATOM     19  C   UNL     1      47.744   4.524  16.479  0.00  0.00    +0.000 A 
ATOM     20  C   UNL     1      48.664   5.558  16.557  0.00  0.00    +0.000 A 
ATOM     21  N   UNL     1      48.893   6.462  15.562  0.00  0.00    +0.000 NA
BRANCH  19  22
ATOM     22  C   UNL     1      47.455   3.578  17.588  0.00  0.00    +0.000 C 
ATOM     23  N   UNL     1      48.145   3.686  18.762  0.00  0.00    +0.000 N 
ATOM     24  O   UNL     1      46.594   2.709  17.467  0.00  0.00    +0.000 OA
ATOM     25  H   UNL     1      48.877   4.348  18.963  0.00  0.00    +0.000 HD
ATOM     26  H   UNL     1      47.898   3.027  19.491  0.00  0.00    +0.000 HD
ENDBRANCH  19  22
ENDBRANCH  15  16
ENDBRANCH   2  15
TORSDOF 6
ENDMDL
MODEL 8
REMARK VINA RESULT:    -6.018      3.082      4.698
REMARK INTER + INTRA:          -8.982
REMARK INTER:                  -7.984
REMARK INTRA:                  -0.998
REMARK UNBOUND:                -0.854
REMARK  Name = 
REMARK  7 active torsions:
REMARK  status: ('A' for Active; 'I' for Inactive)
REMARK    1  A    between atoms: C_1  and  C_2
REMARK    2  A    between atoms: C_2  and  C_3
REMARK    3  A    between atoms: C_2  and  C_13
REMARK    4  A    between atoms: C_3  and  C_4
REMARK    5  A    between atoms: C_7  and  C_8
REMARK    6  A    between atoms: C_17  and  O_18
REMARK    7  A    between atoms: O_18  and  C_19
REMARK                            x       y       z     vdW  Elec       q    Type
REMARK                         _______ _______ _______ _____ _____    ______ ____
ROOT
ATOM      1  C   UNL     1      48.989   8.185  11.660  0.00  0.00    +0.000 C 
ATOM      2  C   UNL     1      48.469   7.160  12.679  0.00  0.00    +0.000 C 
ENDROOT
BRANCH   2   3
ATOM      3  C   UNL     1      49.196   7.217  14.033  0.00  0.00    +0.000 A 
ATOM      4  C   UNL     1      50.392   7.952  14.139  0.00  0.00    +0.000 A 
ATOM      5  C   UNL     1      51.097   8.017  15.343  0.00  0.00    +0.000 A 
ATOM      6  C   UNL     1      50.601   7.387  16.482  0.00  0.00    +0.000 A 
ATOM      7  C   UNL     1      49.391   6.700  16.419  0.00  0.00    +0.000 A 
ATOM      8  C   UNL     1      48.720   6.582  15.196  0.00  0.00    +0.000 A 
BRANCH   7   9
ATOM      9  O   UNL     1      48.807   6.085  17.498  0.00  0.00    +0.000 OA
BRANCH   9  10
ATOM     10  C   UNL     1      49.676   5.185  18.206  0.00  0.00    +0.000 C 
ATOM     11  C   UNL     1      49.890   3.927  17.395  0.00  0.00    +0.000 C 
ATOM     12  C   UNL     1      48.746   3.032  17.818  0.00  0.00    +0.000 C 
ATOM     13  O   UNL     1      48.406   3.379  19.161  0.00  0.00    +0.000 OA
ATOM     14  C   UNL     1      48.973   4.665  19.458  0.00  0.00    +0.000 C 
ENDBRANCH   9  10
ENDBRANCH   7   9
ENDBRANCH   2   3
BRANCH   2  15
ATOM     15  C   UNL     1      46.940   7.310  12.895  0.00  0.00    +0.000 C 
BRANCH  15  16
ATOM     16  C   UNL     1      46.032   6.214  12.374  0.00  0.00    +0.000 A 
ATOM     17  C   UNL     1      45.565   5.252  13.269  0.00  0.00    +0.000 A 
ATOM     18  C   UNL     1      44.856   4.150  12.785  0.00  0.00    +0.000 A 
ATOM     19  C   UNL     1      44.625   4.024  11.419  0.00  0.00    +0.000 A 
ATOM     20  C   UNL     1      45.107   5.032  10.600  0.00  0.00    +0.000 A 
ATOM     21  N   UNL     1      45.813   6.112  11.041  0.00  0.00    +0.000 NA
BRANCH  19  22
ATOM     22  C   UNL     1      43.909   2.818  10.926  0.00  0.00    +0.000 C 
ATOM     23  N   UNL     1      44.434   2.099   9.890  0.00  0.00    +0.000 N 
ATOM     24  O   UNL     1      42.857   2.452  11.448  0.00  0.00    +0.000 OA
ATOM     25  H   UNL     1      45.277   2.317   9.382  0.00  0.00    +0.000 HD
ATOM     26  H   UNL     1      43.915   1.278   9.604  0.00  0.00    +0.000 HD
ENDBRANCH  19  22
ENDBRANCH  15  16
ENDBRANCH   2  15
TORSDOF 6
ENDMDL
MODEL 9
REMARK VINA RESULT:    -5.683      4.023      8.114
REMARK INTER + INTRA:          -8.530
REMARK INTER:                  -7.545
REMARK INTRA:                  -0.985
REMARK UNBOUND:                -0.854
REMARK  Name = 
REMARK  7 active torsions:
REMARK  status: ('A' for Active; 'I' for Inactive)
REMARK    1  A    between atoms: C_1  and  C_2
REMARK    2  A    between atoms: C_2  and  C_3
REMARK    3  A    between atoms: C_2  and  C_13
REMARK    4  A    between atoms: C_3  and  C_4
REMARK    5  A    between atoms: C_7  and  C_8
REMARK    6  A    between atoms: C_17  and  O_18
REMARK    7  A    between atoms: O_18  and  C_19
REMARK                            x       y       z     vdW  Elec       q    Type
REMARK                         _______ _______ _______ _____ _____    ______ ____
ROOT
ATOM      1  C   UNL     1      50.207   7.558  11.412  0.00  0.00    +0.000 C 
ATOM      2  C   UNL     1      49.387   8.667  12.088  0.00  0.00    +0.000 C 
ENDROOT
BRANCH   2   3
ATOM      3  C   UNL     1      47.884   8.352  12.179  0.00  0.00    +0.000 A 
ATOM      4  C   UNL     1      46.980   9.395  12.452  0.00  0.00    +0.000 A 
ATOM      5  C   UNL     1      45.608   9.154  12.562  0.00  0.00    +0.000 A 
ATOM      6  C   UNL     1      45.103   7.872  12.355  0.00  0.00    +0.000 A 
ATOM      7  C   UNL     1      45.970   6.833  12.027  0.00  0.00    +0.000 A 
ATOM      8  C   UNL     1      47.349   7.065  11.982  0.00  0.00    +0.000 A 
BRANCH   7   9
ATOM      9  O   UNL     1      45.557   5.550  11.766  0.00  0.00    +0.000 OA
BRANCH   9  10
ATOM     10  C   UNL     1      44.137   5.411  11.590  0.00  0.00    +0.000 C 
ATOM     11  C   UNL     1      43.560   4.553  12.693  0.00  0.00    +0.000 C 
ATOM     12  C   UNL     1      43.687   3.146  12.152  0.00  0.00    +0.000 C 
ATOM     13  O   UNL     1      43.614   3.227  10.727  0.00  0.00    +0.000 OA
ATOM     14  C   UNL     1      43.849   4.589  10.336  0.00  0.00    +0.000 C 
ENDBRANCH   9  10
ENDBRANCH   7   9
ENDBRANCH   2   3
BRANCH   2  15
ATOM     15  C   UNL     1      49.943   8.995  13.498  0.00  0.00    +0.000 C 
BRANCH  15  16
ATOM     16  C   UNL     1      49.381   8.238  14.684  0.00  0.00    +0.000 A 
ATOM     17  C   UNL     1      48.787   8.961  15.719  0.00  0.00    +0.000 A 
ATOM     18  C   UNL     1      48.403   8.299  16.886  0.00  0.00    +0.000 A 
ATOM     19  C   UNL     1      48.617   6.930  17.007  0.00  0.00    +0.000 A 
ATOM     20  C   UNL     1      49.197   6.283  15.927  0.00  0.00    +0.000 A 
ATOM     21  N   UNL     1      49.594   6.903  14.780  0.00  0.00    +0.000 NA
BRANCH  19  22
ATOM     22  C   UNL     1      48.242   6.259  18.280  0.00  0.00    +0.000 C 
ATOM     23  N   UNL     1      47.079   5.547  18.347  0.00  0.00    +0.000 N 
ATOM     24  O   UNL     1      48.972   6.325  19.266  0.00  0.00    +0.000 OA
ATOM     25  H   UNL     1      46.402   5.440  17.608  0.00  0.00    +0.000 HD
ATOM     26  H   UNL     1      46.878   5.096  19.232  0.00  0.00    +0.000 HD
ENDBRANCH  19  22
ENDBRANCH  15  16
ENDBRANCH   2  15
TORSDOF 6
ENDMDL
