MODEL 1
REMARK VINA RESULT:    -7.807      0.000      0.000
REMARK INTER + INTRA:         -11.041
REMARK INTER:                 -10.545
REMARK INTRA:                  -0.496
REMARK UNBOUND:                -0.496
REMARK  Name = 
REMARK  6 active torsions:
REMARK  status: ('A' for Active; 'I' for Inactive)
REMARK    1  A    between atoms: C_2  and  C_3
REMARK    2  A    between atoms: C_3  and  C_4
REMARK    3  A    between atoms: C_7  and  N_8
REMARK    4  A    between atoms: N_8  and  C_9
REMARK    5  A    between atoms: C_9  and  C_10
REMARK    6  A    between atoms: C_15  and  C_16
REMARK                            x       y       z     vdW  Elec       q    Type
REMARK                         _______ _______ _______ _____ _____    ______ ____
ROOT
ATOM      1  C   UNL     1      43.793   5.712  11.245  0.00  0.00    +0.000 C 
ATOM      2  C   UNL     1      42.401   5.455  11.808  0.00  0.00    +0.000 C 
ATOM      3  C   UNL     1      42.864   6.860  11.608  0.00  0.00    +0.000 C 
ENDROOT
BRANCH   1   4
ATOM      4  C   UNL     1      45.070   5.586  12.091  0.00  0.00    +0.000 A 
ATOM      5  C   UNL     1      45.127   4.694  13.179  0.00  0.00    +0.000 A 
ATOM      6  C   UNL     1      46.224   4.654  14.035  0.00  0.00    +0.000 A 
ATOM      7  C   UNL     1      47.295   5.514  13.822  0.00  0.00    +0.000 A 
ATOM      8  F   UNL     1      48.326   5.408  14.672  0.00  0.00    +0.000 F 
ATOM      9  C   UNL     1      47.301   6.441  12.775  0.00  0.00    +0.000 A 
ATOM     10  C   UNL     1      46.193   6.414  11.901  0.00  0.00    +0.000 A 
BRANCH   9  11
ATOM     11  C   UNL     1      48.419   7.435  12.483  0.00  0.00    +0.000 C 
ATOM     12  C   UNL     1      49.249   7.929  13.681  0.00  0.00    +0.000 C 
ATOM     13  C   UNL     1      48.505   8.976  14.515  0.00  0.00    +0.000 C 
ATOM     14  N   UNL     1      48.096  10.127  13.708  0.00  0.00    +0.000 NA
ATOM     15  C   UNL     1      47.250   9.710  12.589  0.00  0.00    +0.000 C 
ATOM     16  C   UNL     1      47.949   8.686  11.697  0.00  0.00    +0.000 C 
ATOM     17  H   UNL     1      48.930  10.591  13.345  0.00  0.00    +0.000 HD
ENDBRANCH   9  11
ENDBRANCH   1   4
BRANCH   1  18
ATOM     18  N   UNL     1      43.994   5.367   9.837  0.00  0.00    +0.000 N 
ATOM     19  H   UNL     1      43.286   5.624   9.159  0.00  0.00    +0.000 HD
BRANCH  18  23
ATOM     20  C   UNL     1      45.912   2.047   8.286  0.00  0.00    +0.000 A 
ATOM     21  C   UNL     1      46.117   3.347   7.868  0.00  0.00    +0.000 A 
ATOM     22  N   UNL     1      45.479   4.404   8.405  0.00  0.00    +0.000 NA
ATOM     23  C   UNL     1      44.593   4.179   9.411  0.00  0.00    +0.000 A 
ATOM     24  C   UNL     1      44.357   2.892   9.912  0.00  0.00    +0.000 A 
ATOM     25 CL   UNL     1      43.335   2.433  11.221  0.00  0.00    +0.000 Cl
ATOM     26  C   UNL     1      45.015   1.821   9.321  0.00  0.00    +0.000 A 
BRANCH  20  27
ATOM     27  C   UNL     1      46.598   0.896   7.668  0.00  0.00    +0.000 C 
BRANCH  27  29
ATOM     28  N   UNL     1      48.473   1.670   5.765  0.00  0.00    +0.000 NA
ATOM     29  C   UNL     1      47.623   1.319   6.629  0.00  0.00    +0.000 C 
ENDBRANCH  27  29
ENDBRANCH  20  27
ENDBRANCH  18  23
ENDBRANCH   1  18
TORSDOF 6
ENDMDL
MODEL 2
REMARK VINA RESULT:    -7.288      2.555      3.642
REMARK INTER + INTRA:         -10.340
REMARK INTER:                 -10.113
REMARK INTRA:                  -0.227
REMARK UNBOUND:                -0.496
REMARK  Name = 
REMARK  6 active torsions:
REMARK  status: ('A' for Active; 'I' for Inactive)
REMARK    1  A    between atoms: C_2  and  C_3
REMARK    2  A    between atoms: C_3  and  C_4
REMARK    3  A    between atoms: C_7  and  N_8
REMARK    4  A    between atoms: N_8  and  C_9
REMARK    5  A    between atoms: C_9  and  C_10
REMARK    6  A    between atoms: C_15  and  C_16
REMARK                            x       y       z     vdW  Elec       q    Type
REMARK                         _______ _______ _______ _____ _____    ______ ____
ROOT
ATOM      1  C   UNL     1      44.301   5.744  11.738  0.00  0.00    +0.000 C 
ATOM      2  C   UNL     1      44.481   4.658  12.791  0.00  0.00    +0.000 C 
ATOM      3  C   UNL     1      43.333   5.606  12.903  0.00  0.00    +0.000 C 
ENDROOT
BRANCH   1   4
ATOM      4  C   UNL     1      45.146   7.027  11.713  0.00  0.00    +0.000 A 
ATOM      5  C   UNL     1      46.528   6.985  11.982  0.00  0.00    +0.000 A 
ATOM      6  C   UNL     1      47.287   8.147  12.090  0.00  0.00    +0.000 A 
ATOM      7  C   UNL     1      46.677   9.386  11.933  0.00  0.00    +0.000 A 
ATOM      8  F   UNL     1      47.471  10.461  12.029  0.00  0.00    +0.000 F 
ATOM      9  C   UNL     1      45.305   9.507  11.685  0.00  0.00    +0.000 A 
ATOM     10  C   UNL     1      44.582   8.306  11.533  0.00  0.00    +0.000 A 
BRANCH   9  11
ATOM     11  C   UNL     1      44.552  10.823  11.524  0.00  0.00    +0.000 C 
ATOM     12  C   UNL     1      43.015  10.762  11.572  0.00  0.00    +0.000 C 
ATOM     13  C   UNL     1      42.411  10.231  10.269  0.00  0.00    +0.000 C 
ATOM     14  N   UNL     1      42.823  11.026   9.110  0.00  0.00    +0.000 NA
ATOM     15  C   UNL     1      44.282  11.059   8.989  0.00  0.00    +0.000 C 
ATOM     16  C   UNL     1      44.946  11.612  10.249  0.00  0.00    +0.000 C 
ATOM     17  H   UNL     1      42.473  11.978   9.220  0.00  0.00    +0.000 HD
ENDBRANCH   9  11
ENDBRANCH   1   4
BRANCH   1  18
ATOM     18  N   UNL     1      43.895   5.291  10.407  0.00  0.00    +0.000 N 
ATOM     19  H   UNL     1      42.909   5.167  10.207  0.00  0.00    +0.000 HD
BRANCH  18  23
ATOM     20  C   UNL     1      46.131   2.810   7.968  0.00  0.00    +0.000 A 
ATOM     21  C   UNL     1      46.179   4.191   7.950  0.00  0.00    +0.000 A 
ATOM     22  N   UNL     1      45.440   4.965   8.768  0.00  0.00    +0.000 NA
ATOM     23  C   UNL     1      44.612   4.357   9.657  0.00  0.00    +0.000 A 
ATOM     24  C   UNL     1      44.534   2.961   9.757  0.00  0.00    +0.000 A 
ATOM     25 CL   UNL     1      43.605   2.026  10.867  0.00  0.00    +0.000 Cl
ATOM     26  C   UNL     1      45.292   2.191   8.885  0.00  0.00    +0.000 A 
BRANCH  20  27
ATOM     27  C   UNL     1      46.925   1.976   7.046  0.00  0.00    +0.000 C 
BRANCH  27  29
ATOM     28  N   UNL     1      46.891  -0.715   7.748  0.00  0.00    +0.000 NA
ATOM     29  C   UNL     1      46.907   0.506   7.429  0.00  0.00    +0.000 C 
ENDBRANCH  27  29
ENDBRANCH  20  27
ENDBRANCH  18  23
ENDBRANCH   1  18
TORSDOF 6
ENDMDL
MODEL 3
REMARK VINA RESULT:    -7.272      2.008      2.818
REMARK INTER + INTRA:         -10.318
REMARK INTER:                 -10.338
REMARK INTRA:                   0.020
REMARK UNBOUND:                -0.496
REMARK  Name = 
REMARK  6 active torsions:
REMARK  status: ('A' for Active; 'I' for Inactive)
REMARK    1  A    between atoms: C_2  and  C_3
REMARK    2  A    between atoms: C_3  and  C_4
REMARK    3  A    between atoms: C_7  and  N_8
REMARK    4  A    between atoms: N_8  and  C_9
REMARK    5  A    between atoms: C_9  and  C_10
REMARK    6  A    between atoms: C_15  and  C_16
REMARK                            x       y       z     vdW  Elec       q    Type
REMARK                         _______ _______ _______ _____ _____    ______ ____
ROOT
ATOM      1  C   UNL     1      44.089   5.680  11.773  0.00  0.00    +0.000 C 
ATOM      2  C   UNL     1      44.564   4.587  12.722  0.00  0.00    +0.000 C 
ATOM      3  C   UNL     1      43.227   5.216  12.937  0.00  0.00    +0.000 C 
ENDROOT
BRANCH   1   4
ATOM      4  C   UNL     1      44.601   7.127  11.848  0.00  0.00    +0.000 A 
ATOM      5  C   UNL     1      43.929   8.164  11.172  0.00  0.00    +0.000 A 
ATOM      6  C   UNL     1      44.444   9.456  11.121  0.00  0.00    +0.000 A 
ATOM      7  C   UNL     1      45.652   9.742  11.746  0.00  0.00    +0.000 A 
ATOM      8  F   UNL     1      46.078  11.010  11.674  0.00  0.00    +0.000 F 
ATOM      9  C   UNL     1      46.386   8.759  12.419  0.00  0.00    +0.000 A 
ATOM     10  C   UNL     1      45.805   7.475  12.490  0.00  0.00    +0.000 A 
BRANCH   9  11
ATOM     11  C   UNL     1      47.727   8.978  13.109  0.00  0.00    +0.000 C 
ATOM     12  C   UNL     1      48.953   9.201  12.206  0.00  0.00    +0.000 C 
ATOM     13  C   UNL     1      49.462   7.899  11.582  0.00  0.00    +0.000 C 
ATOM     14  N   UNL     1      49.790   6.896  12.598  0.00  0.00    +0.000 NA
ATOM     15  C   UNL     1      48.631   6.607  13.443  0.00  0.00    +0.000 C 
ATOM     16  C   UNL     1      48.093   7.864  14.124  0.00  0.00    +0.000 C 
ATOM     17  H   UNL     1      50.551   7.250  13.180  0.00  0.00    +0.000 HD
ENDBRANCH   9  11
ENDBRANCH   1   4
BRANCH   1  18
ATOM     18  N   UNL     1      43.753   5.253  10.414  0.00  0.00    +0.000 N 
ATOM     19  H   UNL     1      42.780   5.129  10.162  0.00  0.00    +0.000 HD
BRANCH  18  23
ATOM     20  C   UNL     1      46.111   2.835   8.027  0.00  0.00    +0.000 A 
ATOM     21  C   UNL     1      46.114   4.216   8.003  0.00  0.00    +0.000 A 
ATOM     22  N   UNL     1      45.337   4.970   8.803  0.00  0.00    +0.000 NA
ATOM     23  C   UNL     1      44.513   4.339   9.681  0.00  0.00    +0.000 A 
ATOM     24  C   UNL     1      44.479   2.942   9.787  0.00  0.00    +0.000 A 
ATOM     25 CL   UNL     1      43.562   1.983  10.886  0.00  0.00    +0.000 Cl
ATOM     26  C   UNL     1      45.276   2.194   8.932  0.00  0.00    +0.000 A 
BRANCH  20  27
ATOM     27  C   UNL     1      46.948   2.023   7.123  0.00  0.00    +0.000 C 
BRANCH  27  29
ATOM     28  N   UNL     1      46.850  -0.689   7.730  0.00  0.00    +0.000 NA
ATOM     29  C   UNL     1      46.895   0.541   7.455  0.00  0.00    +0.000 C 
ENDBRANCH  27  29
ENDBRANCH  20  27
ENDBRANCH  18  23
ENDBRANCH   1  18
TORSDOF 6
ENDMDL
MODEL 4
REMARK VINA RESULT:    -6.751      3.221      5.189
REMARK INTER + INTRA:          -9.615
REMARK INTER:                  -9.115
REMARK INTRA:                  -0.500
REMARK UNBOUND:                -0.496
REMARK  Name = 
REMARK  6 active torsions:
REMARK  status: ('A' for Active; 'I' for Inactive)
REMARK    1  A    between atoms: C_2  and  C_3
REMARK    2  A    between atoms: C_3  and  C_4
REMARK    3  A    between atoms: C_7  and  N_8
REMARK    4  A    between atoms: N_8  and  C_9
REMARK    5  A    between atoms: C_9  and  C_10
REMARK    6  A    between atoms: C_15  and  C_16
REMARK                            x       y       z     vdW  Elec       q    Type
REMARK                         _______ _______ _______ _____ _____    ______ ____
ROOT
ATOM      1  C   UNL     1      47.834   7.379  13.421  0.00  0.00    +0.000 C 
ATOM      2  C   UNL     1      47.716   8.619  12.544  0.00  0.00    +0.000 C 
ATOM      3  C   UNL     1      48.321   7.375  11.980  0.00  0.00    +0.000 C 
ENDROOT
BRANCH   1   4
ATOM      4  C   UNL     1      48.917   7.221  14.498  0.00  0.00    +0.000 A 
ATOM      5  C   UNL     1      50.186   7.811  14.336  0.00  0.00    +0.000 A 
ATOM      6  C   UNL     1      51.221   7.576  15.236  0.00  0.00    +0.000 A 
ATOM      7  C   UNL     1      51.012   6.737  16.324  0.00  0.00    +0.000 A 
ATOM      8  F   UNL     1      52.045   6.572  17.161  0.00  0.00    +0.000 F 
ATOM      9  C   UNL     1      49.785   6.100  16.539  0.00  0.00    +0.000 A 
ATOM     10  C   UNL     1      48.748   6.403  15.634  0.00  0.00    +0.000 A 
BRANCH   9  11
ATOM     11  C   UNL     1      49.477   5.148  17.690  0.00  0.00    +0.000 C 
ATOM     12  C   UNL     1      48.505   3.990  17.401  0.00  0.00    +0.000 C 
ATOM     13  C   UNL     1      47.045   4.450  17.360  0.00  0.00    +0.000 C 
ATOM     14  N   UNL     1      46.645   5.113  18.602  0.00  0.00    +0.000 NA
ATOM     15  C   UNL     1      47.506   6.262  18.885  0.00  0.00    +0.000 C 
ATOM     16  C   UNL     1      48.978   5.864  18.971  0.00  0.00    +0.000 C 
ATOM     17  H   UNL     1      46.712   4.445  19.372  0.00  0.00    +0.000 HD
ENDBRANCH   9  11
ENDBRANCH   1   4
BRANCH   1  18
ATOM     18  N   UNL     1      46.578   6.706  13.758  0.00  0.00    +0.000 N 
ATOM     19  H   UNL     1      46.386   6.473  14.725  0.00  0.00    +0.000 HD
BRANCH  18  23
ATOM     20  C   UNL     1      44.586   4.107  11.231  0.00  0.00    +0.000 A 
ATOM     21  C   UNL     1      44.482   5.484  11.193  0.00  0.00    +0.000 A 
ATOM     22  N   UNL     1      45.155   6.298  12.028  0.00  0.00    +0.000 NA
ATOM     23  C   UNL     1      45.980   5.736  12.950  0.00  0.00    +0.000 A 
ATOM     24  C   UNL     1      46.164   4.349  13.028  0.00  0.00    +0.000 A 
ATOM     25 CL   UNL     1      47.218   3.474  14.073  0.00  0.00    +0.000 Cl
ATOM     26  C   UNL     1      45.438   3.536  12.167  0.00  0.00    +0.000 A 
BRANCH  20  27
ATOM     27  C   UNL     1      43.820   3.227  10.328  0.00  0.00    +0.000 C 
BRANCH  27  29
ATOM     28  N   UNL     1      45.463   1.657   8.724  0.00  0.00    +0.000 NA
ATOM     29  C   UNL     1      44.718   2.369   9.452  0.00  0.00    +0.000 C 
ENDBRANCH  27  29
ENDBRANCH  20  27
ENDBRANCH  18  23
ENDBRANCH   1  18
TORSDOF 6
ENDMDL
MODEL 5
REMARK VINA RESULT:    -6.748      3.233      5.261
REMARK INTER + INTRA:          -9.610
REMARK INTER:                  -9.122
REMARK INTRA:                  -0.488
REMARK UNBOUND:                -0.496
REMARK  Name = 
REMARK  6 active torsions:
REMARK  status: ('A' for Active; 'I' for Inactive)
REMARK    1  A    between atoms: C_2  and  C_3
REMARK    2  A    between atoms: C_3  and  C_4
REMARK    3  A    between atoms: C_7  and  N_8
REMARK    4  A    between atoms: N_8  and  C_9
REMARK    5  A    between atoms: C_9  and  C_10
REMARK    6  A    between atoms: C_15  and  C_16
REMARK                            x       y       z     vdW  Elec       q    Type
REMARK                         _______ _______ _______ _____ _____    ______ ____
ROOT
ATOM      1  C   UNL     1      47.895   7.444  13.307  0.00  0.00    +0.000 C 
ATOM      2  C   UNL     1      47.903   8.625  12.345  0.00  0.00    +0.000 C 
ATOM      3  C   UNL     1      48.398   7.296  11.880  0.00  0.00    +0.000 C 
ENDROOT
BRANCH   1   4
ATOM      4  C   UNL     1      48.946   7.266  14.414  0.00  0.00    +0.000 A 
ATOM      5  C   UNL     1      50.182   7.938  14.348  0.00  0.00    +0.000 A 
ATOM      6  C   UNL     1      51.196   7.694  15.270  0.00  0.00    +0.000 A 
ATOM      7  C   UNL     1      50.997   6.763  16.283  0.00  0.00    +0.000 A 
ATOM      8  F   UNL     1      52.008   6.593  17.147  0.00  0.00    +0.000 F 
ATOM      9  C   UNL     1      49.804   6.042  16.399  0.00  0.00    +0.000 A 
ATOM     10  C   UNL     1      48.784   6.355  15.477  0.00  0.00    +0.000 A 
BRANCH   9  11
ATOM     11  C   UNL     1      49.511   4.988  17.461  0.00  0.00    +0.000 C 
ATOM     12  C   UNL     1      48.537   3.859  17.080  0.00  0.00    +0.000 C 
ATOM     13  C   UNL     1      47.077   4.318  17.099  0.00  0.00    +0.000 C 
ATOM     14  N   UNL     1      46.691   4.863  18.402  0.00  0.00    +0.000 NA
ATOM     15  C   UNL     1      47.555   5.985  18.777  0.00  0.00    +0.000 C 
ATOM     16  C   UNL     1      49.028   5.583  18.809  0.00  0.00    +0.000 C 
ATOM     17  H   UNL     1      46.769   4.129  19.106  0.00  0.00    +0.000 HD
ENDBRANCH   9  11
ENDBRANCH   1   4
BRANCH   1  18
ATOM     18  N   UNL     1      46.579   6.913  13.666  0.00  0.00    +0.000 N 
ATOM     19  H   UNL     1      46.388   6.678  14.633  0.00  0.00    +0.000 HD
BRANCH  18  23
ATOM     20  C   UNL     1      44.633   4.052  11.400  0.00  0.00    +0.000 A 
ATOM     21  C   UNL     1      45.517   3.782  12.426  0.00  0.00    +0.000 A 
ATOM     22  N   UNL     1      46.125   4.743  13.148  0.00  0.00    +0.000 NA
ATOM     23  C   UNL     1      45.850   6.041  12.854  0.00  0.00    +0.000 A 
ATOM     24  C   UNL     1      44.938   6.393  11.849  0.00  0.00    +0.000 A 
ATOM     25 CL   UNL     1      44.415   7.970  11.395  0.00  0.00    +0.000 Cl
ATOM     26  C   UNL     1      44.346   5.379  11.109  0.00  0.00    +0.000 A 
BRANCH  20  27
ATOM     27  C   UNL     1      43.998   2.988  10.599  0.00  0.00    +0.000 C 
BRANCH  27  29
ATOM     28  N   UNL     1      45.715   1.926   8.686  0.00  0.00    +0.000 NA
ATOM     29  C   UNL     1      44.936   2.408   9.553  0.00  0.00    +0.000 C 
ENDBRANCH  27  29
ENDBRANCH  20  27
ENDBRANCH  18  23
ENDBRANCH   1  18
TORSDOF 6
ENDMDL
MODEL 6
REMARK VINA RESULT:    -6.510      4.073      6.843
REMARK INTER + INTRA:          -9.288
REMARK INTER:                  -8.783
REMARK INTRA:                  -0.506
REMARK UNBOUND:                -0.496
REMARK  Name = 
REMARK  6 active torsions:
REMARK  status: ('A' for Active; 'I' for Inactive)
REMARK    1  A    between atoms: C_2  and  C_3
REMARK    2  A    between atoms: C_3  and  C_4
REMARK    3  A    between atoms: C_7  and  N_8
REMARK    4  A    between atoms: N_8  and  C_9
REMARK    5  A    between atoms: C_9  and  C_10
REMARK    6  A    between atoms: C_15  and  C_16
REMARK                            x       y       z     vdW  Elec       q    Type
REMARK                         _______ _______ _______ _____ _____    ______ ____
ROOT
ATOM      1  C   UNL     1      49.280   7.935  14.939  0.00  0.00    +0.000 C 
ATOM      2  C   UNL     1      48.313   8.987  15.468  0.00  0.00    +0.000 C 
ATOM      3  C   UNL     1      49.632   9.414  14.916  0.00  0.00    +0.000 C 
ENDROOT
BRANCH   1   4
ATOM      4  C   UNL     1      50.137   7.053  15.861  0.00  0.00    +0.000 A 
ATOM      5  C   UNL     1      51.543   7.091  15.790  0.00  0.00    +0.000 A 
ATOM      6  C   UNL     1      52.335   6.212  16.523  0.00  0.00    +0.000 A 
ATOM      7  C   UNL     1      51.735   5.266  17.347  0.00  0.00    +0.000 A 
ATOM      8  F   UNL     1      52.558   4.466  18.038  0.00  0.00    +0.000 F 
ATOM      9  C   UNL     1      50.345   5.156  17.452  0.00  0.00    +0.000 A 
ATOM     10  C   UNL     1      49.579   6.097  16.733  0.00  0.00    +0.000 A 
BRANCH   9  11
ATOM     11  C   UNL     1      49.604   4.136  18.310  0.00  0.00    +0.000 C 
ATOM     12  C   UNL     1      49.292   2.773  17.668  0.00  0.00    +0.000 C 
ATOM     13  C   UNL     1      48.113   2.843  16.694  0.00  0.00    +0.000 C 
ATOM     14  N   UNL     1      46.902   3.359  17.336  0.00  0.00    +0.000 NA
ATOM     15  C   UNL     1      47.137   4.686  17.909  0.00  0.00    +0.000 C 
ATOM     16  C   UNL     1      48.284   4.677  18.917  0.00  0.00    +0.000 C 
ATOM     17  H   UNL     1      46.621   2.717  18.079  0.00  0.00    +0.000 HD
ENDBRANCH   9  11
ENDBRANCH   1   4
BRANCH   1  18
ATOM     18  N   UNL     1      48.891   7.268  13.696  0.00  0.00    +0.000 N 
ATOM     19  H   UNL     1      49.189   7.660  12.811  0.00  0.00    +0.000 HD
BRANCH  18  23
ATOM     20  C   UNL     1      45.386   5.122  13.229  0.00  0.00    +0.000 A 
ATOM     21  C   UNL     1      46.537   4.639  13.820  0.00  0.00    +0.000 A 
ATOM     22  N   UNL     1      47.657   5.373  13.962  0.00  0.00    +0.000 NA
ATOM     23  C   UNL     1      47.652   6.652  13.505  0.00  0.00    +0.000 A 
ATOM     24  C   UNL     1      46.511   7.224  12.924  0.00  0.00    +0.000 A 
ATOM     25 CL   UNL     1      46.300   8.839  12.363  0.00  0.00    +0.000 Cl
ATOM     26  C   UNL     1      45.379   6.433  12.772  0.00  0.00    +0.000 A 
BRANCH  20  27
ATOM     27  C   UNL     1      44.176   4.296  13.054  0.00  0.00    +0.000 C 
BRANCH  27  29
ATOM     28  N   UNL     1      42.123   5.671  11.777  0.00  0.00    +0.000 NA
ATOM     29  C   UNL     1      43.054   5.048  12.357  0.00  0.00    +0.000 C 
ENDBRANCH  27  29
ENDBRANCH  20  27
ENDBRANCH  18  23
ENDBRANCH   1  18
TORSDOF 6
ENDMDL
MODEL 7
REMARK VINA RESULT:    -6.421      4.008      7.343
REMARK INTER + INTRA:          -9.168
REMARK INTER:                  -8.637
REMARK INTRA:                  -0.531
REMARK UNBOUND:                -0.496
REMARK  Name = 
REMARK  6 active torsions:
REMARK  status: ('A' for Active; 'I' for Inactive)
REMARK    1  A    between atoms: C_2  and  C_3
REMARK    2  A    between atoms: C_3  and  C_4
REMARK    3  A    between atoms: C_7  and  N_8
REMARK    4  A    between atoms: N_8  and  C_9
REMARK    5  A    between atoms: C_9  and  C_10
REMARK    6  A    between atoms: C_15  and  C_16
REMARK                            x       y       z     vdW  Elec       q    Type
REMARK                         _______ _______ _______ _____ _____    ______ ____
ROOT
ATOM      1  C   UNL     1      48.377   7.918  13.401  0.00  0.00    +0.000 C 
ATOM      2  C   UNL     1      49.613   7.253  12.810  0.00  0.00    +0.000 C 
ATOM      3  C   UNL     1      49.546   8.743  12.883  0.00  0.00    +0.000 C 
ENDROOT
BRANCH   1   4
ATOM      4  C   UNL     1      47.057   8.061  12.627  0.00  0.00    +0.000 A 
ATOM      5  C   UNL     1      46.423   9.313  12.510  0.00  0.00    +0.000 A 
ATOM      6  C   UNL     1      45.167   9.443  11.925  0.00  0.00    +0.000 A 
ATOM      7  C   UNL     1      44.510   8.316  11.444  0.00  0.00    +0.000 A 
ATOM      8  F   UNL     1      43.314   8.517  10.874  0.00  0.00    +0.000 F 
ATOM      9  C   UNL     1      45.069   7.037  11.544  0.00  0.00    +0.000 A 
ATOM     10  C   UNL     1      46.364   6.955  12.097  0.00  0.00    +0.000 A 
BRANCH   9  11
ATOM     11  C   UNL     1      44.410   5.748  11.065  0.00  0.00    +0.000 C 
ATOM     12  C   UNL     1      42.951   5.506  11.490  0.00  0.00    +0.000 C 
ATOM     13  C   UNL     1      42.835   5.051  12.947  0.00  0.00    +0.000 C 
ATOM     14  N   UNL     1      43.617   3.841  13.207  0.00  0.00    +0.000 NA
ATOM     15  C   UNL     1      45.028   4.046  12.875  0.00  0.00    +0.000 C 
ATOM     16  C   UNL     1      45.216   4.471  11.420  0.00  0.00    +0.000 C 
ATOM     17  H   UNL     1      43.246   3.077  12.639  0.00  0.00    +0.000 HD
ENDBRANCH   9  11
ENDBRANCH   1   4
BRANCH   1  18
ATOM     18  N   UNL     1      48.189   7.763  14.845  0.00  0.00    +0.000 N 
ATOM     19  H   UNL     1      48.440   8.528  15.461  0.00  0.00    +0.000 HD
BRANCH  18  23
ATOM     20  C   UNL     1      48.506   4.093  16.724  0.00  0.00    +0.000 A 
ATOM     21  C   UNL     1      47.578   4.406  15.751  0.00  0.00    +0.000 A 
ATOM     22  N   UNL     1      47.512   5.612  15.155  0.00  0.00    +0.000 NA
ATOM     23  C   UNL     1      48.407   6.565  15.528  0.00  0.00    +0.000 A 
ATOM     24  C   UNL     1      49.400   6.311  16.484  0.00  0.00    +0.000 A 
ATOM     25 CL   UNL     1      50.653   7.365  17.019  0.00  0.00    +0.000 Cl
ATOM     26  C   UNL     1      49.426   5.065  17.095  0.00  0.00    +0.000 A 
BRANCH  20  27
ATOM     27  C   UNL     1      48.547   2.776  17.389  0.00  0.00    +0.000 C 
BRANCH  27  29
ATOM     28  N   UNL     1      50.940   1.431  16.940  0.00  0.00    +0.000 NA
ATOM     29  C   UNL     1      49.855   2.041  17.144  0.00  0.00    +0.000 C 
ENDBRANCH  27  29
ENDBRANCH  20  27
ENDBRANCH  18  23
ENDBRANCH   1  18
TORSDOF 6
ENDMDL
MODEL 8
REMARK VINA RESULT:    -6.346      3.158      7.408
REMARK INTER + INTRA:          -9.068
REMARK INTER:                  -8.199
REMARK INTRA:                  -0.869
REMARK UNBOUND:                -0.496
REMARK  Name = 
REMARK  6 active torsions:
REMARK  status: ('A' for Active; 'I' for Inactive)
REMARK    1  A    between atoms: C_2  and  C_3
REMARK    2  A    between atoms: C_3  and  C_4
REMARK    3  A    between atoms: C_7  and  N_8
REMARK    4  A    between atoms: N_8  and  C_9
REMARK    5  A    between atoms: C_9  and  C_10
REMARK    6  A    between atoms: C_15  and  C_16
REMARK                            x       y       z     vdW  Elec       q    Type
REMARK                         _______ _______ _______ _____ _____    ______ ____
ROOT
ATOM      1  C   UNL     1      47.884   7.436  12.552  0.00  0.00    +0.000 C 
ATOM      2  C   UNL     1      49.398   7.337  12.693  0.00  0.00    +0.000 C 
ATOM      3  C   UNL     1      48.801   7.580  11.347  0.00  0.00    +0.000 C 
ENDROOT
BRANCH   1   4
ATOM      4  C   UNL     1      46.965   6.204  12.556  0.00  0.00    +0.000 A 
ATOM      5  C   UNL     1      47.021   5.267  13.606  0.00  0.00    +0.000 A 
ATOM      6  C   UNL     1      46.292   4.083  13.568  0.00  0.00    +0.000 A 
ATOM      7  C   UNL     1      45.487   3.804  12.469  0.00  0.00    +0.000 A 
ATOM      8  F   UNL     1      44.797   2.656  12.508  0.00  0.00    +0.000 F 
ATOM      9  C   UNL     1      45.397   4.677  11.380  0.00  0.00    +0.000 A 
ATOM     10  C   UNL     1      46.111   5.889  11.481  0.00  0.00    +0.000 A 
BRANCH   9  11
ATOM     11  C   UNL     1      44.559   4.441  10.128  0.00  0.00    +0.000 C 
ATOM     12  C   UNL     1      44.120   2.995   9.840  0.00  0.00    +0.000 C 
ATOM     13  C   UNL     1      45.257   2.143   9.268  0.00  0.00    +0.000 C 
ATOM     14  N   UNL     1      45.817   2.726   8.047  0.00  0.00    +0.000 NA
ATOM     15  C   UNL     1      46.306   4.084   8.291  0.00  0.00    +0.000 C 
ATOM     16  C   UNL     1      45.208   4.997   8.834  0.00  0.00    +0.000 C 
ATOM     17  H   UNL     1      45.092   2.753   7.329  0.00  0.00    +0.000 HD
ENDBRANCH   9  11
ENDBRANCH   1   4
BRANCH   1  18
ATOM     18  N   UNL     1      47.260   8.627  13.128  0.00  0.00    +0.000 N 
ATOM     19  H   UNL     1      46.866   8.577  14.061  0.00  0.00    +0.000 HD
BRANCH  18  23
ATOM     20  C   UNL     1      44.736  11.098  10.976  0.00  0.00    +0.000 A 
ATOM     21  C   UNL     1      44.330  10.010  11.723  0.00  0.00    +0.000 A 
ATOM     22  N   UNL     1      45.183   9.233  12.419  0.00  0.00    +0.000 NA
ATOM     23  C   UNL     1      46.506   9.540  12.387  0.00  0.00    +0.000 A 
ATOM     24  C   UNL     1      46.990  10.649  11.679  0.00  0.00    +0.000 A 
ATOM     25 CL   UNL     1      48.610  11.228  11.590  0.00  0.00    +0.000 Cl
ATOM     26  C   UNL     1      46.087  11.416  10.954  0.00  0.00    +0.000 A 
BRANCH  20  27
ATOM     27  C   UNL     1      43.793  11.922  10.196  0.00  0.00    +0.000 C 
BRANCH  27  29
ATOM     28  N   UNL     1      41.233  10.836  10.131  0.00  0.00    +0.000 NA
ATOM     29  C   UNL     1      42.394  11.328  10.160  0.00  0.00    +0.000 C 
ENDBRANCH  27  29
ENDBRANCH  20  27
ENDBRANCH  18  23
ENDBRANCH   1  18
TORSDOF 6
ENDMDL
MODEL 9
REMARK VINA RESULT:    -6.294      3.785      6.933
REMARK INTER + INTRA:          -8.998
REMARK INTER:                  -8.178
REMARK INTRA:                  -0.820
REMARK UNBOUND:                -0.496
REMARK  Name = 
REMARK  6 active torsions:
REMARK  status: ('A' for Active; 'I' for Inactive)
REMARK    1  A    between atoms: C_2  and  C_3
REMARK    2  A    between atoms: C_3  and  C_4
REMARK    3  A    between atoms: C_7  and  N_8
REMARK    4  A    between atoms: N_8  and  C_9
REMARK    5  A    between atoms: C_9  and  C_10
REMARK    6  A    between atoms: C_15  and  C_16
REMARK                            x       y       z     vdW  Elec       q    Type
REMARK                         _______ _______ _______ _____ _____    ______ ____
ROOT
ATOM      1  C   UNL     1      47.666   8.974  12.707  0.00  0.00    +0.000 C 
ATOM      2  C   UNL     1      49.062   9.572  12.833  0.00  0.00    +0.000 C 
ATOM      3  C   UNL     1      48.568   9.138  11.493  0.00  0.00    +0.000 C 
ENDROOT
BRANCH   1   4
ATOM      4  C   UNL     1      47.340   7.528  13.113  0.00  0.00    +0.000 A 
ATOM      5  C   UNL     1      47.984   6.926  14.212  0.00  0.00    +0.000 A 
ATOM      6  C   UNL     1      47.800   5.582  14.520  0.00  0.00    +0.000 A 
ATOM      7  C   UNL     1      46.964   4.802  13.729  0.00  0.00    +0.000 A 
ATOM      8  F   UNL     1      46.817   3.521  14.095  0.00  0.00    +0.000 F 
ATOM      9  C   UNL     1      46.307   5.325  12.610  0.00  0.00    +0.000 A 
ATOM     10  C   UNL     1      46.481   6.702  12.362  0.00  0.00    +0.000 A 
BRANCH   9  11
ATOM     11  C   UNL     1      45.394   4.538  11.676  0.00  0.00    +0.000 C 
ATOM     12  C   UNL     1      44.548   5.346  10.677  0.00  0.00    +0.000 C 
ATOM     13  C   UNL     1      43.337   6.008  11.339  0.00  0.00    +0.000 C 
ATOM     14  N   UNL     1      42.480   5.032  12.013  0.00  0.00    +0.000 NA
ATOM     15  C   UNL     1      43.231   4.281  13.021  0.00  0.00    +0.000 C 
ATOM     16  C   UNL     1      44.438   3.567  12.416  0.00  0.00    +0.000 C 
ATOM     17  H   UNL     1      42.106   4.383  11.319  0.00  0.00    +0.000 HD
ENDBRANCH   9  11
ENDBRANCH   1   4
BRANCH   1  18
ATOM     18  N   UNL     1      46.548   9.897  12.903  0.00  0.00    +0.000 N 
ATOM     19  H   UNL     1      46.010   9.846  13.760  0.00  0.00    +0.000 HD
BRANCH  18  23
ATOM     20  C   UNL     1      43.831  10.787   9.915  0.00  0.00    +0.000 A 
ATOM     21  C   UNL     1      43.704   9.749  10.817  0.00  0.00    +0.000 A 
ATOM     22  N   UNL     1      44.607   9.496  11.784  0.00  0.00    +0.000 NA
ATOM     23  C   UNL     1      45.694  10.307  11.877  0.00  0.00    +0.000 A 
ATOM     24  C   UNL     1      45.875  11.400  11.019  0.00  0.00    +0.000 A 
ATOM     25 CL   UNL     1      47.142  12.568  11.040  0.00  0.00    +0.000 Cl
ATOM     26  C   UNL     1      44.937  11.619  10.019  0.00  0.00    +0.000 A 
BRANCH  20  27
ATOM     27  C   UNL     1      42.847  11.032   8.843  0.00  0.00    +0.000 C 
BRANCH  27  29
ATOM     28  N   UNL     1      44.003  11.019   6.313  0.00  0.00    +0.000 NA
ATOM     29  C   UNL     1      43.478  11.025   7.461  0.00  0.00    +0.000 C 
ENDBRANCH  27  29
ENDBRANCH  20  27
ENDBRANCH  18  23
ENDBRANCH   1  18
TORSDOF 6
ENDMDL
