MODEL 1
REMARK VINA RESULT:    -8.034      0.000      0.000
REMARK INTER + INTRA:         -10.947
REMARK INTER:                 -10.382
REMARK INTRA:                  -0.565
REMARK UNBOUND:                -0.565
REMARK  Name = 
REMARK  6 active torsions:
REMARK  status: ('A' for Active; 'I' for Inactive)
REMARK    1  A    between atoms: C_1  and  C_2
REMARK    2  A    between atoms: C_2  and  N_3
REMARK    3  A    between atoms: C_2  and  C_16
REMARK    4  A    between atoms: C_4  and  C_6
REMARK    5  A    between atoms: C_19  and  C_20
REMARK    6  A    between atoms: C_20  and  N_21
REMARK                            x       y       z     vdW  Elec       q    Type
REMARK                         _______ _______ _______ _____ _____    ______ ____
ROOT
ATOM      1  C   UNL     1      45.725   8.538  12.916  0.00  0.00    +0.000 C 
ATOM      2  C   UNL     1      46.561   7.261  12.815  0.00  0.00    +0.000 C 
ENDROOT
BRANCH   2   3
ATOM      3  C   UNL     1      45.777   6.173  12.094  0.00  0.00    +0.000 A 
ATOM      4  C   UNL     1      46.104   4.839  12.389  0.00  0.00    +0.000 A 
ATOM      5  C   UNL     1      45.524   3.783  11.688  0.00  0.00    +0.000 A 
ATOM      6  C   UNL     1      44.579   4.025  10.685  0.00  0.00    +0.000 A 
ATOM      7  C   UNL     1      44.206   5.349  10.421  0.00  0.00    +0.000 A 
ATOM      8  C   UNL     1      44.812   6.412  11.104  0.00  0.00    +0.000 A 
BRANCH   6   9
ATOM      9  C   UNL     1      44.044   2.880   9.854  0.00  0.00    +0.000 C 
BRANCH   9  10
ATOM     10  N   UNL     1      44.752   2.653   8.574  0.00  0.00    +0.000 NA
ATOM     11  C   UNL     1      45.362   3.904   8.096  0.00  0.00    +0.000 C 
ATOM     12  C   UNL     1      46.308   3.714   6.909  0.00  0.00    +0.000 C 
ATOM     13  C   UNL     1      47.367   2.668   7.213  0.00  0.00    +0.000 C 
ATOM     14  C   UNL     1      46.683   1.362   7.586  0.00  0.00    +0.000 C 
ATOM     15  C   UNL     1      45.718   1.555   8.755  0.00  0.00    +0.000 C 
ENDBRANCH   9  10
ENDBRANCH   6   9
ENDBRANCH   2   3
BRANCH   2  16
ATOM     16  N   UNL     1      47.036   6.856  14.118  0.00  0.00    +0.000 N 
ATOM     17  C   UNL     1      48.355   6.580  14.364  0.00  0.00    +0.000 C 
ATOM     18  O   UNL     1      49.216   6.621  13.490  0.00  0.00    +0.000 OA
ATOM     19  H   UNL     1      46.352   6.716  14.848  0.00  0.00    +0.000 HD
BRANCH  17  20
ATOM     20  C   UNL     1      48.694   6.286  15.759  0.00  0.00    +0.000 A 
ATOM     21  C   UNL     1      49.452   7.189  16.491  0.00  0.00    +0.000 A 
ATOM     22  S   UNL     1      49.728   6.697  18.101  0.00  0.00    +0.000 S 
ATOM     23  C   UNL     1      48.881   5.241  17.857  0.00  0.00    +0.000 A 
ATOM     24  N   UNL     1      48.764   4.320  18.855  0.00  0.00    +0.000 NA
ATOM     25  C   UNL     1      48.121   3.254  18.525  0.00  0.00    +0.000 A 
ATOM     26  N   UNL     1      47.574   3.020  17.291  0.00  0.00    +0.000 N 
ATOM     27  C   UNL     1      47.620   3.940  16.274  0.00  0.00    +0.000 A 
ATOM     28  O   UNL     1      47.020   3.739  15.226  0.00  0.00    +0.000 OA
ATOM     29  C   UNL     1      48.368   5.145  16.577  0.00  0.00    +0.000 A 
ATOM     30  H   UNL     1      47.057   2.178  17.100  0.00  0.00    +0.000 HD
ENDBRANCH  17  20
ENDBRANCH   2  16
TORSDOF 5
ENDMDL
MODEL 2
REMARK VINA RESULT:    -7.806      1.721      2.449
REMARK INTER + INTRA:         -10.652
REMARK INTER:                 -10.097
REMARK INTRA:                  -0.555
REMARK UNBOUND:                -0.565
REMARK  Name = 
REMARK  6 active torsions:
REMARK  status: ('A' for Active; 'I' for Inactive)
REMARK    1  A    between atoms: C_1  and  C_2
REMARK    2  A    between atoms: C_2  and  N_3
REMARK    3  A    between atoms: C_2  and  C_16
REMARK    4  A    between atoms: C_4  and  C_6
REMARK    5  A    between atoms: C_19  and  C_20
REMARK    6  A    between atoms: C_20  and  N_21
REMARK                            x       y       z     vdW  Elec       q    Type
REMARK                         _______ _______ _______ _____ _____    ______ ____
ROOT
ATOM      1  C   UNL     1      48.988   8.166  13.302  0.00  0.00    +0.000 C 
ATOM      2  C   UNL     1      48.592   6.793  13.852  0.00  0.00    +0.000 C 
ENDROOT
BRANCH   2   3
ATOM      3  C   UNL     1      47.465   6.198  13.021  0.00  0.00    +0.000 A 
ATOM      4  C   UNL     1      47.079   6.893  11.863  0.00  0.00    +0.000 A 
ATOM      5  C   UNL     1      45.978   6.487  11.111  0.00  0.00    +0.000 A 
ATOM      6  C   UNL     1      45.240   5.358  11.478  0.00  0.00    +0.000 A 
ATOM      7  C   UNL     1      45.649   4.625  12.600  0.00  0.00    +0.000 A 
ATOM      8  C   UNL     1      46.737   5.050  13.373  0.00  0.00    +0.000 A 
BRANCH   6   9
ATOM      9  C   UNL     1      43.981   4.994  10.723  0.00  0.00    +0.000 C 
BRANCH   9  10
ATOM     10  N   UNL     1      44.183   4.084   9.573  0.00  0.00    +0.000 NA
ATOM     11  C   UNL     1      45.327   4.529   8.761  0.00  0.00    +0.000 C 
ATOM     12  C   UNL     1      45.754   3.522   7.693  0.00  0.00    +0.000 C 
ATOM     13  C   UNL     1      46.012   2.152   8.302  0.00  0.00    +0.000 C 
ATOM     14  C   UNL     1      44.759   1.688   9.027  0.00  0.00    +0.000 C 
ATOM     15  C   UNL     1      44.316   2.706  10.077  0.00  0.00    +0.000 C 
ENDBRANCH   9  10
ENDBRANCH   6   9
ENDBRANCH   2   3
BRANCH   2  16
ATOM     16  N   UNL     1      48.284   6.877  15.260  0.00  0.00    +0.000 N 
ATOM     17  C   UNL     1      49.196   6.556  16.231  0.00  0.00    +0.000 C 
ATOM     18  O   UNL     1      50.322   6.143  15.972  0.00  0.00    +0.000 OA
ATOM     19  H   UNL     1      47.340   7.121  15.524  0.00  0.00    +0.000 HD
BRANCH  17  20
ATOM     20  C   UNL     1      48.766   6.794  17.611  0.00  0.00    +0.000 A 
ATOM     21  C   UNL     1      48.396   8.071  18.010  0.00  0.00    +0.000 A 
ATOM     22  S   UNL     1      47.901   8.157  19.640  0.00  0.00    +0.000 S 
ATOM     23  C   UNL     1      48.207   6.499  19.876  0.00  0.00    +0.000 A 
ATOM     24  N   UNL     1      48.017   5.916  21.093  0.00  0.00    +0.000 NA
ATOM     25  C   UNL     1      48.312   4.663  21.136  0.00  0.00    +0.000 A 
ATOM     26  N   UNL     1      48.775   3.931  20.075  0.00  0.00    +0.000 N 
ATOM     27  C   UNL     1      48.931   4.463  18.819  0.00  0.00    +0.000 A 
ATOM     28  O   UNL     1      49.237   3.748  17.875  0.00  0.00    +0.000 OA
ATOM     29  C   UNL     1      48.650   5.883  18.722  0.00  0.00    +0.000 A 
ATOM     30  H   UNL     1      48.964   2.947  20.162  0.00  0.00    +0.000 HD
ENDBRANCH  17  20
ENDBRANCH   2  16
TORSDOF 5
ENDMDL
MODEL 3
REMARK VINA RESULT:    -7.636      2.448      3.406
REMARK INTER + INTRA:         -10.434
REMARK INTER:                  -9.631
REMARK INTRA:                  -0.802
REMARK UNBOUND:                -0.565
REMARK  Name = 
REMARK  6 active torsions:
REMARK  status: ('A' for Active; 'I' for Inactive)
REMARK    1  A    between atoms: C_1  and  C_2
REMARK    2  A    between atoms: C_2  and  N_3
REMARK    3  A    between atoms: C_2  and  C_16
REMARK    4  A    between atoms: C_4  and  C_6
REMARK    5  A    between atoms: C_19  and  C_20
REMARK    6  A    between atoms: C_20  and  N_21
REMARK                            x       y       z     vdW  Elec       q    Type
REMARK                         _______ _______ _______ _____ _____    ______ ____
ROOT
ATOM      1  C   UNL     1      48.915   8.006  13.542  0.00  0.00    +0.000 C 
ATOM      2  C   UNL     1      48.480   6.633  14.057  0.00  0.00    +0.000 C 
ENDROOT
BRANCH   2   3
ATOM      3  C   UNL     1      47.381   6.062  13.173  0.00  0.00    +0.000 A 
ATOM      4  C   UNL     1      47.002   6.812  12.048  0.00  0.00    +0.000 A 
ATOM      5  C   UNL     1      45.924   6.427  11.253  0.00  0.00    +0.000 A 
ATOM      6  C   UNL     1      45.204   5.264  11.543  0.00  0.00    +0.000 A 
ATOM      7  C   UNL     1      45.607   4.479  12.631  0.00  0.00    +0.000 A 
ATOM      8  C   UNL     1      46.671   4.882  13.447  0.00  0.00    +0.000 A 
BRANCH   6   9
ATOM      9  C   UNL     1      43.967   4.918  10.744  0.00  0.00    +0.000 C 
BRANCH   9  10
ATOM     10  N   UNL     1      44.208   4.066   9.557  0.00  0.00    +0.000 NA
ATOM     11  C   UNL     1      45.391   4.537   8.820  0.00  0.00    +0.000 C 
ATOM     12  C   UNL     1      45.852   3.581   7.719  0.00  0.00    +0.000 C 
ATOM     13  C   UNL     1      46.066   2.178   8.265  0.00  0.00    +0.000 C 
ATOM     14  C   UNL     1      44.777   1.694   8.910  0.00  0.00    +0.000 C 
ATOM     15  C   UNL     1      44.301   2.663   9.992  0.00  0.00    +0.000 C 
ENDBRANCH   9  10
ENDBRANCH   6   9
ENDBRANCH   2   3
BRANCH   2  16
ATOM     16  N   UNL     1      48.114   6.703  15.453  0.00  0.00    +0.000 N 
ATOM     17  C   UNL     1      48.968   6.322  16.454  0.00  0.00    +0.000 C 
ATOM     18  O   UNL     1      50.084   5.863  16.236  0.00  0.00    +0.000 OA
ATOM     19  H   UNL     1      47.171   6.985  15.681  0.00  0.00    +0.000 HD
BRANCH  17  20
ATOM     20  C   UNL     1      48.488   6.553  17.820  0.00  0.00    +0.000 A 
ATOM     21  C   UNL     1      48.382   5.489  18.704  0.00  0.00    +0.000 A 
ATOM     22  S   UNL     1      47.833   5.945  20.254  0.00  0.00    +0.000 S 
ATOM     23  C   UNL     1      47.677   7.572  19.778  0.00  0.00    +0.000 A 
ATOM     24  N   UNL     1      47.211   8.516  20.643  0.00  0.00    +0.000 NA
ATOM     25  C   UNL     1      47.120   9.700  20.144  0.00  0.00    +0.000 A 
ATOM     26  N   UNL     1      47.457  10.035  18.859  0.00  0.00    +0.000 N 
ATOM     27  C   UNL     1      47.981   9.130  17.970  0.00  0.00    +0.000 A 
ATOM     28  O   UNL     1      48.375   9.496  16.871  0.00  0.00    +0.000 OA
ATOM     29  C   UNL     1      48.068   7.771  18.467  0.00  0.00    +0.000 A 
ATOM     30  H   UNL     1      47.390  10.985  18.533  0.00  0.00    +0.000 HD
ENDBRANCH  17  20
ENDBRANCH   2  16
TORSDOF 5
ENDMDL
MODEL 4
REMARK VINA RESULT:    -7.483      3.810      9.380
REMARK INTER + INTRA:         -10.235
REMARK INTER:                  -9.146
REMARK INTRA:                  -1.089
REMARK UNBOUND:                -0.565
REMARK  Name = 
REMARK  6 active torsions:
REMARK  status: ('A' for Active; 'I' for Inactive)
REMARK    1  A    between atoms: C_1  and  C_2
REMARK    2  A    between atoms: C_2  and  N_3
REMARK    3  A    between atoms: C_2  and  C_16
REMARK    4  A    between atoms: C_4  and  C_6
REMARK    5  A    between atoms: C_19  and  C_20
REMARK    6  A    between atoms: C_20  and  N_21
REMARK                            x       y       z     vdW  Elec       q    Type
REMARK                         _______ _______ _______ _____ _____    ______ ____
ROOT
ATOM      1  C   UNL     1      47.712   3.178  16.787  0.00  0.00    +0.000 C 
ATOM      2  C   UNL     1      48.031   4.565  16.224  0.00  0.00    +0.000 C 
ENDROOT
BRANCH   2   3
ATOM      3  C   UNL     1      48.169   5.574  17.355  0.00  0.00    +0.000 A 
ATOM      4  C   UNL     1      47.346   5.400  18.481  0.00  0.00    +0.000 A 
ATOM      5  C   UNL     1      47.319   6.342  19.507  0.00  0.00    +0.000 A 
ATOM      6  C   UNL     1      48.132   7.479  19.454  0.00  0.00    +0.000 A 
ATOM      7  C   UNL     1      48.996   7.635  18.363  0.00  0.00    +0.000 A 
ATOM      8  C   UNL     1      49.002   6.703  17.317  0.00  0.00    +0.000 A 
BRANCH   6   9
ATOM      9  C   UNL     1      48.009   8.550  20.515  0.00  0.00    +0.000 C 
BRANCH   9  10
ATOM     10  N   UNL     1      46.912   9.521  20.298  0.00  0.00    +0.000 NA
ATOM     11  C   UNL     1      46.263   9.854  21.576  0.00  0.00    +0.000 C 
ATOM     12  C   UNL     1      45.280  11.023  21.481  0.00  0.00    +0.000 C 
ATOM     13  C   UNL     1      45.940  12.246  20.864  0.00  0.00    +0.000 C 
ATOM     14  C   UNL     1      46.489  11.877  19.495  0.00  0.00    +0.000 C 
ATOM     15  C   UNL     1      47.451  10.692  19.584  0.00  0.00    +0.000 C 
ENDBRANCH   9  10
ENDBRANCH   6   9
ENDBRANCH   2   3
BRANCH   2  16
ATOM     16  N   UNL     1      47.057   4.949  15.229  0.00  0.00    +0.000 N 
ATOM     17  C   UNL     1      47.397   5.651  14.103  0.00  0.00    +0.000 C 
ATOM     18  O   UNL     1      48.542   6.031  13.879  0.00  0.00    +0.000 OA
ATOM     19  H   UNL     1      46.085   4.742  15.414  0.00  0.00    +0.000 HD
BRANCH  17  20
ATOM     20  C   UNL     1      46.315   5.872  13.141  0.00  0.00    +0.000 A 
ATOM     21  C   UNL     1      45.983   7.164  12.759  0.00  0.00    +0.000 A 
ATOM     22  S   UNL     1      44.719   7.231  11.615  0.00  0.00    +0.000 S 
ATOM     23  C   UNL     1      44.546   5.538  11.627  0.00  0.00    +0.000 A 
ATOM     24  N   UNL     1      43.593   4.923  10.872  0.00  0.00    +0.000 NA
ATOM     25  C   UNL     1      43.556   3.641  10.998  0.00  0.00    +0.000 A 
ATOM     26  N   UNL     1      44.388   2.911  11.803  0.00  0.00    +0.000 N 
ATOM     27  C   UNL     1      45.397   3.481  12.539  0.00  0.00    +0.000 A 
ATOM     28  O   UNL     1      46.190   2.780  13.155  0.00  0.00    +0.000 OA
ATOM     29  C   UNL     1      45.459   4.928  12.467  0.00  0.00    +0.000 A 
ATOM     30  H   UNL     1      44.331   1.906  11.840  0.00  0.00    +0.000 HD
ENDBRANCH  17  20
ENDBRANCH   2  16
TORSDOF 5
ENDMDL
MODEL 5
REMARK VINA RESULT:    -7.168      2.762      3.795
REMARK INTER + INTRA:          -9.829
REMARK INTER:                  -9.103
REMARK INTRA:                  -0.726
REMARK UNBOUND:                -0.565
REMARK  Name = 
REMARK  6 active torsions:
REMARK  status: ('A' for Active; 'I' for Inactive)
REMARK    1  A    between atoms: C_1  and  C_2
REMARK    2  A    between atoms: C_2  and  N_3
REMARK    3  A    between atoms: C_2  and  C_16
REMARK    4  A    between atoms: C_4  and  C_6
REMARK    5  A    between atoms: C_19  and  C_20
REMARK    6  A    between atoms: C_20  and  N_21
REMARK                            x       y       z     vdW  Elec       q    Type
REMARK                         _______ _______ _______ _____ _____    ______ ____
ROOT
ATOM      1  C   UNL     1      47.042   4.717  14.848  0.00  0.00    +0.000 C 
ATOM      2  C   UNL     1      46.833   5.804  13.791  0.00  0.00    +0.000 C 
ENDROOT
BRANCH   2   3
ATOM      3  C   UNL     1      46.234   5.202  12.528  0.00  0.00    +0.000 A 
ATOM      4  C   UNL     1      46.291   5.974  11.356  0.00  0.00    +0.000 A 
ATOM      5  C   UNL     1      45.662   5.555  10.185  0.00  0.00    +0.000 A 
ATOM      6  C   UNL     1      44.975   4.337  10.140  0.00  0.00    +0.000 A 
ATOM      7  C   UNL     1      44.959   3.534  11.288  0.00  0.00    +0.000 A 
ATOM      8  C   UNL     1      45.565   3.969  12.473  0.00  0.00    +0.000 A 
BRANCH   6   9
ATOM      9  C   UNL     1      44.200   3.948   8.901  0.00  0.00    +0.000 C 
BRANCH   9  10
ATOM     10  N   UNL     1      44.924   3.058   7.965  0.00  0.00    +0.000 NA
ATOM     11  C   UNL     1      45.955   3.812   7.235  0.00  0.00    +0.000 C 
ATOM     12  C   UNL     1      46.905   2.929   6.424  0.00  0.00    +0.000 C 
ATOM     13  C   UNL     1      47.527   1.848   7.293  0.00  0.00    +0.000 C 
ATOM     14  C   UNL     1      46.420   1.024   7.929  0.00  0.00    +0.000 C 
ATOM     15  C   UNL     1      45.454   1.908   8.719  0.00  0.00    +0.000 C 
ENDBRANCH   9  10
ENDBRANCH   6   9
ENDBRANCH   2   3
BRANCH   2  16
ATOM     16  N   UNL     1      48.058   6.531  13.555  0.00  0.00    +0.000 N 
ATOM     17  C   UNL     1      48.156   7.884  13.744  0.00  0.00    +0.000 C 
ATOM     18  O   UNL     1      47.204   8.576  14.090  0.00  0.00    +0.000 OA
ATOM     19  H   UNL     1      48.845   6.021  13.178  0.00  0.00    +0.000 HD
BRANCH  17  20
ATOM     20  C   UNL     1      49.493   8.456  13.563  0.00  0.00    +0.000 A 
ATOM     21  C   UNL     1      49.695   9.461  12.628  0.00  0.00    +0.000 A 
ATOM     22  S   UNL     1      51.304  10.024  12.572  0.00  0.00    +0.000 S 
ATOM     23  C   UNL     1      51.791   8.912  13.765  0.00  0.00    +0.000 A 
ATOM     24  N   UNL     1      53.090   8.841  14.171  0.00  0.00    +0.000 NA
ATOM     25  C   UNL     1      53.323   7.938  15.060  0.00  0.00    +0.000 A 
ATOM     26  N   UNL     1      52.378   7.099  15.589  0.00  0.00    +0.000 N 
ATOM     27  C   UNL     1      51.050   7.170  15.250  0.00  0.00    +0.000 A 
ATOM     28  O   UNL     1      50.222   6.480  15.830  0.00  0.00    +0.000 OA
ATOM     29  C   UNL     1      50.737   8.144  14.222  0.00  0.00    +0.000 A 
ATOM     30  H   UNL     1      52.615   6.430  16.303  0.00  0.00    +0.000 HD
ENDBRANCH  17  20
ENDBRANCH   2  16
TORSDOF 5
ENDMDL
MODEL 6
REMARK VINA RESULT:    -7.075      3.047      8.575
REMARK INTER + INTRA:          -9.709
REMARK INTER:                  -8.692
REMARK INTRA:                  -1.017
REMARK UNBOUND:                -0.565
REMARK  Name = 
REMARK  6 active torsions:
REMARK  status: ('A' for Active; 'I' for Inactive)
REMARK    1  A    between atoms: C_1  and  C_2
REMARK    2  A    between atoms: C_2  and  N_3
REMARK    3  A    between atoms: C_2  and  C_16
REMARK    4  A    between atoms: C_4  and  C_6
REMARK    5  A    between atoms: C_19  and  C_20
REMARK    6  A    between atoms: C_20  and  N_21
REMARK                            x       y       z     vdW  Elec       q    Type
REMARK                         _______ _______ _______ _____ _____    ______ ____
ROOT
ATOM      1  C   UNL     1      49.576   8.078  11.672  0.00  0.00    +0.000 C 
ATOM      2  C   UNL     1      48.470   7.629  12.629  0.00  0.00    +0.000 C 
ENDROOT
BRANCH   2   3
ATOM      3  C   UNL     1      49.066   7.212  13.966  0.00  0.00    +0.000 A 
ATOM      4  C   UNL     1      48.284   6.391  14.794  0.00  0.00    +0.000 A 
ATOM      5  C   UNL     1      48.698   6.062  16.083  0.00  0.00    +0.000 A 
ATOM      6  C   UNL     1      49.922   6.524  16.579  0.00  0.00    +0.000 A 
ATOM      7  C   UNL     1      50.735   7.298  15.742  0.00  0.00    +0.000 A 
ATOM      8  C   UNL     1      50.304   7.654  14.458  0.00  0.00    +0.000 A 
BRANCH   6   9
ATOM      9  C   UNL     1      50.308   6.257  18.017  0.00  0.00    +0.000 C 
BRANCH   9  10
ATOM     10  N   UNL     1      49.176   5.941  18.919  0.00  0.00    +0.000 NA
ATOM     11  C   UNL     1      49.556   4.878  19.864  0.00  0.00    +0.000 C 
ATOM     12  C   UNL     1      48.535   4.654  20.980  0.00  0.00    +0.000 C 
ATOM     13  C   UNL     1      48.224   5.952  21.709  0.00  0.00    +0.000 C 
ATOM     14  C   UNL     1      47.723   6.977  20.705  0.00  0.00    +0.000 C 
ATOM     15  C   UNL     1      48.731   7.183  19.573  0.00  0.00    +0.000 C 
ENDBRANCH   9  10
ENDBRANCH   6   9
ENDBRANCH   2   3
BRANCH   2  16
ATOM     16  N   UNL     1      47.653   6.604  12.022  0.00  0.00    +0.000 N 
ATOM     17  C   UNL     1      46.363   6.835  11.623  0.00  0.00    +0.000 C 
ATOM     18  O   UNL     1      45.802   7.914  11.785  0.00  0.00    +0.000 OA
ATOM     19  H   UNL     1      48.038   5.672  11.952  0.00  0.00    +0.000 HD
BRANCH  17  20
ATOM     20  C   UNL     1      45.704   5.726  10.928  0.00  0.00    +0.000 A 
ATOM     21  C   UNL     1      45.827   5.601   9.552  0.00  0.00    +0.000 A 
ATOM     22  S   UNL     1      45.017   4.240   8.918  0.00  0.00    +0.000 S 
ATOM     23  C   UNL     1      44.439   3.800  10.457  0.00  0.00    +0.000 A 
ATOM     24  N   UNL     1      43.633   2.714  10.621  0.00  0.00    +0.000 NA
ATOM     25  C   UNL     1      43.248   2.512  11.834  0.00  0.00    +0.000 A 
ATOM     26  N   UNL     1      43.598   3.291  12.905  0.00  0.00    +0.000 N 
ATOM     27  C   UNL     1      44.450   4.362  12.796  0.00  0.00    +0.000 A 
ATOM     28  O   UNL     1      44.827   4.960  13.795  0.00  0.00    +0.000 OA
ATOM     29  C   UNL     1      44.883   4.659  11.444  0.00  0.00    +0.000 A 
ATOM     30  H   UNL     1      43.288   3.068  13.836  0.00  0.00    +0.000 HD
ENDBRANCH  17  20
ENDBRANCH   2  16
TORSDOF 5
ENDMDL
MODEL 7
REMARK VINA RESULT:    -7.055      2.907      8.808
REMARK INTER + INTRA:          -9.683
REMARK INTER:                  -8.775
REMARK INTRA:                  -0.908
REMARK UNBOUND:                -0.565
REMARK  Name = 
REMARK  6 active torsions:
REMARK  status: ('A' for Active; 'I' for Inactive)
REMARK    1  A    between atoms: C_1  and  C_2
REMARK    2  A    between atoms: C_2  and  N_3
REMARK    3  A    between atoms: C_2  and  C_16
REMARK    4  A    between atoms: C_4  and  C_6
REMARK    5  A    between atoms: C_19  and  C_20
REMARK    6  A    between atoms: C_20  and  N_21
REMARK                            x       y       z     vdW  Elec       q    Type
REMARK                         _______ _______ _______ _____ _____    ______ ____
ROOT
ATOM      1  C   UNL     1      48.806   7.678  11.517  0.00  0.00    +0.000 C 
ATOM      2  C   UNL     1      47.628   7.638  12.493  0.00  0.00    +0.000 C 
ENDROOT
BRANCH   2   3
ATOM      3  C   UNL     1      48.123   7.805  13.923  0.00  0.00    +0.000 A 
ATOM      4  C   UNL     1      48.467   6.640  14.627  0.00  0.00    +0.000 A 
ATOM      5  C   UNL     1      48.812   6.688  15.976  0.00  0.00    +0.000 A 
ATOM      6  C   UNL     1      48.848   7.907  16.661  0.00  0.00    +0.000 A 
ATOM      7  C   UNL     1      48.559   9.081  15.955  0.00  0.00    +0.000 A 
ATOM      8  C   UNL     1      48.183   9.030  14.606  0.00  0.00    +0.000 A 
BRANCH   6   9
ATOM      9  C   UNL     1      49.110   7.934  18.151  0.00  0.00    +0.000 C 
BRANCH   9  10
ATOM     10  N   UNL     1      48.661   6.729  18.886  0.00  0.00    +0.000 NA
ATOM     11  C   UNL     1      49.814   6.022  19.465  0.00  0.00    +0.000 C 
ATOM     12  C   UNL     1      49.428   4.905  20.435  0.00  0.00    +0.000 C 
ATOM     13  C   UNL     1      48.496   5.418  21.521  0.00  0.00    +0.000 C 
ATOM     14  C   UNL     1      47.266   6.031  20.871  0.00  0.00    +0.000 C 
ATOM     15  C   UNL     1      47.652   7.131  19.881  0.00  0.00    +0.000 C 
ENDBRANCH   9  10
ENDBRANCH   6   9
ENDBRANCH   2   3
BRANCH   2  16
ATOM     16  N   UNL     1      46.840   6.444  12.295  0.00  0.00    +0.000 N 
ATOM     17  C   UNL     1      45.573   6.481  11.777  0.00  0.00    +0.000 C 
ATOM     18  O   UNL     1      45.007   7.528  11.478  0.00  0.00    +0.000 OA
ATOM     19  H   UNL     1      47.224   5.566  12.613  0.00  0.00    +0.000 HD
BRANCH  17  20
ATOM     20  C   UNL     1      44.945   5.178  11.539  0.00  0.00    +0.000 A 
ATOM     21  C   UNL     1      44.212   4.569  12.548  0.00  0.00    +0.000 A 
ATOM     22  S   UNL     1      43.534   3.073  12.088  0.00  0.00    +0.000 S 
ATOM     23  C   UNL     1      44.237   3.170  10.540  0.00  0.00    +0.000 A 
ATOM     24  N   UNL     1      44.074   2.169   9.630  0.00  0.00    +0.000 NA
ATOM     25  C   UNL     1      44.681   2.361   8.511  0.00  0.00    +0.000 A 
ATOM     26  N   UNL     1      45.434   3.464   8.208  0.00  0.00    +0.000 N 
ATOM     27  C   UNL     1      45.582   4.521   9.072  0.00  0.00    +0.000 A 
ATOM     28  O   UNL     1      46.167   5.536   8.719  0.00  0.00    +0.000 OA
ATOM     29  C   UNL     1      44.951   4.340  10.366  0.00  0.00    +0.000 A 
ATOM     30  H   UNL     1      45.863   3.572   7.305  0.00  0.00    +0.000 HD
ENDBRANCH  17  20
ENDBRANCH   2  16
TORSDOF 5
ENDMDL
MODEL 8
REMARK VINA RESULT:    -7.040      2.808      4.469
REMARK INTER + INTRA:          -9.664
REMARK INTER:                  -8.896
REMARK INTRA:                  -0.768
REMARK UNBOUND:                -0.565
REMARK  Name = 
REMARK  6 active torsions:
REMARK  status: ('A' for Active; 'I' for Inactive)
REMARK    1  A    between atoms: C_1  and  C_2
REMARK    2  A    between atoms: C_2  and  N_3
REMARK    3  A    between atoms: C_2  and  C_16
REMARK    4  A    between atoms: C_4  and  C_6
REMARK    5  A    between atoms: C_19  and  C_20
REMARK    6  A    between atoms: C_20  and  N_21
REMARK                            x       y       z     vdW  Elec       q    Type
REMARK                         _______ _______ _______ _____ _____    ______ ____
ROOT
ATOM      1  C   UNL     1      47.351   4.599  15.233  0.00  0.00    +0.000 C 
ATOM      2  C   UNL     1      47.177   5.712  14.197  0.00  0.00    +0.000 C 
ENDROOT
BRANCH   2   3
ATOM      3  C   UNL     1      46.456   5.179  12.967  0.00  0.00    +0.000 A 
ATOM      4  C   UNL     1      46.396   6.016  11.841  0.00  0.00    +0.000 A 
ATOM      5  C   UNL     1      45.654   5.660  10.716  0.00  0.00    +0.000 A 
ATOM      6  C   UNL     1      44.966   4.443  10.671  0.00  0.00    +0.000 A 
ATOM      7  C   UNL     1      45.065   3.576  11.767  0.00  0.00    +0.000 A 
ATOM      8  C   UNL     1      45.786   3.947  12.909  0.00  0.00    +0.000 A 
BRANCH   6   9
ATOM      9  C   UNL     1      44.072   4.120   9.494  0.00  0.00    +0.000 C 
BRANCH   9  10
ATOM     10  N   UNL     1      44.707   3.306   8.432  0.00  0.00    +0.000 NA
ATOM     11  C   UNL     1      45.743   4.088   7.739  0.00  0.00    +0.000 C 
ATOM     12  C   UNL     1      46.609   3.257   6.790  0.00  0.00    +0.000 C 
ATOM     13  C   UNL     1      47.211   2.057   7.504  0.00  0.00    +0.000 C 
ATOM     14  C   UNL     1      46.090   1.221   8.100  0.00  0.00    +0.000 C 
ATOM     15  C   UNL     1      45.207   2.056   9.028  0.00  0.00    +0.000 C 
ENDBRANCH   9  10
ENDBRANCH   6   9
ENDBRANCH   2   3
BRANCH   2  16
ATOM     16  N   UNL     1      48.447   6.331  13.894  0.00  0.00    +0.000 N 
ATOM     17  C   UNL     1      48.973   7.336  14.661  0.00  0.00    +0.000 C 
ATOM     18  O   UNL     1      48.389   7.805  15.633  0.00  0.00    +0.000 OA
ATOM     19  H   UNL     1      48.922   6.046  13.050  0.00  0.00    +0.000 HD
BRANCH  17  20
ATOM     20  C   UNL     1      50.316   7.786  14.285  0.00  0.00    +0.000 A 
ATOM     21  C   UNL     1      51.371   7.629  15.171  0.00  0.00    +0.000 A 
ATOM     22  S   UNL     1      52.863   8.185  14.558  0.00  0.00    +0.000 S 
ATOM     23  C   UNL     1      52.137   8.693  13.105  0.00  0.00    +0.000 A 
ATOM     24  N   UNL     1      52.868   9.301  12.128  0.00  0.00    +0.000 NA
ATOM     25  C   UNL     1      52.187   9.657  11.095  0.00  0.00    +0.000 A 
ATOM     26  N   UNL     1      50.841   9.458  10.938  0.00  0.00    +0.000 N 
ATOM     27  C   UNL     1      50.075   8.804  11.870  0.00  0.00    +0.000 A 
ATOM     28  O   UNL     1      48.901   8.546  11.640  0.00  0.00    +0.000 OA
ATOM     29  C   UNL     1      50.783   8.415  13.075  0.00  0.00    +0.000 A 
ATOM     30  H   UNL     1      50.367   9.734  10.094  0.00  0.00    +0.000 HD
ENDBRANCH  17  20
ENDBRANCH   2  16
TORSDOF 5
ENDMDL
MODEL 9
REMARK VINA RESULT:    -6.974      2.644      4.637
REMARK INTER + INTRA:          -9.577
REMARK INTER:                 -10.128
REMARK INTRA:                   0.550
REMARK UNBOUND:                -0.565
REMARK  Name = 
REMARK  6 active torsions:
REMARK  status: ('A' for Active; 'I' for Inactive)
REMARK    1  A    between atoms: C_1  and  C_2
REMARK    2  A    between atoms: C_2  and  N_3
REMARK    3  A    between atoms: C_2  and  C_16
REMARK    4  A    between atoms: C_4  and  C_6
REMARK    5  A    between atoms: C_19  and  C_20
REMARK    6  A    between atoms: C_20  and  N_21
REMARK                            x       y       z     vdW  Elec       q    Type
REMARK                         _______ _______ _______ _____ _____    ______ ____
ROOT
ATOM      1  C   UNL     1      46.967   4.374  14.411  0.00  0.00    +0.000 C 
ATOM      2  C   UNL     1      46.085   5.381  13.670  0.00  0.00    +0.000 C 
ENDROOT
BRANCH   2   3
ATOM      3  C   UNL     1      45.727   4.853  12.288  0.00  0.00    +0.000 A 
ATOM      4  C   UNL     1      45.924   5.715  11.197  0.00  0.00    +0.000 A 
ATOM      5  C   UNL     1      45.512   5.360   9.914  0.00  0.00    +0.000 A 
ATOM      6  C   UNL     1      44.910   4.121   9.675  0.00  0.00    +0.000 A 
ATOM      7  C   UNL     1      44.758   3.231  10.747  0.00  0.00    +0.000 A 
ATOM      8  C   UNL     1      45.145   3.600  12.041  0.00  0.00    +0.000 A 
BRANCH   6   9
ATOM      9  C   UNL     1      44.362   3.794   8.303  0.00  0.00    +0.000 C 
BRANCH   9  10
ATOM     10  N   UNL     1      45.192   2.862   7.505  0.00  0.00    +0.000 NA
ATOM     11  C   UNL     1      46.262   3.596   6.811  0.00  0.00    +0.000 C 
ATOM     12  C   UNL     1      47.305   2.688   6.156  0.00  0.00    +0.000 C 
ATOM     13  C   UNL     1      47.877   1.697   7.157  0.00  0.00    +0.000 C 
ATOM     14  C   UNL     1      46.741   0.885   7.756  0.00  0.00    +0.000 C 
ATOM     15  C   UNL     1      45.684   1.791   8.388  0.00  0.00    +0.000 C 
ENDBRANCH   9  10
ENDBRANCH   6   9
ENDBRANCH   2   3
BRANCH   2  16
ATOM     16  N   UNL     1      46.708   6.684  13.642  0.00  0.00    +0.000 N 
ATOM     17  C   UNL     1      48.011   6.864  13.259  0.00  0.00    +0.000 C 
ATOM     18  O   UNL     1      48.747   5.933  12.948  0.00  0.00    +0.000 OA
ATOM     19  H   UNL     1      46.173   7.472  13.979  0.00  0.00    +0.000 HD
BRANCH  17  20
ATOM     20  C   UNL     1      48.464   8.256  13.182  0.00  0.00    +0.000 A 
ATOM     21  C   UNL     1      49.756   8.585  13.567  0.00  0.00    +0.000 A 
ATOM     22  S   UNL     1      50.117  10.242  13.388  0.00  0.00    +0.000 S 
ATOM     23  C   UNL     1      48.544  10.580  12.833  0.00  0.00    +0.000 A 
ATOM     24  N   UNL     1      48.166  11.852  12.522  0.00  0.00    +0.000 NA
ATOM     25  C   UNL     1      46.941  11.967  12.140  0.00  0.00    +0.000 A 
ATOM     26  N   UNL     1      46.055  10.929  12.032  0.00  0.00    +0.000 N 
ATOM     27  C   UNL     1      46.406   9.625  12.282  0.00  0.00    +0.000 A 
ATOM     28  O   UNL     1      45.616   8.716  12.063  0.00  0.00    +0.000 OA
ATOM     29  C   UNL     1      47.764   9.442  12.755  0.00  0.00    +0.000 A 
ATOM     30  H   UNL     1      45.116  11.076  11.701  0.00  0.00    +0.000 HD
ENDBRANCH  17  20
ENDBRANCH   2  16
TORSDOF 5
ENDMDL
