MODEL 1
REMARK VINA RESULT:    -8.187      0.000      0.000
REMARK INTER + INTRA:         -12.651
REMARK INTER:                 -11.538
REMARK INTRA:                  -1.114
REMARK UNBOUND:                -1.114
REMARK  Name = 
REMARK  8 active torsions:
REMARK  status: ('A' for Active; 'I' for Inactive)
REMARK    1  A    between atoms: C_1  and  C_2
REMARK    2  A    between atoms: C_2  and  N_3
REMARK    3  A    between atoms: N_3  and  C_4
REMARK    4  A    between atoms: C_4  and  C_5
REMARK    5  A    between atoms: C_8  and  C_9
REMARK    6  A    between atoms: C_9  and  N_10
REMARK    7  A    between atoms: C_11  and  C_13
REMARK    8  A    between atoms: C_25  and  C_27
REMARK                            x       y       z     vdW  Elec       q    Type
REMARK                         _______ _______ _______ _____ _____    ______ ____
ROOT
ATOM      1  C   UNL     1      45.312   6.771  11.081  0.00  0.00    +0.000 A 
ATOM      2  C   UNL     1      44.884   7.945  11.725  0.00  0.00    +0.000 A 
ATOM      3  C   UNL     1      45.690   8.574  12.676  0.00  0.00    +0.000 A 
ATOM      4  C   UNL     1      46.954   8.059  12.986  0.00  0.00    +0.000 A 
ATOM      5  C   UNL     1      47.404   6.920  12.301  0.00  0.00    +0.000 A 
ATOM      6  C   UNL     1      46.596   6.287  11.349  0.00  0.00    +0.000 A 
ENDROOT
BRANCH   1   7
ATOM      7  C   UNL     1      44.311   5.931  10.324  0.00  0.00    +0.000 C 
BRANCH   7   8
ATOM      8  N   UNL     1      43.718   4.715  10.869  0.00  0.00    +0.000 N 
ATOM      9  C   UNL     1      43.977   3.433  10.338  0.00  0.00    +0.000 C 
ATOM     10  O   UNL     1      43.391   2.432  10.754  0.00  0.00    +0.000 OA
BRANCH   9  11
ATOM     11  C   UNL     1      44.950   3.206   9.215  0.00  0.00    +0.000 A 
ATOM     12  C   UNL     1      45.515   4.215   8.435  0.00  0.00    +0.000 A 
ATOM     13  C   UNL     1      46.383   3.869   7.413  0.00  0.00    +0.000 A 
ATOM     14  N   UNL     1      46.783   2.608   7.168  0.00  0.00    +0.000 NA
ATOM     15  C   UNL     1      46.303   1.652   7.989  0.00  0.00    +0.000 A 
ATOM     16  C   UNL     1      45.392   1.896   9.004  0.00  0.00    +0.000 A 
ENDBRANCH   9  11
BRANCH   8  18
ATOM     17  C   UNL     1      43.527   4.569  13.355  0.00  0.00    +0.000 C 
ATOM     18  C   UNL     1      42.816   4.784  12.026  0.00  0.00    +0.000 C 
ENDBRANCH   8  18
ENDBRANCH   7   8
ENDBRANCH   1   7
BRANCH   4  19
ATOM     19  C   UNL     1      47.783   8.671  14.086  0.00  0.00    +0.000 C 
BRANCH  19  20
ATOM     20  N   UNL     1      47.988   7.738  15.170  0.00  0.00    +0.000 N 
ATOM     21  C   UNL     1      49.203   7.127  15.355  0.00  0.00    +0.000 C 
ATOM     22  O   UNL     1      50.169   7.382  14.639  0.00  0.00    +0.000 OA
ATOM     23  H   UNL     1      47.163   7.362  15.628  0.00  0.00    +0.000 HD
BRANCH  21  24
ATOM     24  C   UNL     1      49.317   6.196  16.486  0.00  0.00    +0.000 A 
ATOM     25  C   UNL     1      50.289   6.416  17.454  0.00  0.00    +0.000 A 
ATOM     26  S   UNL     1      50.266   5.279  18.724  0.00  0.00    +0.000 S 
ATOM     27  C   UNL     1      48.990   4.416  18.001  0.00  0.00    +0.000 A 
ATOM     28  N   UNL     1      48.488   3.293  18.579  0.00  0.00    +0.000 NA
ATOM     29  C   UNL     1      47.543   2.723  17.909  0.00  0.00    +0.000 A 
ATOM     30  N   UNL     1      47.046   3.181  16.715  0.00  0.00    +0.000 N 
ATOM     31  C   UNL     1      47.500   4.329  16.109  0.00  0.00    +0.000 A 
ATOM     32  O   UNL     1      47.006   4.733  15.060  0.00  0.00    +0.000 OA
ATOM     33  C   UNL     1      48.574   5.003  16.813  0.00  0.00    +0.000 A 
ATOM     34  H   UNL     1      46.301   2.689  16.242  0.00  0.00    +0.000 HD
ENDBRANCH  21  24
ENDBRANCH  19  20
ENDBRANCH   4  19
TORSDOF 7
ENDMDL
MODEL 2
REMARK VINA RESULT:    -7.785      2.828      7.847
REMARK INTER + INTRA:         -12.085
REMARK INTER:                 -10.027
REMARK INTRA:                  -2.058
REMARK UNBOUND:                -1.114
REMARK  Name = 
REMARK  8 active torsions:
REMARK  status: ('A' for Active; 'I' for Inactive)
REMARK    1  A    between atoms: C_1  and  C_2
REMARK    2  A    between atoms: C_2  and  N_3
REMARK    3  A    between atoms: N_3  and  C_4
REMARK    4  A    between atoms: C_4  and  C_5
REMARK    5  A    between atoms: C_8  and  C_9
REMARK    6  A    between atoms: C_9  and  N_10
REMARK    7  A    between atoms: C_11  and  C_13
REMARK    8  A    between atoms: C_25  and  C_27
REMARK                            x       y       z     vdW  Elec       q    Type
REMARK                         _______ _______ _______ _____ _____    ______ ____
ROOT
ATOM      1  C   UNL     1      49.075   7.799  16.041  0.00  0.00    +0.000 A 
ATOM      2  C   UNL     1      49.566   6.884  15.094  0.00  0.00    +0.000 A 
ATOM      3  C   UNL     1      49.116   6.911  13.772  0.00  0.00    +0.000 A 
ATOM      4  C   UNL     1      48.185   7.871  13.360  0.00  0.00    +0.000 A 
ATOM      5  C   UNL     1      47.738   8.820  14.292  0.00  0.00    +0.000 A 
ATOM      6  C   UNL     1      48.187   8.792  15.617  0.00  0.00    +0.000 A 
ENDROOT
BRANCH   1   7
ATOM      7  C   UNL     1      49.309   7.545  17.510  0.00  0.00    +0.000 C 
BRANCH   7   8
ATOM      8  N   UNL     1      48.229   7.277  18.454  0.00  0.00    +0.000 N 
ATOM      9  C   UNL     1      47.649   5.999  18.609  0.00  0.00    +0.000 C 
ATOM     10  O   UNL     1      46.675   5.818  19.343  0.00  0.00    +0.000 OA
BRANCH   9  11
ATOM     11  C   UNL     1      48.150   4.790  17.871  0.00  0.00    +0.000 A 
ATOM     12  C   UNL     1      49.258   4.030  18.248  0.00  0.00    +0.000 A 
ATOM     13  C   UNL     1      49.630   2.949  17.466  0.00  0.00    +0.000 A 
ATOM     14  N   UNL     1      48.938   2.532  16.391  0.00  0.00    +0.000 NA
ATOM     15  C   UNL     1      47.816   3.217  16.092  0.00  0.00    +0.000 A 
ATOM     16  C   UNL     1      47.393   4.340  16.785  0.00  0.00    +0.000 A 
ENDBRANCH   9  11
BRANCH   8  18
ATOM     17  C   UNL     1      48.555   9.613  19.273  0.00  0.00    +0.000 C 
ATOM     18  C   UNL     1      47.703   8.352  19.304  0.00  0.00    +0.000 C 
ENDBRANCH   8  18
ENDBRANCH   7   8
ENDBRANCH   1   7
BRANCH   4  19
ATOM     19  C   UNL     1      47.616   7.839  11.964  0.00  0.00    +0.000 C 
BRANCH  19  20
ATOM     20  N   UNL     1      46.936   6.591  11.702  0.00  0.00    +0.000 N 
ATOM     21  C   UNL     1      45.587   6.463  11.920  0.00  0.00    +0.000 C 
ATOM     22  O   UNL     1      44.902   7.410  12.300  0.00  0.00    +0.000 OA
ATOM     23  H   UNL     1      47.508   5.759  11.596  0.00  0.00    +0.000 HD
BRANCH  21  24
ATOM     24  C   UNL     1      44.983   5.157  11.621  0.00  0.00    +0.000 A 
ATOM     25  C   UNL     1      44.290   4.482  12.618  0.00  0.00    +0.000 A 
ATOM     26  S   UNL     1      43.609   3.006  12.106  0.00  0.00    +0.000 S 
ATOM     27  C   UNL     1      44.261   3.185  10.545  0.00  0.00    +0.000 A 
ATOM     28  N   UNL     1      44.063   2.237   9.590  0.00  0.00    +0.000 NA
ATOM     29  C   UNL     1      44.637   2.487   8.461  0.00  0.00    +0.000 A 
ATOM     30  N   UNL     1      45.385   3.606   8.196  0.00  0.00    +0.000 N 
ATOM     31  C   UNL     1      45.585   4.606   9.118  0.00  0.00    +0.000 A 
ATOM     32  O   UNL     1      46.227   5.614   8.836  0.00  0.00    +0.000 OA
ATOM     33  C   UNL     1      44.973   4.369  10.412  0.00  0.00    +0.000 A 
ATOM     34  H   UNL     1      45.806   3.743   7.287  0.00  0.00    +0.000 HD
ENDBRANCH  21  24
ENDBRANCH  19  20
ENDBRANCH   4  19
TORSDOF 7
ENDMDL
MODEL 3
REMARK VINA RESULT:    -7.645      3.103      7.781
REMARK INTER + INTRA:         -11.887
REMARK INTER:                 -10.179
REMARK INTRA:                  -1.708
REMARK UNBOUND:                -1.114
REMARK  Name = 
REMARK  8 active torsions:
REMARK  status: ('A' for Active; 'I' for Inactive)
REMARK    1  A    between atoms: C_1  and  C_2
REMARK    2  A    between atoms: C_2  and  N_3
REMARK    3  A    between atoms: N_3  and  C_4
REMARK    4  A    between atoms: C_4  and  C_5
REMARK    5  A    between atoms: C_8  and  C_9
REMARK    6  A    between atoms: C_9  and  N_10
REMARK    7  A    between atoms: C_11  and  C_13
REMARK    8  A    between atoms: C_25  and  C_27
REMARK                            x       y       z     vdW  Elec       q    Type
REMARK                         _______ _______ _______ _____ _____    ______ ____
ROOT
ATOM      1  C   UNL     1      50.024   7.129  15.842  0.00  0.00    +0.000 A 
ATOM      2  C   UNL     1      50.753   7.899  14.919  0.00  0.00    +0.000 A 
ATOM      3  C   UNL     1      50.209   8.231  13.676  0.00  0.00    +0.000 A 
ATOM      4  C   UNL     1      48.914   7.824  13.337  0.00  0.00    +0.000 A 
ATOM      5  C   UNL     1      48.165   7.104  14.282  0.00  0.00    +0.000 A 
ATOM      6  C   UNL     1      48.710   6.768  15.527  0.00  0.00    +0.000 A 
ENDROOT
BRANCH   1   7
ATOM      7  C   UNL     1      50.738   6.504  17.015  0.00  0.00    +0.000 C 
BRANCH   7   8
ATOM      8  N   UNL     1      50.109   6.307  18.317  0.00  0.00    +0.000 N 
ATOM      9  C   UNL     1      49.513   5.085  18.701  0.00  0.00    +0.000 C 
ATOM     10  O   UNL     1      48.905   4.972  19.767  0.00  0.00    +0.000 OA
BRANCH   9  11
ATOM     11  C   UNL     1      49.549   3.861  17.831  0.00  0.00    +0.000 A 
ATOM     12  C   UNL     1      50.631   2.987  17.730  0.00  0.00    +0.000 A 
ATOM     13  C   UNL     1      50.544   1.904  16.871  0.00  0.00    +0.000 A 
ATOM     14  N   UNL     1      49.437   1.593  16.173  0.00  0.00    +0.000 NA
ATOM     15  C   UNL     1      48.366   2.391  16.351  0.00  0.00    +0.000 A 
ATOM     16  C   UNL     1      48.375   3.524  17.149  0.00  0.00    +0.000 A 
ENDBRANCH   9  11
BRANCH   8  18
ATOM     17  C   UNL     1      48.956   8.392  19.065  0.00  0.00    +0.000 C 
ATOM     18  C   UNL     1      50.083   7.396  19.301  0.00  0.00    +0.000 C 
ENDBRANCH   8  18
ENDBRANCH   7   8
ENDBRANCH   1   7
BRANCH   4  19
ATOM     19  C   UNL     1      48.362   8.086  11.959  0.00  0.00    +0.000 C 
BRANCH  19  20
ATOM     20  N   UNL     1      47.653   6.935  11.450  0.00  0.00    +0.000 N 
ATOM     21  C   UNL     1      46.288   6.956  11.302  0.00  0.00    +0.000 C 
ATOM     22  O   UNL     1      45.627   7.961  11.554  0.00  0.00    +0.000 OA
ATOM     23  H   UNL     1      48.144   6.047  11.441  0.00  0.00    +0.000 HD
BRANCH  21  24
ATOM     24  C   UNL     1      45.655   5.740  10.773  0.00  0.00    +0.000 A 
ATOM     25  C   UNL     1      45.758   5.452   9.419  0.00  0.00    +0.000 A 
ATOM     26  S   UNL     1      45.012   3.988   8.967  0.00  0.00    +0.000 S 
ATOM     27  C   UNL     1      44.475   3.708  10.557  0.00  0.00    +0.000 A 
ATOM     28  N   UNL     1      43.741   2.605  10.865  0.00  0.00    +0.000 NA
ATOM     29  C   UNL     1      43.376   2.534  12.101  0.00  0.00    +0.000 A 
ATOM     30  N   UNL     1      43.687   3.461  13.062  0.00  0.00    +0.000 N 
ATOM     31  C   UNL     1      44.453   4.574  12.805  0.00  0.00    +0.000 A 
ATOM     32  O   UNL     1      44.747   5.365  13.697  0.00  0.00    +0.000 OA
ATOM     33  C   UNL     1      44.879   4.712  11.425  0.00  0.00    +0.000 A 
ATOM     34  H   UNL     1      43.373   3.344  14.015  0.00  0.00    +0.000 HD
ENDBRANCH  21  24
ENDBRANCH  19  20
ENDBRANCH   4  19
TORSDOF 7
ENDMDL
MODEL 4
REMARK VINA RESULT:    -7.604      2.258      2.832
REMARK INTER + INTRA:         -11.829
REMARK INTER:                 -11.448
REMARK INTRA:                  -0.381
REMARK UNBOUND:                -1.114
REMARK  Name = 
REMARK  8 active torsions:
REMARK  status: ('A' for Active; 'I' for Inactive)
REMARK    1  A    between atoms: C_1  and  C_2
REMARK    2  A    between atoms: C_2  and  N_3
REMARK    3  A    between atoms: N_3  and  C_4
REMARK    4  A    between atoms: C_4  and  C_5
REMARK    5  A    between atoms: C_8  and  C_9
REMARK    6  A    between atoms: C_9  and  N_10
REMARK    7  A    between atoms: C_11  and  C_13
REMARK    8  A    between atoms: C_25  and  C_27
REMARK                            x       y       z     vdW  Elec       q    Type
REMARK                         _______ _______ _______ _____ _____    ______ ____
ROOT
ATOM      1  C   UNL     1      46.703   5.491  12.370  0.00  0.00    +0.000 A 
ATOM      2  C   UNL     1      47.526   6.621  12.224  0.00  0.00    +0.000 A 
ATOM      3  C   UNL     1      48.237   7.134  13.310  0.00  0.00    +0.000 A 
ATOM      4  C   UNL     1      48.162   6.514  14.563  0.00  0.00    +0.000 A 
ATOM      5  C   UNL     1      47.385   5.353  14.694  0.00  0.00    +0.000 A 
ATOM      6  C   UNL     1      46.670   4.839  13.606  0.00  0.00    +0.000 A 
ENDROOT
BRANCH   1   7
ATOM      7  C   UNL     1      45.699   5.159  11.293  0.00  0.00    +0.000 C 
BRANCH   7   8
ATOM      8  N   UNL     1      44.656   4.152  11.459  0.00  0.00    +0.000 N 
ATOM      9  C   UNL     1      44.407   3.144  10.502  0.00  0.00    +0.000 C 
ATOM     10  O   UNL     1      43.460   2.363  10.619  0.00  0.00    +0.000 OA
BRANCH   9  11
ATOM     11  C   UNL     1      45.249   2.976   9.269  0.00  0.00    +0.000 A 
ATOM     12  C   UNL     1      45.752   1.759   8.808  0.00  0.00    +0.000 A 
ATOM     13  C   UNL     1      46.537   1.744   7.667  0.00  0.00    +0.000 A 
ATOM     14  N   UNL     1      46.787   2.834   6.919  0.00  0.00    +0.000 NA
ATOM     15  C   UNL     1      46.218   3.987   7.322  0.00  0.00    +0.000 A 
ATOM     16  C   UNL     1      45.460   4.109   8.476  0.00  0.00    +0.000 A 
ENDBRANCH   9  11
BRANCH   8  18
ATOM     17  C   UNL     1      42.806   5.283  12.696  0.00  0.00    +0.000 C 
ATOM     18  C   UNL     1      43.817   4.145  12.663  0.00  0.00    +0.000 C 
ENDBRANCH   8  18
ENDBRANCH   7   8
ENDBRANCH   1   7
BRANCH   4  19
ATOM     19  C   UNL     1      48.839   7.124  15.763  0.00  0.00    +0.000 C 
BRANCH  19  20
ATOM     20  N   UNL     1      49.936   6.304  16.221  0.00  0.00    +0.000 N 
ATOM     21  C   UNL     1      49.815   5.528  17.347  0.00  0.00    +0.000 C 
ATOM     22  O   UNL     1      48.762   5.467  17.978  0.00  0.00    +0.000 OA
ATOM     23  H   UNL     1      50.859   6.501  15.846  0.00  0.00    +0.000 HD
BRANCH  21  24
ATOM     24  C   UNL     1      50.982   4.724  17.734  0.00  0.00    +0.000 A 
ATOM     25  C   UNL     1      52.087   5.351  18.295  0.00  0.00    +0.000 A 
ATOM     26  S   UNL     1      53.339   4.281  18.733  0.00  0.00    +0.000 S 
ATOM     27  C   UNL     1      52.475   2.941  18.139  0.00  0.00    +0.000 A 
ATOM     28  N   UNL     1      53.001   1.689  18.191  0.00  0.00    +0.000 NA
ATOM     29  C   UNL     1      52.251   0.771  17.679  0.00  0.00    +0.000 A 
ATOM     30  N   UNL     1      51.014   0.991  17.128  0.00  0.00    +0.000 N 
ATOM     31  C   UNL     1      50.428   2.234  17.082  0.00  0.00    +0.000 A 
ATOM     32  O   UNL     1      49.303   2.390  16.617  0.00  0.00    +0.000 OA
ATOM     33  C   UNL     1      51.235   3.306  17.631  0.00  0.00    +0.000 A 
ATOM     34  H   UNL     1      50.475   0.226  16.747  0.00  0.00    +0.000 HD
ENDBRANCH  21  24
ENDBRANCH  19  20
ENDBRANCH   4  19
TORSDOF 7
ENDMDL
MODEL 5
REMARK VINA RESULT:    -7.490      3.458      9.828
REMARK INTER + INTRA:         -11.669
REMARK INTER:                  -9.918
REMARK INTRA:                  -1.751
REMARK UNBOUND:                -1.114
REMARK  Name = 
REMARK  8 active torsions:
REMARK  status: ('A' for Active; 'I' for Inactive)
REMARK    1  A    between atoms: C_1  and  C_2
REMARK    2  A    between atoms: C_2  and  N_3
REMARK    3  A    between atoms: N_3  and  C_4
REMARK    4  A    between atoms: C_4  and  C_5
REMARK    5  A    between atoms: C_8  and  C_9
REMARK    6  A    between atoms: C_9  and  N_10
REMARK    7  A    between atoms: C_11  and  C_13
REMARK    8  A    between atoms: C_25  and  C_27
REMARK                            x       y       z     vdW  Elec       q    Type
REMARK                         _______ _______ _______ _____ _____    ______ ____
ROOT
ATOM      1  C   UNL     1      51.345   4.458  17.844  0.00  0.00    +0.000 A 
ATOM      2  C   UNL     1      50.907   3.124  17.777  0.00  0.00    +0.000 A 
ATOM      3  C   UNL     1      49.606   2.816  17.373  0.00  0.00    +0.000 A 
ATOM      4  C   UNL     1      48.721   3.834  17.000  0.00  0.00    +0.000 A 
ATOM      5  C   UNL     1      49.176   5.162  17.013  0.00  0.00    +0.000 A 
ATOM      6  C   UNL     1      50.479   5.471  17.421  0.00  0.00    +0.000 A 
ENDROOT
BRANCH   1   7
ATOM      7  C   UNL     1      52.614   4.787  18.593  0.00  0.00    +0.000 C 
BRANCH   7   8
ATOM      8  N   UNL     1      52.904   4.280  19.930  0.00  0.00    +0.000 N 
ATOM      9  C   UNL     1      52.128   4.616  21.061  0.00  0.00    +0.000 C 
ATOM     10  O   UNL     1      52.448   4.252  22.194  0.00  0.00    +0.000 OA
BRANCH   9  11
ATOM     11  C   UNL     1      50.890   5.462  20.967  0.00  0.00    +0.000 A 
ATOM     12  C   UNL     1      50.882   6.847  20.801  0.00  0.00    +0.000 A 
ATOM     13  C   UNL     1      49.668   7.512  20.753  0.00  0.00    +0.000 A 
ATOM     14  N   UNL     1      48.475   6.892  20.781  0.00  0.00    +0.000 NA
ATOM     15  C   UNL     1      48.496   5.545  20.846  0.00  0.00    +0.000 A 
ATOM     16  C   UNL     1      49.659   4.798  20.949  0.00  0.00    +0.000 A 
ENDBRANCH   9  11
BRANCH   8  18
ATOM     17  C   UNL     1      54.167   2.306  19.067  0.00  0.00    +0.000 C 
ATOM     18  C   UNL     1      54.035   3.370  20.148  0.00  0.00    +0.000 C 
ENDBRANCH   8  18
ENDBRANCH   7   8
ENDBRANCH   1   7
BRANCH   4  19
ATOM     19  C   UNL     1      47.285   3.519  16.666  0.00  0.00    +0.000 C 
BRANCH  19  20
ATOM     20  N   UNL     1      46.749   4.459  15.710  0.00  0.00    +0.000 N 
ATOM     21  C   UNL     1      46.760   4.183  14.366  0.00  0.00    +0.000 C 
ATOM     22  O   UNL     1      47.181   3.113  13.931  0.00  0.00    +0.000 OA
ATOM     23  H   UNL     1      46.598   5.413  16.024  0.00  0.00    +0.000 HD
BRANCH  21  24
ATOM     24  C   UNL     1      46.189   5.198  13.470  0.00  0.00    +0.000 A 
ATOM     25  C   UNL     1      46.939   6.322  13.147  0.00  0.00    +0.000 A 
ATOM     26  S   UNL     1      46.160   7.382  12.064  0.00  0.00    +0.000 S 
ATOM     27  C   UNL     1      44.767   6.406  12.025  0.00  0.00    +0.000 A 
ATOM     28  N   UNL     1      43.685   6.759  11.281  0.00  0.00    +0.000 NA
ATOM     29  C   UNL     1      42.689   5.943  11.366  0.00  0.00    +0.000 A 
ATOM     30  N   UNL     1      42.679   4.798  12.121  0.00  0.00    +0.000 N 
ATOM     31  C   UNL     1      43.760   4.384  12.863  0.00  0.00    +0.000 A 
ATOM     32  O   UNL     1      43.733   3.333  13.497  0.00  0.00    +0.000 OA
ATOM     33  C   UNL     1      44.905   5.273  12.815  0.00  0.00    +0.000 A 
ATOM     34  H   UNL     1      41.865   4.199  12.141  0.00  0.00    +0.000 HD
ENDBRANCH  21  24
ENDBRANCH  19  20
ENDBRANCH   4  19
TORSDOF 7
ENDMDL
MODEL 6
REMARK VINA RESULT:    -7.419      2.028      2.508
REMARK INTER + INTRA:         -11.569
REMARK INTER:                 -10.857
REMARK INTRA:                  -0.712
REMARK UNBOUND:                -1.114
REMARK  Name = 
REMARK  8 active torsions:
REMARK  status: ('A' for Active; 'I' for Inactive)
REMARK    1  A    between atoms: C_1  and  C_2
REMARK    2  A    between atoms: C_2  and  N_3
REMARK    3  A    between atoms: N_3  and  C_4
REMARK    4  A    between atoms: C_4  and  C_5
REMARK    5  A    between atoms: C_8  and  C_9
REMARK    6  A    between atoms: C_9  and  N_10
REMARK    7  A    between atoms: C_11  and  C_13
REMARK    8  A    between atoms: C_25  and  C_27
REMARK                            x       y       z     vdW  Elec       q    Type
REMARK                         _______ _______ _______ _____ _____    ______ ____
ROOT
ATOM      1  C   UNL     1      46.018   5.654  11.361  0.00  0.00    +0.000 A 
ATOM      2  C   UNL     1      46.737   6.814  11.022  0.00  0.00    +0.000 A 
ATOM      3  C   UNL     1      47.603   7.413  11.939  0.00  0.00    +0.000 A 
ATOM      4  C   UNL     1      47.790   6.852  13.207  0.00  0.00    +0.000 A 
ATOM      5  C   UNL     1      47.116   5.663  13.524  0.00  0.00    +0.000 A 
ATOM      6  C   UNL     1      46.246   5.062  12.606  0.00  0.00    +0.000 A 
ENDROOT
BRANCH   1   7
ATOM      7  C   UNL     1      44.855   5.223  10.500  0.00  0.00    +0.000 C 
BRANCH   7   8
ATOM      8  N   UNL     1      44.137   3.969  10.702  0.00  0.00    +0.000 N 
ATOM      9  C   UNL     1      44.332   2.835   9.883  0.00  0.00    +0.000 C 
ATOM     10  O   UNL     1      43.646   1.820  10.014  0.00  0.00    +0.000 OA
BRANCH   9  11
ATOM     11  C   UNL     1      45.356   2.800   8.784  0.00  0.00    +0.000 A 
ATOM     12  C   UNL     1      45.806   3.917   8.080  0.00  0.00    +0.000 A 
ATOM     13  C   UNL     1      46.739   3.744   7.070  0.00  0.00    +0.000 A 
ATOM     14  N   UNL     1      47.305   2.561   6.771  0.00  0.00    +0.000 NA
ATOM     15  C   UNL     1      46.932   1.506   7.522  0.00  0.00    +0.000 A 
ATOM     16  C   UNL     1      45.970   1.572   8.517  0.00  0.00    +0.000 A 
ENDBRANCH   9  11
BRANCH   8  18
ATOM     17  C   UNL     1      42.580   5.168  12.243  0.00  0.00    +0.000 C 
ATOM     18  C   UNL     1      43.170   3.837  11.799  0.00  0.00    +0.000 C 
ENDBRANCH   8  18
ENDBRANCH   7   8
ENDBRANCH   1   7
BRANCH   4  19
ATOM     19  C   UNL     1      48.639   7.551  14.238  0.00  0.00    +0.000 C 
BRANCH  19  20
ATOM     20  N   UNL     1      48.364   7.058  15.567  0.00  0.00    +0.000 N 
ATOM     21  C   UNL     1      49.355   6.487  16.327  0.00  0.00    +0.000 C 
ATOM     22  O   UNL     1      50.515   6.415  15.926  0.00  0.00    +0.000 OA
ATOM     23  H   UNL     1      47.392   6.917  15.824  0.00  0.00    +0.000 HD
BRANCH  21  24
ATOM     24  C   UNL     1      48.982   6.018  17.668  0.00  0.00    +0.000 A 
ATOM     25  C   UNL     1      49.151   4.678  17.993  0.00  0.00    +0.000 A 
ATOM     26  S   UNL     1      48.717   4.298  19.597  0.00  0.00    +0.000 S 
ATOM     27  C   UNL     1      48.235   5.901  19.904  0.00  0.00    +0.000 A 
ATOM     28  N   UNL     1      47.736   6.262  21.116  0.00  0.00    +0.000 NA
ATOM     29  C   UNL     1      47.383   7.501  21.201  0.00  0.00    +0.000 A 
ATOM     30  N   UNL     1      47.495   8.417  20.186  0.00  0.00    +0.000 N 
ATOM     31  C   UNL     1      48.024   8.106  18.955  0.00  0.00    +0.000 A 
ATOM     32  O   UNL     1      48.146   8.958  18.080  0.00  0.00    +0.000 OA
ATOM     33  C   UNL     1      48.423   6.720  18.799  0.00  0.00    +0.000 A 
ATOM     34  H   UNL     1      47.203   9.375  20.319  0.00  0.00    +0.000 HD
ENDBRANCH  21  24
ENDBRANCH  19  20
ENDBRANCH   4  19
TORSDOF 7
ENDMDL
MODEL 7
REMARK VINA RESULT:    -7.207      3.168      8.846
REMARK INTER + INTRA:         -11.270
REMARK INTER:                  -9.185
REMARK INTRA:                  -2.085
REMARK UNBOUND:                -1.114
REMARK  Name = 
REMARK  8 active torsions:
REMARK  status: ('A' for Active; 'I' for Inactive)
REMARK    1  A    between atoms: C_1  and  C_2
REMARK    2  A    between atoms: C_2  and  N_3
REMARK    3  A    between atoms: N_3  and  C_4
REMARK    4  A    between atoms: C_4  and  C_5
REMARK    5  A    between atoms: C_8  and  C_9
REMARK    6  A    between atoms: C_9  and  N_10
REMARK    7  A    between atoms: C_11  and  C_13
REMARK    8  A    between atoms: C_25  and  C_27
REMARK                            x       y       z     vdW  Elec       q    Type
REMARK                         _______ _______ _______ _____ _____    ______ ____
ROOT
ATOM      1  C   UNL     1      50.999   4.299  18.419  0.00  0.00    +0.000 A 
ATOM      2  C   UNL     1      49.873   4.976  18.921  0.00  0.00    +0.000 A 
ATOM      3  C   UNL     1      48.589   4.656  18.477  0.00  0.00    +0.000 A 
ATOM      4  C   UNL     1      48.397   3.634  17.541  0.00  0.00    +0.000 A 
ATOM      5  C   UNL     1      49.515   2.920  17.083  0.00  0.00    +0.000 A 
ATOM      6  C   UNL     1      50.804   3.242  17.525  0.00  0.00    +0.000 A 
ENDROOT
BRANCH   1   7
ATOM      7  C   UNL     1      52.375   4.875  18.648  0.00  0.00    +0.000 C 
BRANCH   7   8
ATOM      8  N   UNL     1      53.291   5.207  17.562  0.00  0.00    +0.000 N 
ATOM      9  C   UNL     1      53.035   6.240  16.635  0.00  0.00    +0.000 C 
ATOM     10  O   UNL     1      53.776   6.439  15.670  0.00  0.00    +0.000 OA
BRANCH   9  11
ATOM     11  C   UNL     1      51.834   7.138  16.738  0.00  0.00    +0.000 A 
ATOM     12  C   UNL     1      51.758   8.276  17.541  0.00  0.00    +0.000 A 
ATOM     13  C   UNL     1      50.582   9.006  17.563  0.00  0.00    +0.000 A 
ATOM     14  N   UNL     1      49.516   8.729  16.791  0.00  0.00    +0.000 NA
ATOM     15  C   UNL     1      49.636   7.683  15.949  0.00  0.00    +0.000 A 
ATOM     16  C   UNL     1      50.753   6.865  15.893  0.00  0.00    +0.000 A 
ENDBRANCH   9  11
BRANCH   8  18
ATOM     17  C   UNL     1      54.482   3.045  17.942  0.00  0.00    +0.000 C 
ATOM     18  C   UNL     1      54.548   4.466  17.399  0.00  0.00    +0.000 C 
ENDBRANCH   8  18
ENDBRANCH   7   8
ENDBRANCH   1   7
BRANCH   4  19
ATOM     19  C   UNL     1      47.026   3.356  16.978  0.00  0.00    +0.000 C 
BRANCH  19  20
ATOM     20  N   UNL     1      46.654   4.341  15.989  0.00  0.00    +0.000 N 
ATOM     21  C   UNL     1      46.881   4.121  14.653  0.00  0.00    +0.000 C 
ATOM     22  O   UNL     1      47.364   3.066  14.246  0.00  0.00    +0.000 OA
ATOM     23  H   UNL     1      46.457   5.282  16.315  0.00  0.00    +0.000 HD
BRANCH  21  24
ATOM     24  C   UNL     1      46.466   5.178  13.721  0.00  0.00    +0.000 A 
ATOM     25  C   UNL     1      47.315   6.251  13.485  0.00  0.00    +0.000 A 
ATOM     26  S   UNL     1      46.714   7.369  12.348  0.00  0.00    +0.000 S 
ATOM     27  C   UNL     1      45.269   6.489  12.166  0.00  0.00    +0.000 A 
ATOM     28  N   UNL     1      44.288   6.919  11.329  0.00  0.00    +0.000 NA
ATOM     29  C   UNL     1      43.236   6.171  11.310  0.00  0.00    +0.000 A 
ATOM     30  N   UNL     1      43.079   5.024  12.046  0.00  0.00    +0.000 N 
ATOM     31  C   UNL     1      44.056   4.533  12.880  0.00  0.00    +0.000 A 
ATOM     32  O   UNL     1      43.900   3.482  13.494  0.00  0.00    +0.000 OA
ATOM     33  C   UNL     1      45.257   5.344  12.950  0.00  0.00    +0.000 A 
ATOM     34  H   UNL     1      42.229   4.481  11.982  0.00  0.00    +0.000 HD
ENDBRANCH  21  24
ENDBRANCH  19  20
ENDBRANCH   4  19
TORSDOF 7
ENDMDL
MODEL 8
REMARK VINA RESULT:    -7.092      3.290      8.963
REMARK INTER + INTRA:         -11.108
REMARK INTER:                  -9.241
REMARK INTRA:                  -1.867
REMARK UNBOUND:                -1.114
REMARK  Name = 
REMARK  8 active torsions:
REMARK  status: ('A' for Active; 'I' for Inactive)
REMARK    1  A    between atoms: C_1  and  C_2
REMARK    2  A    between atoms: C_2  and  N_3
REMARK    3  A    between atoms: N_3  and  C_4
REMARK    4  A    between atoms: C_4  and  C_5
REMARK    5  A    between atoms: C_8  and  C_9
REMARK    6  A    between atoms: C_9  and  N_10
REMARK    7  A    between atoms: C_11  and  C_13
REMARK    8  A    between atoms: C_25  and  C_27
REMARK                            x       y       z     vdW  Elec       q    Type
REMARK                         _______ _______ _______ _____ _____    ______ ____
ROOT
ATOM      1  C   UNL     1      48.767   5.568  19.973  0.00  0.00    +0.000 A 
ATOM      2  C   UNL     1      47.508   5.863  19.423  0.00  0.00    +0.000 A 
ATOM      3  C   UNL     1      47.037   5.176  18.302  0.00  0.00    +0.000 A 
ATOM      4  C   UNL     1      47.803   4.160  17.720  0.00  0.00    +0.000 A 
ATOM      5  C   UNL     1      49.035   3.827  18.304  0.00  0.00    +0.000 A 
ATOM      6  C   UNL     1      49.509   4.516  19.426  0.00  0.00    +0.000 A 
ENDROOT
BRANCH   1   7
ATOM      7  C   UNL     1      49.394   6.530  20.953  0.00  0.00    +0.000 C 
BRANCH   7   8
ATOM      8  N   UNL     1      49.358   7.978  20.781  0.00  0.00    +0.000 N 
ATOM      9  C   UNL     1      49.956   8.632  19.681  0.00  0.00    +0.000 C 
ATOM     10  O   UNL     1      49.995   9.862  19.606  0.00  0.00    +0.000 OA
BRANCH   9  11
ATOM     11  C   UNL     1      50.609   7.884  18.554  0.00  0.00    +0.000 A 
ATOM     12  C   UNL     1      51.871   7.291  18.618  0.00  0.00    +0.000 A 
ATOM     13  C   UNL     1      52.369   6.648  17.497  0.00  0.00    +0.000 A 
ATOM     14  N   UNL     1      51.674   6.490  16.356  0.00  0.00    +0.000 NA
ATOM     15  C   UNL     1      50.420   6.984  16.339  0.00  0.00    +0.000 A 
ATOM     16  C   UNL     1      49.856   7.686  17.393  0.00  0.00    +0.000 A 
ENDBRANCH   9  11
BRANCH   8  18
ATOM     17  C   UNL     1      47.170   8.911  21.539  0.00  0.00    +0.000 C 
ATOM     18  C   UNL     1      48.673   8.825  21.764  0.00  0.00    +0.000 C 
ENDBRANCH   8  18
ENDBRANCH   7   8
ENDBRANCH   1   7
BRANCH   4  19
ATOM     19  C   UNL     1      47.350   3.489  16.449  0.00  0.00    +0.000 C 
BRANCH  19  20
ATOM     20  N   UNL     1      46.686   4.423  15.569  0.00  0.00    +0.000 N 
ATOM     21  C   UNL     1      46.831   4.335  14.207  0.00  0.00    +0.000 C 
ATOM     22  O   UNL     1      47.489   3.437  13.685  0.00  0.00    +0.000 OA
ATOM     23  H   UNL     1      46.323   5.277  15.980  0.00  0.00    +0.000 HD
BRANCH  21  24
ATOM     24  C   UNL     1      46.115   5.326  13.393  0.00  0.00    +0.000 A 
ATOM     25  C   UNL     1      46.693   6.568  13.166  0.00  0.00    +0.000 A 
ATOM     26  S   UNL     1      45.763   7.589  12.168  0.00  0.00    +0.000 S 
ATOM     27  C   UNL     1      44.524   6.430  12.043  0.00  0.00    +0.000 A 
ATOM     28  N   UNL     1      43.398   6.682  11.325  0.00  0.00    +0.000 NA
ATOM     29  C   UNL     1      42.529   5.728  11.340  0.00  0.00    +0.000 A 
ATOM     30  N   UNL     1      42.689   4.536  12.000  0.00  0.00    +0.000 N 
ATOM     31  C   UNL     1      43.823   4.223  12.711  0.00  0.00    +0.000 A 
ATOM     32  O   UNL     1      43.952   3.132  13.258  0.00  0.00    +0.000 OA
ATOM     33  C   UNL     1      44.828   5.269  12.740  0.00  0.00    +0.000 A 
ATOM     34  H   UNL     1      41.970   3.827  11.968  0.00  0.00    +0.000 HD
ENDBRANCH  21  24
ENDBRANCH  19  20
ENDBRANCH   4  19
TORSDOF 7
ENDMDL
MODEL 9
REMARK VINA RESULT:    -6.845      3.376      9.194
REMARK INTER + INTRA:         -10.760
REMARK INTER:                  -9.157
REMARK INTRA:                  -1.603
REMARK UNBOUND:                -1.114
REMARK  Name = 
REMARK  8 active torsions:
REMARK  status: ('A' for Active; 'I' for Inactive)
REMARK    1  A    between atoms: C_1  and  C_2
REMARK    2  A    between atoms: C_2  and  N_3
REMARK    3  A    between atoms: N_3  and  C_4
REMARK    4  A    between atoms: C_4  and  C_5
REMARK    5  A    between atoms: C_8  and  C_9
REMARK    6  A    between atoms: C_9  and  N_10
REMARK    7  A    between atoms: C_11  and  C_13
REMARK    8  A    between atoms: C_25  and  C_27
REMARK                            x       y       z     vdW  Elec       q    Type
REMARK                         _______ _______ _______ _____ _____    ______ ____
ROOT
ATOM      1  C   UNL     1      51.450   3.774  17.756  0.00  0.00    +0.000 A 
ATOM      2  C   UNL     1      50.559   4.848  17.926  0.00  0.00    +0.000 A 
ATOM      3  C   UNL     1      49.195   4.695  17.669  0.00  0.00    +0.000 A 
ATOM      4  C   UNL     1      48.685   3.457  17.262  0.00  0.00    +0.000 A 
ATOM      5  C   UNL     1      49.567   2.370  17.148  0.00  0.00    +0.000 A 
ATOM      6  C   UNL     1      50.934   2.524  17.402  0.00  0.00    +0.000 A 
ENDROOT
BRANCH   1   7
ATOM      7  C   UNL     1      52.935   4.041  17.709  0.00  0.00    +0.000 C 
BRANCH   7   8
ATOM      8  N   UNL     1      53.608   4.955  18.625  0.00  0.00    +0.000 N 
ATOM      9  C   UNL     1      53.983   6.267  18.260  0.00  0.00    +0.000 C 
ATOM     10  O   UNL     1      54.635   6.986  19.019  0.00  0.00    +0.000 OA
BRANCH   9  11
ATOM     11  C   UNL     1      53.645   6.859  16.921  0.00  0.00    +0.000 A 
ATOM     12  C   UNL     1      52.492   7.593  16.643  0.00  0.00    +0.000 A 
ATOM     13  C   UNL     1      52.289   8.066  15.357  0.00  0.00    +0.000 A 
ATOM     14  N   UNL     1      53.182   7.926  14.361  0.00  0.00    +0.000 NA
ATOM     15  C   UNL     1      54.334   7.297  14.666  0.00  0.00    +0.000 A 
ATOM     16  C   UNL     1      54.604   6.747  15.909  0.00  0.00    +0.000 A 
ENDBRANCH   9  11
BRANCH   8  18
ATOM     17  C   UNL     1      52.732   4.651  20.944  0.00  0.00    +0.000 C 
ATOM     18  C   UNL     1      53.919   4.535  19.997  0.00  0.00    +0.000 C 
ENDBRANCH   8  18
ENDBRANCH   7   8
ENDBRANCH   1   7
BRANCH   4  19
ATOM     19  C   UNL     1      47.234   3.311  16.880  0.00  0.00    +0.000 C 
BRANCH  19  20
ATOM     20  N   UNL     1      46.833   4.333  15.942  0.00  0.00    +0.000 N 
ATOM     21  C   UNL     1      46.896   4.113  14.589  0.00  0.00    +0.000 C 
ATOM     22  O   UNL     1      47.252   3.031  14.127  0.00  0.00    +0.000 OA
ATOM     23  H   UNL     1      46.743   5.282  16.292  0.00  0.00    +0.000 HD
BRANCH  21  24
ATOM     24  C   UNL     1      46.463   5.210  13.712  0.00  0.00    +0.000 A 
ATOM     25  C   UNL     1      47.291   6.312  13.539  0.00  0.00    +0.000 A 
ATOM     26  S   UNL     1      46.672   7.476  12.460  0.00  0.00    +0.000 S 
ATOM     27  C   UNL     1      45.247   6.577  12.221  0.00  0.00    +0.000 A 
ATOM     28  N   UNL     1      44.261   7.030  11.402  0.00  0.00    +0.000 NA
ATOM     29  C   UNL     1      43.225   6.262  11.337  0.00  0.00    +0.000 A 
ATOM     30  N   UNL     1      43.089   5.074  12.009  0.00  0.00    +0.000 N 
ATOM     31  C   UNL     1      44.072   4.560  12.822  0.00  0.00    +0.000 A 
ATOM     32  O   UNL     1      43.936   3.475  13.378  0.00  0.00    +0.000 OA
ATOM     33  C   UNL     1      45.255   5.391  12.944  0.00  0.00    +0.000 A 
ATOM     34  H   UNL     1      42.252   4.517  11.911  0.00  0.00    +0.000 HD
ENDBRANCH  21  24
ENDBRANCH  19  20
ENDBRANCH   4  19
TORSDOF 7
ENDMDL
