MODEL 1
REMARK VINA RESULT:    -7.230      0.000      0.000
REMARK INTER + INTRA:          -9.957
REMARK INTER:                  -9.555
REMARK INTRA:                  -0.402
REMARK UNBOUND:                -0.402
REMARK  Name = 
REMARK  6 active torsions:
REMARK  status: ('A' for Active; 'I' for Inactive)
REMARK    1  A    between atoms: N_1  and  C_2
REMARK    2  A    between atoms: C_2  and  C_3
REMARK    3  A    between atoms: C_7  and  O_8
REMARK    4  A    between atoms: O_8  and  C_9
REMARK    5  A    between atoms: C_9  and  C_10
REMARK    6  A    between atoms: C_10  and  C_11
REMARK                            x       y       z     vdW  Elec       q    Type
REMARK                         _______ _______ _______ _____ _____    ______ ____
ROOT
ATOM      1  C   UNL     1      45.634   4.860  13.237  0.00  0.00    +0.000 A 
ATOM      2  C   UNL     1      45.284   6.189  12.977  0.00  0.00    +0.000 A 
ATOM      3  C   UNL     1      44.314   6.450  12.029  0.00  0.00    +0.000 A 
ATOM      4  N   UNL     1      43.681   5.491  11.327  0.00  0.00    +0.000 NA
ATOM      5  C   UNL     1      44.025   4.212  11.579  0.00  0.00    +0.000 A 
ATOM      6  C   UNL     1      44.988   3.849  12.513  0.00  0.00    +0.000 A 
ENDROOT
BRANCH   1   7
ATOM      7  C   UNL     1      46.691   4.557  14.267  0.00  0.00    +0.000 C 
BRANCH   7   8
ATOM      8  N   UNL     1      47.277   3.238  14.049  0.00  0.00    +0.000 NA
ATOM      9  H   UNL     1      48.037   3.093  14.710  0.00  0.00    +0.000 HD
ATOM     10  H   UNL     1      47.694   3.211  13.119  0.00  0.00    +0.000 HD
ENDBRANCH   7   8
ENDBRANCH   1   7
BRANCH   5  11
ATOM     11  O   UNL     1      43.392   3.198  10.875  0.00  0.00    +0.000 OA
BRANCH  11  12
ATOM     12  C   UNL     1      44.298   2.533   9.978  0.00  0.00    +0.000 C 
BRANCH  12  13
ATOM     13  C   UNL     1      44.631   3.435   8.789  0.00  0.00    +0.000 C 
BRANCH  13  14
ATOM     14  C   UNL     1      45.686   2.821   7.895  0.00  0.00    +0.000 A 
ATOM     15  C   UNL     1      46.225   1.561   8.187  0.00  0.00    +0.000 A 
ATOM     16  C   UNL     1      47.210   1.001   7.367  0.00  0.00    +0.000 A 
ATOM     17  C   UNL     1      47.671   1.698   6.254  0.00  0.00    +0.000 A 
ATOM     18  C   UNL     1      47.153   2.960   5.963  0.00  0.00    +0.000 A 
ATOM     19  C   UNL     1      46.169   3.520   6.781  0.00  0.00    +0.000 A 
ENDBRANCH  13  14
ENDBRANCH  12  13
ENDBRANCH  11  12
ENDBRANCH   5  11
TORSDOF 6
ENDMDL
MODEL 2
REMARK VINA RESULT:    -7.170      0.779      1.397
REMARK INTER + INTRA:          -9.877
REMARK INTER:                  -9.437
REMARK INTRA:                  -0.441
REMARK UNBOUND:                -0.402
REMARK  Name = 
REMARK  6 active torsions:
REMARK  status: ('A' for Active; 'I' for Inactive)
REMARK    1  A    between atoms: N_1  and  C_2
REMARK    2  A    between atoms: C_2  and  C_3
REMARK    3  A    between atoms: C_7  and  O_8
REMARK    4  A    between atoms: O_8  and  C_9
REMARK    5  A    between atoms: C_9  and  C_10
REMARK    6  A    between atoms: C_10  and  C_11
REMARK                            x       y       z     vdW  Elec       q    Type
REMARK                         _______ _______ _______ _____ _____    ______ ____
ROOT
ATOM      1  C   UNL     1      46.139   5.093  13.423  0.00  0.00    +0.000 A 
ATOM      2  C   UNL     1      46.302   6.413  12.988  0.00  0.00    +0.000 A 
ATOM      3  C   UNL     1      45.568   6.853  11.905  0.00  0.00    +0.000 A 
ATOM      4  N   UNL     1      44.698   6.079  11.229  0.00  0.00    +0.000 NA
ATOM      5  C   UNL     1      44.547   4.807  11.650  0.00  0.00    +0.000 A 
ATOM      6  C   UNL     1      45.240   4.272  12.729  0.00  0.00    +0.000 A 
ENDROOT
BRANCH   1   7
ATOM      7  C   UNL     1      46.933   4.595  14.602  0.00  0.00    +0.000 C 
BRANCH   7   8
ATOM      8  N   UNL     1      47.371   3.218  14.399  0.00  0.00    +0.000 NA
ATOM      9  H   UNL     1      47.095   2.909  13.470  0.00  0.00    +0.000 HD
ATOM     10  H   UNL     1      46.884   2.614  15.061  0.00  0.00    +0.000 HD
ENDBRANCH   7   8
ENDBRANCH   1   7
BRANCH   5  11
ATOM     11  O   UNL     1      43.657   3.981  10.979  0.00  0.00    +0.000 OA
BRANCH  11  12
ATOM     12  C   UNL     1      44.066   3.762   9.618  0.00  0.00    +0.000 C 
BRANCH  12  13
ATOM     13  C   UNL     1      44.764   2.407   9.482  0.00  0.00    +0.000 C 
BRANCH  13  14
ATOM     14  C   UNL     1      45.712   2.378   8.304  0.00  0.00    +0.000 A 
ATOM     15  C   UNL     1      45.829   3.486   7.453  0.00  0.00    +0.000 A 
ATOM     16  C   UNL     1      46.696   3.453   6.356  0.00  0.00    +0.000 A 
ATOM     17  C   UNL     1      47.447   2.311   6.094  0.00  0.00    +0.000 A 
ATOM     18  C   UNL     1      47.327   1.197   6.924  0.00  0.00    +0.000 A 
ATOM     19  C   UNL     1      46.462   1.229   8.021  0.00  0.00    +0.000 A 
ENDBRANCH  13  14
ENDBRANCH  12  13
ENDBRANCH  11  12
ENDBRANCH   5  11
TORSDOF 6
ENDMDL
MODEL 3
REMARK VINA RESULT:    -7.001      1.202      2.324
REMARK INTER + INTRA:          -9.654
REMARK INTER:                  -9.243
REMARK INTRA:                  -0.411
REMARK UNBOUND:                -0.402
REMARK  Name = 
REMARK  6 active torsions:
REMARK  status: ('A' for Active; 'I' for Inactive)
REMARK    1  A    between atoms: N_1  and  C_2
REMARK    2  A    between atoms: C_2  and  C_3
REMARK    3  A    between atoms: C_7  and  O_8
REMARK    4  A    between atoms: O_8  and  C_9
REMARK    5  A    between atoms: C_9  and  C_10
REMARK    6  A    between atoms: C_10  and  C_11
REMARK                            x       y       z     vdW  Elec       q    Type
REMARK                         _______ _______ _______ _____ _____    ______ ____
ROOT
ATOM      1  C   UNL     1      46.033   6.133  12.888  0.00  0.00    +0.000 A 
ATOM      2  C   UNL     1      46.951   5.474  13.712  0.00  0.00    +0.000 A 
ATOM      3  C   UNL     1      46.920   4.095  13.775  0.00  0.00    +0.000 A 
ATOM      4  N   UNL     1      46.045   3.337  13.088  0.00  0.00    +0.000 NA
ATOM      5  C   UNL     1      45.160   3.978  12.298  0.00  0.00    +0.000 A 
ATOM      6  C   UNL     1      45.112   5.360  12.168  0.00  0.00    +0.000 A 
ENDROOT
BRANCH   1   7
ATOM      7  C   UNL     1      46.051   7.637  12.808  0.00  0.00    +0.000 C 
BRANCH   7   8
ATOM      8  N   UNL     1      44.760   8.158  12.371  0.00  0.00    +0.000 NA
ATOM      9  H   UNL     1      44.339   7.508  11.711  0.00  0.00    +0.000 HD
ATOM     10  H   UNL     1      44.910   9.029  11.862  0.00  0.00    +0.000 HD
ENDBRANCH   7   8
ENDBRANCH   1   7
BRANCH   5  11
ATOM     11  O   UNL     1      44.244   3.228  11.574  0.00  0.00    +0.000 OA
BRANCH  11  12
ATOM     12  C   UNL     1      44.357   3.478  10.162  0.00  0.00    +0.000 C 
BRANCH  12  13
ATOM     13  C   UNL     1      44.545   2.165   9.401  0.00  0.00    +0.000 C 
BRANCH  13  14
ATOM     14  C   UNL     1      45.597   2.286   8.321  0.00  0.00    +0.000 A 
ATOM     15  C   UNL     1      46.447   1.211   8.026  0.00  0.00    +0.000 A 
ATOM     16  C   UNL     1      47.429   1.329   7.037  0.00  0.00    +0.000 A 
ATOM     17  C   UNL     1      47.576   2.525   6.339  0.00  0.00    +0.000 A 
ATOM     18  C   UNL     1      46.747   3.607   6.635  0.00  0.00    +0.000 A 
ATOM     19  C   UNL     1      45.765   3.489   7.622  0.00  0.00    +0.000 A 
ENDBRANCH  13  14
ENDBRANCH  12  13
ENDBRANCH  11  12
ENDBRANCH   5  11
TORSDOF 6
ENDMDL
MODEL 4
REMARK VINA RESULT:    -6.585      2.579      6.093
REMARK INTER + INTRA:          -9.104
REMARK INTER:                  -8.620
REMARK INTRA:                  -0.484
REMARK UNBOUND:                -0.402
REMARK  Name = 
REMARK  6 active torsions:
REMARK  status: ('A' for Active; 'I' for Inactive)
REMARK    1  A    between atoms: N_1  and  C_2
REMARK    2  A    between atoms: C_2  and  C_3
REMARK    3  A    between atoms: C_7  and  O_8
REMARK    4  A    between atoms: O_8  and  C_9
REMARK    5  A    between atoms: C_9  and  C_10
REMARK    6  A    between atoms: C_10  and  C_11
REMARK                            x       y       z     vdW  Elec       q    Type
REMARK                         _______ _______ _______ _____ _____    ______ ____
ROOT
ATOM      1  C   UNL     1      46.813   2.703   7.259  0.00  0.00    +0.000 A 
ATOM      2  C   UNL     1      46.550   1.406   7.714  0.00  0.00    +0.000 A 
ATOM      3  C   UNL     1      45.514   1.209   8.605  0.00  0.00    +0.000 A 
ATOM      4  N   UNL     1      44.735   2.202   9.074  0.00  0.00    +0.000 NA
ATOM      5  C   UNL     1      44.994   3.450   8.635  0.00  0.00    +0.000 A 
ATOM      6  C   UNL     1      46.014   3.749   7.739  0.00  0.00    +0.000 A 
ENDROOT
BRANCH   1   7
ATOM      7  C   UNL     1      47.940   2.937   6.288  0.00  0.00    +0.000 C 
BRANCH   7   8
ATOM      8  N   UNL     1      48.478   1.675   5.790  0.00  0.00    +0.000 NA
ATOM      9  H   UNL     1      49.495   1.715   5.797  0.00  0.00    +0.000 HD
ATOM     10  H   UNL     1      48.201   1.558   4.816  0.00  0.00    +0.000 HD
ENDBRANCH   7   8
ENDBRANCH   1   7
BRANCH   5  11
ATOM     11  O   UNL     1      44.210   4.498   9.095  0.00  0.00    +0.000 OA
BRANCH  11  12
ATOM     12  C   UNL     1      43.682   4.226  10.405  0.00  0.00    +0.000 C 
BRANCH  12  13
ATOM     13  C   UNL     1      43.728   5.486  11.271  0.00  0.00    +0.000 C 
BRANCH  13  14
ATOM     14  C   UNL     1      45.080   5.671  11.925  0.00  0.00    +0.000 A 
ATOM     15  C   UNL     1      46.025   6.549  11.377  0.00  0.00    +0.000 A 
ATOM     16  C   UNL     1      47.279   6.709  11.975  0.00  0.00    +0.000 A 
ATOM     17  C   UNL     1      47.604   5.986  13.119  0.00  0.00    +0.000 A 
ATOM     18  C   UNL     1      46.677   5.097  13.664  0.00  0.00    +0.000 A 
ATOM     19  C   UNL     1      45.424   4.938  13.068  0.00  0.00    +0.000 A 
ENDBRANCH  13  14
ENDBRANCH  12  13
ENDBRANCH  11  12
ENDBRANCH   5  11
TORSDOF 6
ENDMDL
MODEL 5
REMARK VINA RESULT:    -5.910      1.844      2.117
REMARK INTER + INTRA:          -8.213
REMARK INTER:                  -7.766
REMARK INTRA:                  -0.447
REMARK UNBOUND:                -0.402
REMARK  Name = 
REMARK  6 active torsions:
REMARK  status: ('A' for Active; 'I' for Inactive)
REMARK    1  A    between atoms: N_1  and  C_2
REMARK    2  A    between atoms: C_2  and  C_3
REMARK    3  A    between atoms: C_7  and  O_8
REMARK    4  A    between atoms: O_8  and  C_9
REMARK    5  A    between atoms: C_9  and  C_10
REMARK    6  A    between atoms: C_10  and  C_11
REMARK                            x       y       z     vdW  Elec       q    Type
REMARK                         _______ _______ _______ _____ _____    ______ ____
ROOT
ATOM      1  C   UNL     1      46.868   6.795  13.021  0.00  0.00    +0.000 A 
ATOM      2  C   UNL     1      46.455   8.033  12.518  0.00  0.00    +0.000 A 
ATOM      3  C   UNL     1      45.270   8.105  11.813  0.00  0.00    +0.000 A 
ATOM      4  N   UNL     1      44.481   7.041  11.571  0.00  0.00    +0.000 NA
ATOM      5  C   UNL     1      44.885   5.849  12.056  0.00  0.00    +0.000 A 
ATOM      6  C   UNL     1      46.061   5.676  12.776  0.00  0.00    +0.000 A 
ENDROOT
BRANCH   1   7
ATOM      7  C   UNL     1      48.159   6.698  13.791  0.00  0.00    +0.000 C 
BRANCH   7   8
ATOM      8  N   UNL     1      49.026   7.839  13.516  0.00  0.00    +0.000 NA
ATOM      9  H   UNL     1      48.685   8.331  12.693  0.00  0.00    +0.000 HD
ATOM     10  H   UNL     1      49.958   7.499  13.283  0.00  0.00    +0.000 HD
ENDBRANCH   7   8
ENDBRANCH   1   7
BRANCH   5  11
ATOM     11  O   UNL     1      44.096   4.732  11.827  0.00  0.00    +0.000 OA
BRANCH  11  12
ATOM     12  C   UNL     1      43.915   4.491  10.421  0.00  0.00    +0.000 C 
BRANCH  12  13
ATOM     13  C   UNL     1      44.187   3.023  10.092  0.00  0.00    +0.000 C 
BRANCH  13  14
ATOM     14  C   UNL     1      45.201   2.874   8.978  0.00  0.00    +0.000 A 
ATOM     15  C   UNL     1      45.787   1.631   8.707  0.00  0.00    +0.000 A 
ATOM     16  C   UNL     1      46.734   1.497   7.687  0.00  0.00    +0.000 A 
ATOM     17  C   UNL     1      47.111   2.606   6.935  0.00  0.00    +0.000 A 
ATOM     18  C   UNL     1      46.546   3.852   7.207  0.00  0.00    +0.000 A 
ATOM     19  C   UNL     1      45.599   3.986   8.225  0.00  0.00    +0.000 A 
ENDBRANCH  13  14
ENDBRANCH  12  13
ENDBRANCH  11  12
ENDBRANCH   5  11
TORSDOF 6
ENDMDL
MODEL 6
REMARK VINA RESULT:    -5.700      3.851      7.739
REMARK INTER + INTRA:          -7.935
REMARK INTER:                  -7.590
REMARK INTRA:                  -0.345
REMARK UNBOUND:                -0.402
REMARK  Name = 
REMARK  6 active torsions:
REMARK  status: ('A' for Active; 'I' for Inactive)
REMARK    1  A    between atoms: N_1  and  C_2
REMARK    2  A    between atoms: C_2  and  C_3
REMARK    3  A    between atoms: C_7  and  O_8
REMARK    4  A    between atoms: O_8  and  C_9
REMARK    5  A    between atoms: C_9  and  C_10
REMARK    6  A    between atoms: C_10  and  C_11
REMARK                            x       y       z     vdW  Elec       q    Type
REMARK                         _______ _______ _______ _____ _____    ______ ____
ROOT
ATOM      1  C   UNL     1      45.986   5.938  12.667  0.00  0.00    +0.000 A 
ATOM      2  C   UNL     1      45.147   5.200  11.826  0.00  0.00    +0.000 A 
ATOM      3  C   UNL     1      45.097   3.828  11.973  0.00  0.00    +0.000 A 
ATOM      4  N   UNL     1      45.819   3.148  12.883  0.00  0.00    +0.000 NA
ATOM      5  C   UNL     1      46.629   3.864  13.689  0.00  0.00    +0.000 A 
ATOM      6  C   UNL     1      46.749   5.246  13.618  0.00  0.00    +0.000 A 
ENDROOT
BRANCH   1   7
ATOM      7  C   UNL     1      46.055   7.436  12.521  0.00  0.00    +0.000 C 
BRANCH   7   8
ATOM      8  N   UNL     1      44.721   8.022  12.457  0.00  0.00    +0.000 NA
ATOM      9  H   UNL     1      44.669   8.659  11.665  0.00  0.00    +0.000 HD
ATOM     10  H   UNL     1      44.567   8.587  13.292  0.00  0.00    +0.000 HD
ENDBRANCH   7   8
ENDBRANCH   1   7
BRANCH   5  11
ATOM     11  O   UNL     1      47.387   3.197  14.640  0.00  0.00    +0.000 OA
BRANCH  11  12
ATOM     12  C   UNL     1      47.404   3.904  15.892  0.00  0.00    +0.000 C 
BRANCH  12  13
ATOM     13  C   UNL     1      47.776   2.957  17.034  0.00  0.00    +0.000 C 
BRANCH  13  14
ATOM     14  C   UNL     1      49.258   2.999  17.339  0.00  0.00    +0.000 A 
ATOM     15  C   UNL     1      50.078   1.900  17.049  0.00  0.00    +0.000 A 
ATOM     16  C   UNL     1      51.445   1.935  17.344  0.00  0.00    +0.000 A 
ATOM     17  C   UNL     1      52.003   3.063  17.938  0.00  0.00    +0.000 A 
ATOM     18  C   UNL     1      51.193   4.157  18.245  0.00  0.00    +0.000 A 
ATOM     19  C   UNL     1      49.828   4.123  17.951  0.00  0.00    +0.000 A 
ENDBRANCH  13  14
ENDBRANCH  12  13
ENDBRANCH  11  12
ENDBRANCH   5  11
TORSDOF 6
ENDMDL
MODEL 7
REMARK VINA RESULT:    -5.561      3.050      5.305
REMARK INTER + INTRA:          -7.751
REMARK INTER:                  -7.393
REMARK INTRA:                  -0.358
REMARK UNBOUND:                -0.402
REMARK  Name = 
REMARK  6 active torsions:
REMARK  status: ('A' for Active; 'I' for Inactive)
REMARK    1  A    between atoms: N_1  and  C_2
REMARK    2  A    between atoms: C_2  and  C_3
REMARK    3  A    between atoms: C_7  and  O_8
REMARK    4  A    between atoms: O_8  and  C_9
REMARK    5  A    between atoms: C_9  and  C_10
REMARK    6  A    between atoms: C_10  and  C_11
REMARK                            x       y       z     vdW  Elec       q    Type
REMARK                         _______ _______ _______ _____ _____    ______ ____
ROOT
ATOM      1  C   UNL     1      48.279   4.669  17.384  0.00  0.00    +0.000 A 
ATOM      2  C   UNL     1      49.102   3.616  17.799  0.00  0.00    +0.000 A 
ATOM      3  C   UNL     1      49.247   2.518  16.974  0.00  0.00    +0.000 A 
ATOM      4  N   UNL     1      48.633   2.395  15.782  0.00  0.00    +0.000 NA
ATOM      5  C   UNL     1      47.839   3.411  15.388  0.00  0.00    +0.000 A 
ATOM      6  C   UNL     1      47.630   4.556  16.147  0.00  0.00    +0.000 A 
ENDROOT
BRANCH   1   7
ATOM      7  C   UNL     1      48.108   5.874  18.271  0.00  0.00    +0.000 C 
BRANCH   7   8
ATOM      8  N   UNL     1      46.723   6.013  18.711  0.00  0.00    +0.000 NA
ATOM      9  H   UNL     1      46.693   6.571  19.562  0.00  0.00    +0.000 HD
ATOM     10  H   UNL     1      46.359   5.093  18.956  0.00  0.00    +0.000 HD
ENDBRANCH   7   8
ENDBRANCH   1   7
BRANCH   5  11
ATOM     11  O   UNL     1      47.192   3.319  14.164  0.00  0.00    +0.000 OA
BRANCH  11  12
ATOM     12  C   UNL     1      46.787   4.612  13.683  0.00  0.00    +0.000 C 
BRANCH  12  13
ATOM     13  C   UNL     1      45.361   4.555  13.134  0.00  0.00    +0.000 C 
BRANCH  13  14
ATOM     14  C   UNL     1      45.343   4.415  11.628  0.00  0.00    +0.000 A 
ATOM     15  C   UNL     1      45.721   5.486  10.806  0.00  0.00    +0.000 A 
ATOM     16  C   UNL     1      45.691   5.360   9.413  0.00  0.00    +0.000 A 
ATOM     17  C   UNL     1      45.275   4.167   8.829  0.00  0.00    +0.000 A 
ATOM     18  C   UNL     1      44.881   3.100   9.637  0.00  0.00    +0.000 A 
ATOM     19  C   UNL     1      44.911   3.225  11.028  0.00  0.00    +0.000 A 
ENDBRANCH  13  14
ENDBRANCH  12  13
ENDBRANCH  11  12
ENDBRANCH   5  11
TORSDOF 6
ENDMDL
MODEL 8
REMARK VINA RESULT:    -5.448      3.634      7.502
REMARK INTER + INTRA:          -7.601
REMARK INTER:                  -7.263
REMARK INTRA:                  -0.338
REMARK UNBOUND:                -0.402
REMARK  Name = 
REMARK  6 active torsions:
REMARK  status: ('A' for Active; 'I' for Inactive)
REMARK    1  A    between atoms: N_1  and  C_2
REMARK    2  A    between atoms: C_2  and  C_3
REMARK    3  A    between atoms: C_7  and  O_8
REMARK    4  A    between atoms: O_8  and  C_9
REMARK    5  A    between atoms: C_9  and  C_10
REMARK    6  A    between atoms: C_10  and  C_11
REMARK                            x       y       z     vdW  Elec       q    Type
REMARK                         _______ _______ _______ _____ _____    ______ ____
ROOT
ATOM      1  C   UNL     1      44.932   4.162  11.778  0.00  0.00    +0.000 A 
ATOM      2  C   UNL     1      44.700   5.541  11.736  0.00  0.00    +0.000 A 
ATOM      3  C   UNL     1      45.431   6.366  12.568  0.00  0.00    +0.000 A 
ATOM      4  N   UNL     1      46.361   5.918  13.433  0.00  0.00    +0.000 NA
ATOM      5  C   UNL     1      46.578   4.587  13.472  0.00  0.00    +0.000 A 
ATOM      6  C   UNL     1      45.894   3.678  12.675  0.00  0.00    +0.000 A 
ENDROOT
BRANCH   1   7
ATOM      7  C   UNL     1      44.143   3.247  10.879  0.00  0.00    +0.000 C 
BRANCH   7   8
ATOM      8  N   UNL     1      42.858   2.899  11.476  0.00  0.00    +0.000 NA
ATOM      9  H   UNL     1      42.122   3.450  11.039  0.00  0.00    +0.000 HD
ATOM     10  H   UNL     1      42.868   3.162  12.461  0.00  0.00    +0.000 HD
ENDBRANCH   7   8
ENDBRANCH   1   7
BRANCH   5  11
ATOM     11  O   UNL     1      47.531   4.090  14.349  0.00  0.00    +0.000 OA
BRANCH  11  12
ATOM     12  C   UNL     1      47.409   4.687  15.652  0.00  0.00    +0.000 C 
BRANCH  12  13
ATOM     13  C   UNL     1      47.531   3.619  16.741  0.00  0.00    +0.000 C 
BRANCH  13  14
ATOM     14  C   UNL     1      48.976   3.317  17.074  0.00  0.00    +0.000 A 
ATOM     15  C   UNL     1      49.513   2.045  16.837  0.00  0.00    +0.000 A 
ATOM     16  C   UNL     1      50.845   1.763  17.158  0.00  0.00    +0.000 A 
ATOM     17  C   UNL     1      51.649   2.747  17.727  0.00  0.00    +0.000 A 
ATOM     18  C   UNL     1      51.120   4.012  17.982  0.00  0.00    +0.000 A 
ATOM     19  C   UNL     1      49.790   4.294  17.661  0.00  0.00    +0.000 A 
ENDBRANCH  13  14
ENDBRANCH  12  13
ENDBRANCH  11  12
ENDBRANCH   5  11
TORSDOF 6
ENDMDL
MODEL 9
REMARK VINA RESULT:    -5.354      3.024      6.558
REMARK INTER + INTRA:          -7.478
REMARK INTER:                  -6.894
REMARK INTRA:                  -0.584
REMARK UNBOUND:                -0.402
REMARK  Name = 
REMARK  6 active torsions:
REMARK  status: ('A' for Active; 'I' for Inactive)
REMARK    1  A    between atoms: N_1  and  C_2
REMARK    2  A    between atoms: C_2  and  C_3
REMARK    3  A    between atoms: C_7  and  O_8
REMARK    4  A    between atoms: O_8  and  C_9
REMARK    5  A    between atoms: C_9  and  C_10
REMARK    6  A    between atoms: C_10  and  C_11
REMARK                            x       y       z     vdW  Elec       q    Type
REMARK                         _______ _______ _______ _____ _____    ______ ____
ROOT
ATOM      1  C   UNL     1      44.433   4.164  10.413  0.00  0.00    +0.000 A 
ATOM      2  C   UNL     1      43.655   3.197  11.058  0.00  0.00    +0.000 A 
ATOM      3  C   UNL     1      43.590   3.205  12.438  0.00  0.00    +0.000 A 
ATOM      4  N   UNL     1      44.243   4.095  13.210  0.00  0.00    +0.000 NA
ATOM      5  C   UNL     1      44.993   5.023  12.582  0.00  0.00    +0.000 A 
ATOM      6  C   UNL     1      45.121   5.096  11.201  0.00  0.00    +0.000 A 
ENDROOT
BRANCH   1   7
ATOM      7  C   UNL     1      44.516   4.170   8.909  0.00  0.00    +0.000 C 
BRANCH   7   8
ATOM      8  N   UNL     1      45.604   5.024   8.444  0.00  0.00    +0.000 NA
ATOM      9  H   UNL     1      46.450   4.809   8.967  0.00  0.00    +0.000 HD
ATOM     10  H   UNL     1      45.374   5.996   8.652  0.00  0.00    +0.000 HD
ENDBRANCH   7   8
ENDBRANCH   1   7
BRANCH   5  11
ATOM     11  O   UNL     1      45.678   5.958  13.346  0.00  0.00    +0.000 OA
BRANCH  11  12
ATOM     12  C   UNL     1      46.368   6.911  12.519  0.00  0.00    +0.000 C 
BRANCH  12  13
ATOM     13  C   UNL     1      46.258   8.314  13.117  0.00  0.00    +0.000 C 
BRANCH  13  14
ATOM     14  C   UNL     1      45.621   9.289  12.151  0.00  0.00    +0.000 A 
ATOM     15  C   UNL     1      44.475   8.932  11.427  0.00  0.00    +0.000 A 
ATOM     16  C   UNL     1      43.895   9.829  10.524  0.00  0.00    +0.000 A 
ATOM     17  C   UNL     1      44.459  11.086  10.329  0.00  0.00    +0.000 A 
ATOM     18  C   UNL     1      45.609  11.447  11.033  0.00  0.00    +0.000 A 
ATOM     19  C   UNL     1      46.188  10.552  11.935  0.00  0.00    +0.000 A 
ENDBRANCH  13  14
ENDBRANCH  12  13
ENDBRANCH  11  12
ENDBRANCH   5  11
TORSDOF 6
ENDMDL
