MODEL 1
REMARK VINA RESULT:    -8.780      0.000      0.000
REMARK INTER + INTRA:         -13.252
REMARK INTER:                 -12.372
REMARK INTRA:                  -0.879
REMARK UNBOUND:                -0.879
REMARK  Name = 
REMARK  8 active torsions:
REMARK  status: ('A' for Active; 'I' for Inactive)
REMARK    1  A    between atoms: C_1  and  N_2
REMARK    2  A    between atoms: C_4  and  C_5
REMARK    3  A    between atoms: C_5  and  O_7
REMARK    4  A    between atoms: O_7  and  C_8
REMARK    5  A    between atoms: C_8  and  C_9
REMARK    6  A    between atoms: N_13  and  C_14
REMARK    7  A    between atoms: C_14  and  C_15
REMARK    8  A    between atoms: C_15  and  C_16
REMARK                            x       y       z     vdW  Elec       q    Type
REMARK                         _______ _______ _______ _____ _____    ______ ____
ROOT
ATOM      1  C   UNL     1      46.602   4.922  13.671  0.00  0.00    +0.000 A 
ATOM      2  C   UNL     1      46.533   6.162  13.040  0.00  0.00    +0.000 A 
ATOM      3  C   UNL     1      46.051   6.242  11.736  0.00  0.00    +0.000 A 
ATOM      4  C   UNL     1      45.603   5.090  11.096  0.00  0.00    +0.000 A 
ATOM      5  N   UNL     1      45.048   5.230   9.814  0.00  0.00    +0.000 N 
ATOM      6  N   UNL     1      45.681   3.883  11.686  0.00  0.00    +0.000 NA
ATOM      7  C   UNL     1      46.194   3.816  12.937  0.00  0.00    +0.000 A 
ATOM      8  H   UNL     1      45.767   5.571   9.180  0.00  0.00    +0.000 HD
ENDROOT
BRANCH   1   9
ATOM      9  C   UNL     1      47.089   4.788  15.083  0.00  0.00    +0.000 C 
BRANCH   9  10
ATOM     10  O   UNL     1      47.488   3.438  15.351  0.00  0.00    +0.000 OA
BRANCH  10  11
ATOM     11  C   UNL     1      47.615   3.148  16.682  0.00  0.00    +0.000 C 
ATOM     12  O   UNL     1      46.656   2.996  17.425  0.00  0.00    +0.000 OA
BRANCH  11  16
ATOM     13  C   UNL     1      52.172   1.280  17.454  0.00  0.00    +0.000 C 
ATOM     14  N   UNL     1      51.050   2.190  17.443  0.00  0.00    +0.000 N 
ATOM     15  C   UNL     1      49.799   1.918  16.964  0.00  0.00    +0.000 A 
ATOM     16  C   UNL     1      49.008   3.054  17.110  0.00  0.00    +0.000 A 
ATOM     17  C   UNL     1      49.840   4.055  17.736  0.00  0.00    +0.000 A 
ATOM     18  C   UNL     1      49.764   5.369  18.194  0.00  0.00    +0.000 A 
ATOM     19 CL   UNL     1      48.339   6.276  18.120  0.00  0.00    +0.000 Cl
ATOM     20  N   UNL     1      50.820   5.999  18.743  0.00  0.00    +0.000 NA
ATOM     21  C   UNL     1      51.959   5.307  18.839  0.00  0.00    +0.000 A 
ATOM     22  N   UNL     1      52.184   4.045  18.453  0.00  0.00    +0.000 NA
ATOM     23  C   UNL     1      51.095   3.473  17.914  0.00  0.00    +0.000 A 
ENDBRANCH  11  16
ENDBRANCH  10  11
ENDBRANCH   9  10
ENDBRANCH   1   9
BRANCH   5  24
ATOM     24  C   UNL     1      44.344   4.050   9.314  0.00  0.00    +0.000 C 
BRANCH  24  25
ATOM     25  C   UNL     1      44.641   3.839   7.822  0.00  0.00    +0.000 C 
BRANCH  25  26
ATOM     26  C   UNL     1      45.803   2.922   7.497  0.00  0.00    +0.000 A 
ATOM     27  C   UNL     1      45.979   1.676   8.108  0.00  0.00    +0.000 A 
ATOM     28  C   UNL     1      47.055   0.888   7.730  0.00  0.00    +0.000 A 
ATOM     29  N   UNL     1      47.952   1.241   6.787  0.00  0.00    +0.000 NA
ATOM     30  C   UNL     1      47.756   2.434   6.189  0.00  0.00    +0.000 A 
ATOM     31  C   UNL     1      46.713   3.294   6.501  0.00  0.00    +0.000 A 
ENDBRANCH  25  26
ENDBRANCH  24  25
ENDBRANCH   5  24
TORSDOF 7
ENDMDL
MODEL 2
REMARK VINA RESULT:    -8.428      2.389      3.295
REMARK INTER + INTRA:         -12.756
REMARK INTER:                 -11.724
REMARK INTRA:                  -1.032
REMARK UNBOUND:                -0.879
REMARK  Name = 
REMARK  8 active torsions:
REMARK  status: ('A' for Active; 'I' for Inactive)
REMARK    1  A    between atoms: C_1  and  N_2
REMARK    2  A    between atoms: C_4  and  C_5
REMARK    3  A    between atoms: C_5  and  O_7
REMARK    4  A    between atoms: O_7  and  C_8
REMARK    5  A    between atoms: C_8  and  C_9
REMARK    6  A    between atoms: N_13  and  C_14
REMARK    7  A    between atoms: C_14  and  C_15
REMARK    8  A    between atoms: C_15  and  C_16
REMARK                            x       y       z     vdW  Elec       q    Type
REMARK                         _______ _______ _______ _____ _____    ______ ____
ROOT
ATOM      1  C   UNL     1      46.566   7.636  12.452  0.00  0.00    +0.000 A 
ATOM      2  C   UNL     1      45.192   7.867  12.463  0.00  0.00    +0.000 A 
ATOM      3  C   UNL     1      44.351   7.045  11.717  0.00  0.00    +0.000 A 
ATOM      4  C   UNL     1      44.888   5.975  11.006  0.00  0.00    +0.000 A 
ATOM      5  N   UNL     1      43.996   5.123  10.336  0.00  0.00    +0.000 N 
ATOM      6  N   UNL     1      46.215   5.750  10.971  0.00  0.00    +0.000 NA
ATOM      7  C   UNL     1      47.023   6.586  11.665  0.00  0.00    +0.000 A 
ATOM      8  H   UNL     1      43.517   5.653   9.612  0.00  0.00    +0.000 HD
ENDROOT
BRANCH   1   9
ATOM      9  C   UNL     1      47.509   8.477  13.259  0.00  0.00    +0.000 C 
BRANCH   9  10
ATOM     10  O   UNL     1      47.755   7.873  14.535  0.00  0.00    +0.000 OA
BRANCH  10  11
ATOM     11  C   UNL     1      48.975   7.265  14.638  0.00  0.00    +0.000 C 
ATOM     12  O   UNL     1      49.834   7.344  13.771  0.00  0.00    +0.000 OA
BRANCH  11  16
ATOM     13  C   UNL     1      50.634   5.927  19.144  0.00  0.00    +0.000 C 
ATOM     14  N   UNL     1      49.891   5.931  17.905  0.00  0.00    +0.000 N 
ATOM     15  C   UNL     1      50.038   6.826  16.883  0.00  0.00    +0.000 A 
ATOM     16  C   UNL     1      49.128   6.509  15.877  0.00  0.00    +0.000 A 
ATOM     17  C   UNL     1      48.412   5.338  16.327  0.00  0.00    +0.000 A 
ATOM     18  C   UNL     1      47.413   4.468  15.894  0.00  0.00    +0.000 A 
ATOM     19 CL   UNL     1      46.671   4.619  14.382  0.00  0.00    +0.000 Cl
ATOM     20  N   UNL     1      46.986   3.436  16.646  0.00  0.00    +0.000 NA
ATOM     21  C   UNL     1      47.564   3.271  17.839  0.00  0.00    +0.000 A 
ATOM     22  N   UNL     1      48.534   4.014  18.387  0.00  0.00    +0.000 NA
ATOM     23  C   UNL     1      48.916   5.025  17.590  0.00  0.00    +0.000 A 
ENDBRANCH  11  16
ENDBRANCH  10  11
ENDBRANCH   9  10
ENDBRANCH   1   9
BRANCH   5  24
ATOM     24  C   UNL     1      44.582   3.874   9.853  0.00  0.00    +0.000 C 
BRANCH  24  25
ATOM     25  C   UNL     1      44.780   3.928   8.330  0.00  0.00    +0.000 C 
BRANCH  25  26
ATOM     26  C   UNL     1      45.830   2.995   7.761  0.00  0.00    +0.000 A 
ATOM     27  C   UNL     1      46.028   1.696   8.239  0.00  0.00    +0.000 A 
ATOM     28  C   UNL     1      46.992   0.899   7.641  0.00  0.00    +0.000 A 
ATOM     29  N   UNL     1      47.755   1.294   6.603  0.00  0.00    +0.000 NA
ATOM     30  C   UNL     1      47.537   2.540   6.136  0.00  0.00    +0.000 A 
ATOM     31  C   UNL     1      46.600   3.412   6.669  0.00  0.00    +0.000 A 
ENDBRANCH  25  26
ENDBRANCH  24  25
ENDBRANCH   5  24
TORSDOF 7
ENDMDL
MODEL 3
REMARK VINA RESULT:    -8.352      1.496      2.628
REMARK INTER + INTRA:         -12.650
REMARK INTER:                 -11.912
REMARK INTRA:                  -0.738
REMARK UNBOUND:                -0.879
REMARK  Name = 
REMARK  8 active torsions:
REMARK  status: ('A' for Active; 'I' for Inactive)
REMARK    1  A    between atoms: C_1  and  N_2
REMARK    2  A    between atoms: C_4  and  C_5
REMARK    3  A    between atoms: C_5  and  O_7
REMARK    4  A    between atoms: O_7  and  C_8
REMARK    5  A    between atoms: C_8  and  C_9
REMARK    6  A    between atoms: N_13  and  C_14
REMARK    7  A    between atoms: C_14  and  C_15
REMARK    8  A    between atoms: C_15  and  C_16
REMARK                            x       y       z     vdW  Elec       q    Type
REMARK                         _______ _______ _______ _____ _____    ______ ____
ROOT
ATOM      1  C   UNL     1      47.227   5.726  13.891  0.00  0.00    +0.000 A 
ATOM      2  C   UNL     1      46.363   4.648  14.073  0.00  0.00    +0.000 A 
ATOM      3  C   UNL     1      45.567   4.220  13.013  0.00  0.00    +0.000 A 
ATOM      4  C   UNL     1      45.676   4.844  11.774  0.00  0.00    +0.000 A 
ATOM      5  N   UNL     1      44.916   4.326  10.713  0.00  0.00    +0.000 N 
ATOM      6  N   UNL     1      46.492   5.899  11.588  0.00  0.00    +0.000 NA
ATOM      7  C   UNL     1      47.226   6.331  12.641  0.00  0.00    +0.000 A 
ATOM      8  H   UNL     1      43.929   4.438  10.932  0.00  0.00    +0.000 HD
ENDROOT
BRANCH   1   9
ATOM      9  C   UNL     1      48.123   6.207  14.993  0.00  0.00    +0.000 C 
BRANCH   9  10
ATOM     10  O   UNL     1      48.617   5.101  15.758  0.00  0.00    +0.000 OA
BRANCH  10  11
ATOM     11  C   UNL     1      48.943   5.417  17.048  0.00  0.00    +0.000 C 
ATOM     12  O   UNL     1      48.213   6.071  17.779  0.00  0.00    +0.000 OA
BRANCH  11  16
ATOM     13  C   UNL     1      53.623   5.315  18.763  0.00  0.00    +0.000 C 
ATOM     14  N   UNL     1      52.354   4.886  18.221  0.00  0.00    +0.000 N 
ATOM     15  C   UNL     1      51.293   5.693  17.922  0.00  0.00    +0.000 A 
ATOM     16  C   UNL     1      50.251   4.903  17.443  0.00  0.00    +0.000 A 
ATOM     17  C   UNL     1      50.737   3.543  17.439  0.00  0.00    +0.000 A 
ATOM     18  C   UNL     1      50.311   2.260  17.101  0.00  0.00    +0.000 A 
ATOM     19 CL   UNL     1      48.782   1.955  16.446  0.00  0.00    +0.000 Cl
ATOM     20  N   UNL     1      51.097   1.178  17.258  0.00  0.00    +0.000 NA
ATOM     21  C   UNL     1      52.321   1.382  17.754  0.00  0.00    +0.000 A 
ATOM     22  N   UNL     1      52.872   2.547  18.117  0.00  0.00    +0.000 NA
ATOM     23  C   UNL     1      52.040   3.586  17.936  0.00  0.00    +0.000 A 
ENDBRANCH  11  16
ENDBRANCH  10  11
ENDBRANCH   9  10
ENDBRANCH   1   9
BRANCH   5  24
ATOM     24  C   UNL     1      45.281   4.832   9.390  0.00  0.00    +0.000 C 
BRANCH  24  25
ATOM     25  C   UNL     1      44.778   3.879   8.295  0.00  0.00    +0.000 C 
BRANCH  25  26
ATOM     26  C   UNL     1      45.822   2.979   7.664  0.00  0.00    +0.000 A 
ATOM     27  C   UNL     1      46.623   3.385   6.592  0.00  0.00    +0.000 A 
ATOM     28  C   UNL     1      47.574   2.507   6.094  0.00  0.00    +0.000 A 
ATOM     29  N   UNL     1      47.792   1.273   6.590  0.00  0.00    +0.000 NA
ATOM     30  C   UNL     1      47.029   0.905   7.640  0.00  0.00    +0.000 A 
ATOM     31  C   UNL     1      46.051   1.709   8.204  0.00  0.00    +0.000 A 
ENDBRANCH  25  26
ENDBRANCH  24  25
ENDBRANCH   5  24
TORSDOF 7
ENDMDL
MODEL 4
REMARK VINA RESULT:    -7.823      2.365      3.245
REMARK INTER + INTRA:         -11.904
REMARK INTER:                 -11.088
REMARK INTRA:                  -0.816
REMARK UNBOUND:                -0.879
REMARK  Name = 
REMARK  8 active torsions:
REMARK  status: ('A' for Active; 'I' for Inactive)
REMARK    1  A    between atoms: C_1  and  N_2
REMARK    2  A    between atoms: C_4  and  C_5
REMARK    3  A    between atoms: C_5  and  O_7
REMARK    4  A    between atoms: O_7  and  C_8
REMARK    5  A    between atoms: C_8  and  C_9
REMARK    6  A    between atoms: N_13  and  C_14
REMARK    7  A    between atoms: C_14  and  C_15
REMARK    8  A    between atoms: C_15  and  C_16
REMARK                            x       y       z     vdW  Elec       q    Type
REMARK                         _______ _______ _______ _____ _____    ______ ____
ROOT
ATOM      1  C   UNL     1      46.745   4.593  14.067  0.00  0.00    +0.000 A 
ATOM      2  C   UNL     1      46.601   5.884  13.566  0.00  0.00    +0.000 A 
ATOM      3  C   UNL     1      46.063   6.072  12.295  0.00  0.00    +0.000 A 
ATOM      4  C   UNL     1      45.636   4.970  11.560  0.00  0.00    +0.000 A 
ATOM      5  N   UNL     1      45.024   5.210  10.319  0.00  0.00    +0.000 N 
ATOM      6  N   UNL     1      45.786   3.714  12.023  0.00  0.00    +0.000 NA
ATOM      7  C   UNL     1      46.352   3.548  13.242  0.00  0.00    +0.000 A 
ATOM      8  H   UNL     1      45.702   5.643   9.697  0.00  0.00    +0.000 HD
ENDROOT
BRANCH   1   9
ATOM      9  C   UNL     1      47.294   4.342  15.440  0.00  0.00    +0.000 C 
BRANCH   9  10
ATOM     10  O   UNL     1      48.307   5.304  15.760  0.00  0.00    +0.000 OA
BRANCH  10  11
ATOM     11  C   UNL     1      48.991   5.030  16.912  0.00  0.00    +0.000 C 
ATOM     12  O   UNL     1      49.923   4.241  16.963  0.00  0.00    +0.000 OA
BRANCH  11  16
ATOM     13  C   UNL     1      47.273   5.977  21.495  0.00  0.00    +0.000 C 
ATOM     14  N   UNL     1      47.711   6.167  20.132  0.00  0.00    +0.000 N 
ATOM     15  C   UNL     1      48.116   5.184  19.273  0.00  0.00    +0.000 A 
ATOM     16  C   UNL     1      48.479   5.769  18.063  0.00  0.00    +0.000 A 
ATOM     17  C   UNL     1      48.253   7.188  18.210  0.00  0.00    +0.000 A 
ATOM     18  C   UNL     1      48.359   8.366  17.473  0.00  0.00    +0.000 A 
ATOM     19 CL   UNL     1      48.870   8.386  15.861  0.00  0.00    +0.000 Cl
ATOM     20  N   UNL     1      48.042   9.568  17.992  0.00  0.00    +0.000 NA
ATOM     21  C   UNL     1      47.612   9.591  19.257  0.00  0.00    +0.000 A 
ATOM     22  N   UNL     1      47.453   8.550  20.085  0.00  0.00    +0.000 NA
ATOM     23  C   UNL     1      47.785   7.383  19.510  0.00  0.00    +0.000 A 
ENDBRANCH  11  16
ENDBRANCH  10  11
ENDBRANCH   9  10
ENDBRANCH   1   9
BRANCH   5  24
ATOM     24  C   UNL     1      44.348   4.055   9.731  0.00  0.00    +0.000 C 
BRANCH  24  25
ATOM     25  C   UNL     1      44.651   3.964   8.227  0.00  0.00    +0.000 C 
BRANCH  25  26
ATOM     26  C   UNL     1      45.755   3.006   7.826  0.00  0.00    +0.000 A 
ATOM     27  C   UNL     1      45.781   1.668   8.233  0.00  0.00    +0.000 A 
ATOM     28  C   UNL     1      46.814   0.853   7.796  0.00  0.00    +0.000 A 
ATOM     29  N   UNL     1      47.805   1.267   6.981  0.00  0.00    +0.000 NA
ATOM     30  C   UNL     1      47.753   2.553   6.577  0.00  0.00    +0.000 A 
ATOM     31  C   UNL     1      46.764   3.445   6.963  0.00  0.00    +0.000 A 
ENDBRANCH  25  26
ENDBRANCH  24  25
ENDBRANCH   5  24
TORSDOF 7
ENDMDL
MODEL 5
REMARK VINA RESULT:    -7.802      2.367      3.250
REMARK INTER + INTRA:         -11.874
REMARK INTER:                 -10.736
REMARK INTRA:                  -1.138
REMARK UNBOUND:                -0.879
REMARK  Name = 
REMARK  8 active torsions:
REMARK  status: ('A' for Active; 'I' for Inactive)
REMARK    1  A    between atoms: C_1  and  N_2
REMARK    2  A    between atoms: C_4  and  C_5
REMARK    3  A    between atoms: C_5  and  O_7
REMARK    4  A    between atoms: O_7  and  C_8
REMARK    5  A    between atoms: C_8  and  C_9
REMARK    6  A    between atoms: N_13  and  C_14
REMARK    7  A    between atoms: C_14  and  C_15
REMARK    8  A    between atoms: C_15  and  C_16
REMARK                            x       y       z     vdW  Elec       q    Type
REMARK                         _______ _______ _______ _____ _____    ______ ____
ROOT
ATOM      1  C   UNL     1      46.949   5.931  13.294  0.00  0.00    +0.000 A 
ATOM      2  C   UNL     1      47.010   4.643  13.821  0.00  0.00    +0.000 A 
ATOM      3  C   UNL     1      46.224   3.636  13.266  0.00  0.00    +0.000 A 
ATOM      4  C   UNL     1      45.421   3.919  12.164  0.00  0.00    +0.000 A 
ATOM      5  N   UNL     1      44.710   2.856  11.585  0.00  0.00    +0.000 N 
ATOM      6  N   UNL     1      45.338   5.163  11.656  0.00  0.00    +0.000 NA
ATOM      7  C   UNL     1      46.074   6.140  12.236  0.00  0.00    +0.000 A 
ATOM      8  H   UNL     1      44.039   2.502  12.263  0.00  0.00    +0.000 HD
ENDROOT
BRANCH   1   9
ATOM      9  C   UNL     1      47.796   7.042  13.841  0.00  0.00    +0.000 C 
BRANCH   9  10
ATOM     10  O   UNL     1      49.115   6.569  14.139  0.00  0.00    +0.000 OA
BRANCH  10  11
ATOM     11  C   UNL     1      49.667   7.125  15.259  0.00  0.00    +0.000 C 
ATOM     12  O   UNL     1      50.491   8.028  15.219  0.00  0.00    +0.000 OA
BRANCH  11  16
ATOM     13  C   UNL     1      48.617   3.666  18.691  0.00  0.00    +0.000 C 
ATOM     14  N   UNL     1      48.718   4.941  18.021  0.00  0.00    +0.000 N 
ATOM     15  C   UNL     1      49.236   5.155  16.774  0.00  0.00    +0.000 A 
ATOM     16  C   UNL     1      49.177   6.517  16.493  0.00  0.00    +0.000 A 
ATOM     17  C   UNL     1      48.564   7.146  17.640  0.00  0.00    +0.000 A 
ATOM     18  C   UNL     1      48.172   8.409  18.081  0.00  0.00    +0.000 A 
ATOM     19 CL   UNL     1      48.348   9.796  17.131  0.00  0.00    +0.000 Cl
ATOM     20  N   UNL     1      47.608   8.604  19.288  0.00  0.00    +0.000 NA
ATOM     21  C   UNL     1      47.433   7.527  20.059  0.00  0.00    +0.000 A 
ATOM     22  N   UNL     1      47.750   6.257  19.775  0.00  0.00    +0.000 NA
ATOM     23  C   UNL     1      48.306   6.129  18.559  0.00  0.00    +0.000 A 
ENDBRANCH  11  16
ENDBRANCH  10  11
ENDBRANCH   9  10
ENDBRANCH   1   9
BRANCH   5  24
ATOM     24  C   UNL     1      44.119   3.148  10.279  0.00  0.00    +0.000 C 
BRANCH  24  25
ATOM     25  C   UNL     1      44.419   2.013   9.288  0.00  0.00    +0.000 C 
BRANCH  25  26
ATOM     26  C   UNL     1      45.617   2.219   8.383  0.00  0.00    +0.000 A 
ATOM     27  C   UNL     1      46.445   1.169   7.971  0.00  0.00    +0.000 A 
ATOM     28  C   UNL     1      47.503   1.443   7.118  0.00  0.00    +0.000 A 
ATOM     29  N   UNL     1      47.785   2.671   6.639  0.00  0.00    +0.000 NA
ATOM     30  C   UNL     1      46.964   3.669   7.024  0.00  0.00    +0.000 A 
ATOM     31  C   UNL     1      45.883   3.496   7.876  0.00  0.00    +0.000 A 
ENDBRANCH  25  26
ENDBRANCH  24  25
ENDBRANCH   5  24
TORSDOF 7
ENDMDL
MODEL 6
REMARK VINA RESULT:    -7.739      2.076      2.750
REMARK INTER + INTRA:         -11.786
REMARK INTER:                 -10.805
REMARK INTRA:                  -0.981
REMARK UNBOUND:                -0.879
REMARK  Name = 
REMARK  8 active torsions:
REMARK  status: ('A' for Active; 'I' for Inactive)
REMARK    1  A    between atoms: C_1  and  N_2
REMARK    2  A    between atoms: C_4  and  C_5
REMARK    3  A    between atoms: C_5  and  O_7
REMARK    4  A    between atoms: O_7  and  C_8
REMARK    5  A    between atoms: C_8  and  C_9
REMARK    6  A    between atoms: N_13  and  C_14
REMARK    7  A    between atoms: C_14  and  C_15
REMARK    8  A    between atoms: C_15  and  C_16
REMARK                            x       y       z     vdW  Elec       q    Type
REMARK                         _______ _______ _______ _____ _____    ______ ____
ROOT
ATOM      1  C   UNL     1      47.224   6.094  12.822  0.00  0.00    +0.000 A 
ATOM      2  C   UNL     1      47.137   4.917  13.561  0.00  0.00    +0.000 A 
ATOM      3  C   UNL     1      46.231   3.930  13.177  0.00  0.00    +0.000 A 
ATOM      4  C   UNL     1      45.458   4.113  12.035  0.00  0.00    +0.000 A 
ATOM      5  N   UNL     1      44.620   3.058  11.638  0.00  0.00    +0.000 N 
ATOM      6  N   UNL     1      45.517   5.253  11.321  0.00  0.00    +0.000 NA
ATOM      7  C   UNL     1      46.370   6.221  11.734  0.00  0.00    +0.000 A 
ATOM      8  H   UNL     1      43.919   2.907  12.359  0.00  0.00    +0.000 HD
ENDROOT
BRANCH   1   9
ATOM      9  C   UNL     1      48.201   7.174  13.180  0.00  0.00    +0.000 C 
BRANCH   9  10
ATOM     10  O   UNL     1      49.168   6.686  14.117  0.00  0.00    +0.000 OA
BRANCH  10  11
ATOM     11  C   UNL     1      48.956   7.099  15.403  0.00  0.00    +0.000 C 
ATOM     12  O   UNL     1      48.524   8.207  15.684  0.00  0.00    +0.000 OA
BRANCH  11  16
ATOM     13  C   UNL     1      48.484   3.409  18.721  0.00  0.00    +0.000 C 
ATOM     14  N   UNL     1      49.072   4.422  17.875  0.00  0.00    +0.000 N 
ATOM     15  C   UNL     1      48.394   5.274  17.051  0.00  0.00    +0.000 A 
ATOM     16  C   UNL     1      49.314   6.083  16.389  0.00  0.00    +0.000 A 
ATOM     17  C   UNL     1      50.619   5.698  16.872  0.00  0.00    +0.000 A 
ATOM     18  C   UNL     1      51.960   6.039  16.704  0.00  0.00    +0.000 A 
ATOM     19 CL   UNL     1      52.459   7.287  15.679  0.00  0.00    +0.000 Cl
ATOM     20  N   UNL     1      52.948   5.406  17.365  0.00  0.00    +0.000 NA
ATOM     21  C   UNL     1      52.593   4.427  18.201  0.00  0.00    +0.000 A 
ATOM     22  N   UNL     1      51.355   3.992  18.471  0.00  0.00    +0.000 NA
ATOM     23  C   UNL     1      50.416   4.662  17.783  0.00  0.00    +0.000 A 
ENDBRANCH  11  16
ENDBRANCH  10  11
ENDBRANCH   9  10
ENDBRANCH   1   9
BRANCH   5  24
ATOM     24  C   UNL     1      44.055   3.191  10.296  0.00  0.00    +0.000 C 
BRANCH  24  25
ATOM     25  C   UNL     1      44.454   1.990   9.425  0.00  0.00    +0.000 C 
BRANCH  25  26
ATOM     26  C   UNL     1      45.614   2.210   8.476  0.00  0.00    +0.000 A 
ATOM     27  C   UNL     1      46.418   1.166   8.005  0.00  0.00    +0.000 A 
ATOM     28  C   UNL     1      47.442   1.455   7.116  0.00  0.00    +0.000 A 
ATOM     29  N   UNL     1      47.711   2.692   6.655  0.00  0.00    +0.000 NA
ATOM     30  C   UNL     1      46.914   3.685   7.098  0.00  0.00    +0.000 A 
ATOM     31  C   UNL     1      45.868   3.498   7.989  0.00  0.00    +0.000 A 
ENDBRANCH  25  26
ENDBRANCH  24  25
ENDBRANCH   5  24
TORSDOF 7
ENDMDL
MODEL 7
REMARK VINA RESULT:    -7.541      2.629      4.017
REMARK INTER + INTRA:         -11.507
REMARK INTER:                 -10.416
REMARK INTRA:                  -1.091
REMARK UNBOUND:                -0.879
REMARK  Name = 
REMARK  8 active torsions:
REMARK  status: ('A' for Active; 'I' for Inactive)
REMARK    1  A    between atoms: C_1  and  N_2
REMARK    2  A    between atoms: C_4  and  C_5
REMARK    3  A    between atoms: C_5  and  O_7
REMARK    4  A    between atoms: O_7  and  C_8
REMARK    5  A    between atoms: C_8  and  C_9
REMARK    6  A    between atoms: N_13  and  C_14
REMARK    7  A    between atoms: C_14  and  C_15
REMARK    8  A    between atoms: C_15  and  C_16
REMARK                            x       y       z     vdW  Elec       q    Type
REMARK                         _______ _______ _______ _____ _____    ______ ____
ROOT
ATOM      1  C   UNL     1      47.184   6.168  13.293  0.00  0.00    +0.000 A 
ATOM      2  C   UNL     1      46.967   4.939  13.913  0.00  0.00    +0.000 A 
ATOM      3  C   UNL     1      46.068   4.036  13.351  0.00  0.00    +0.000 A 
ATOM      4  C   UNL     1      45.432   4.352  12.155  0.00  0.00    +0.000 A 
ATOM      5  N   UNL     1      44.598   3.378  11.581  0.00  0.00    +0.000 N 
ATOM      6  N   UNL     1      45.617   5.543  11.553  0.00  0.00    +0.000 NA
ATOM      7  C   UNL     1      46.460   6.427  12.136  0.00  0.00    +0.000 A 
ATOM      8  H   UNL     1      43.817   3.205  12.209  0.00  0.00    +0.000 HD
ENDROOT
BRANCH   1   9
ATOM      9  C   UNL     1      48.161   7.163  13.845  0.00  0.00    +0.000 C 
BRANCH   9  10
ATOM     10  O   UNL     1      49.231   6.493  14.523  0.00  0.00    +0.000 OA
BRANCH  10  11
ATOM     11  C   UNL     1      49.977   7.308  15.329  0.00  0.00    +0.000 C 
ATOM     12  O   UNL     1      51.132   7.620  15.076  0.00  0.00    +0.000 OA
BRANCH  11  16
ATOM     13  C   UNL     1      47.716  10.311  18.603  0.00  0.00    +0.000 C 
ATOM     14  N   UNL     1      48.237   9.121  17.971  0.00  0.00    +0.000 N 
ATOM     15  C   UNL     1      48.947   9.076  16.804  0.00  0.00    +0.000 A 
ATOM     16  C   UNL     1      49.250   7.748  16.516  0.00  0.00    +0.000 A 
ATOM     17  C   UNL     1      48.702   6.960  17.595  0.00  0.00    +0.000 A 
ATOM     18  C   UNL     1      48.615   5.631  18.007  0.00  0.00    +0.000 A 
ATOM     19 CL   UNL     1      49.321   4.364  17.138  0.00  0.00    +0.000 Cl
ATOM     20  N   UNL     1      47.977   5.271  19.136  0.00  0.00    +0.000 NA
ATOM     21  C   UNL     1      47.424   6.247  19.862  0.00  0.00    +0.000 A 
ATOM     22  N   UNL     1      47.429   7.561  19.602  0.00  0.00    +0.000 NA
ATOM     23  C   UNL     1      48.080   7.856  18.465  0.00  0.00    +0.000 A 
ENDBRANCH  11  16
ENDBRANCH  10  11
ENDBRANCH   9  10
ENDBRANCH   1   9
BRANCH   5  24
ATOM     24  C   UNL     1      44.190   3.650  10.204  0.00  0.00    +0.000 C 
BRANCH  24  25
ATOM     25  C   UNL     1      44.396   2.406   9.327  0.00  0.00    +0.000 C 
BRANCH  25  26
ATOM     26  C   UNL     1      45.605   2.427   8.413  0.00  0.00    +0.000 A 
ATOM     27  C   UNL     1      46.323   1.274   8.079  0.00  0.00    +0.000 A 
ATOM     28  C   UNL     1      47.400   1.381   7.212  0.00  0.00    +0.000 A 
ATOM     29  N   UNL     1      47.801   2.537   6.649  0.00  0.00    +0.000 NA
ATOM     30  C   UNL     1      47.084   3.637   6.961  0.00  0.00    +0.000 A 
ATOM     31  C   UNL     1      45.995   3.633   7.820  0.00  0.00    +0.000 A 
ENDBRANCH  25  26
ENDBRANCH  24  25
ENDBRANCH   5  24
TORSDOF 7
ENDMDL
MODEL 8
REMARK VINA RESULT:    -7.454      2.151      3.104
REMARK INTER + INTRA:         -11.384
REMARK INTER:                 -10.413
REMARK INTRA:                  -0.972
REMARK UNBOUND:                -0.879
REMARK  Name = 
REMARK  8 active torsions:
REMARK  status: ('A' for Active; 'I' for Inactive)
REMARK    1  A    between atoms: C_1  and  N_2
REMARK    2  A    between atoms: C_4  and  C_5
REMARK    3  A    between atoms: C_5  and  O_7
REMARK    4  A    between atoms: O_7  and  C_8
REMARK    5  A    between atoms: C_8  and  C_9
REMARK    6  A    between atoms: N_13  and  C_14
REMARK    7  A    between atoms: C_14  and  C_15
REMARK    8  A    between atoms: C_15  and  C_16
REMARK                            x       y       z     vdW  Elec       q    Type
REMARK                         _______ _______ _______ _____ _____    ______ ____
ROOT
ATOM      1  C   UNL     1      46.942   5.907  13.282  0.00  0.00    +0.000 A 
ATOM      2  C   UNL     1      47.061   4.610  13.775  0.00  0.00    +0.000 A 
ATOM      3  C   UNL     1      46.305   3.587  13.206  0.00  0.00    +0.000 A 
ATOM      4  C   UNL     1      45.476   3.866  12.124  0.00  0.00    +0.000 A 
ATOM      5  N   UNL     1      44.797   2.790  11.528  0.00  0.00    +0.000 N 
ATOM      6  N   UNL     1      45.336   5.118  11.648  0.00  0.00    +0.000 NA
ATOM      7  C   UNL     1      46.043   6.108  12.243  0.00  0.00    +0.000 A 
ATOM      8  H   UNL     1      44.151   2.394  12.206  0.00  0.00    +0.000 HD
ENDROOT
BRANCH   1   9
ATOM      9  C   UNL     1      47.753   7.036  13.845  0.00  0.00    +0.000 C 
BRANCH   9  10
ATOM     10  O   UNL     1      49.016   6.558  14.323  0.00  0.00    +0.000 OA
BRANCH  10  11
ATOM     11  C   UNL     1      49.716   7.474  15.060  0.00  0.00    +0.000 C 
ATOM     12  O   UNL     1      49.426   8.661  15.097  0.00  0.00    +0.000 OA
BRANCH  11  16
ATOM     13  C   UNL     1      54.385   6.624  16.584  0.00  0.00    +0.000 C 
ATOM     14  N   UNL     1      52.951   6.522  16.446  0.00  0.00    +0.000 N 
ATOM     15  C   UNL     1      52.171   7.256  15.599  0.00  0.00    +0.000 A 
ATOM     16  C   UNL     1      50.841   6.881  15.777  0.00  0.00    +0.000 A 
ATOM     17  C   UNL     1      50.840   5.842  16.780  0.00  0.00    +0.000 A 
ATOM     18  C   UNL     1      49.947   5.005  17.446  0.00  0.00    +0.000 A 
ATOM     19 CL   UNL     1      48.286   5.010  17.125  0.00  0.00    +0.000 Cl
ATOM     20  N   UNL     1      50.351   4.120  18.377  0.00  0.00    +0.000 NA
ATOM     21  C   UNL     1      51.660   4.071  18.643  0.00  0.00    +0.000 A 
ATOM     22  N   UNL     1      52.635   4.801  18.086  0.00  0.00    +0.000 NA
ATOM     23  C   UNL     1      52.168   5.662  17.167  0.00  0.00    +0.000 A 
ENDBRANCH  11  16
ENDBRANCH  10  11
ENDBRANCH   9  10
ENDBRANCH   1   9
BRANCH   5  24
ATOM     24  C   UNL     1      44.175   3.092  10.239  0.00  0.00    +0.000 C 
BRANCH  24  25
ATOM     25  C   UNL     1      44.478   1.980   9.223  0.00  0.00    +0.000 C 
BRANCH  25  26
ATOM     26  C   UNL     1      45.646   2.229   8.291  0.00  0.00    +0.000 A 
ATOM     27  C   UNL     1      45.973   3.501   7.810  0.00  0.00    +0.000 A 
ATOM     28  C   UNL     1      47.078   3.643   6.983  0.00  0.00    +0.000 A 
ATOM     29  N   UNL     1      47.879   2.623   6.617  0.00  0.00    +0.000 NA
ATOM     30  C   UNL     1      47.566   1.407   7.108  0.00  0.00    +0.000 A 
ATOM     31  C   UNL     1      46.482   1.163   7.937  0.00  0.00    +0.000 A 
ENDBRANCH  25  26
ENDBRANCH  24  25
ENDBRANCH   5  24
TORSDOF 7
ENDMDL
MODEL 9
REMARK VINA RESULT:    -7.310      1.773      2.129
REMARK INTER + INTRA:         -11.180
REMARK INTER:                 -10.277
REMARK INTRA:                  -0.903
REMARK UNBOUND:                -0.879
REMARK  Name = 
REMARK  8 active torsions:
REMARK  status: ('A' for Active; 'I' for Inactive)
REMARK    1  A    between atoms: C_1  and  N_2
REMARK    2  A    between atoms: C_4  and  C_5
REMARK    3  A    between atoms: C_5  and  O_7
REMARK    4  A    between atoms: O_7  and  C_8
REMARK    5  A    between atoms: C_8  and  C_9
REMARK    6  A    between atoms: N_13  and  C_14
REMARK    7  A    between atoms: C_14  and  C_15
REMARK    8  A    between atoms: C_15  and  C_16
REMARK                            x       y       z     vdW  Elec       q    Type
REMARK                         _______ _______ _______ _____ _____    ______ ____
ROOT
ATOM      1  C   UNL     1      47.260   5.523  13.938  0.00  0.00    +0.000 A 
ATOM      2  C   UNL     1      46.593   4.305  14.049  0.00  0.00    +0.000 A 
ATOM      3  C   UNL     1      45.786   3.866  13.002  0.00  0.00    +0.000 A 
ATOM      4  C   UNL     1      45.690   4.627  11.841  0.00  0.00    +0.000 A 
ATOM      5  N   UNL     1      44.933   4.107  10.780  0.00  0.00    +0.000 N 
ATOM      6  N   UNL     1      46.313   5.816  11.726  0.00  0.00    +0.000 NA
ATOM      7  C   UNL     1      47.058   6.249  12.771  0.00  0.00    +0.000 A 
ATOM      8  H   UNL     1      43.963   4.031  11.076  0.00  0.00    +0.000 HD
ENDROOT
BRANCH   1   9
ATOM      9  C   UNL     1      48.160   6.026  15.027  0.00  0.00    +0.000 C 
BRANCH   9  10
ATOM     10  O   UNL     1      47.976   5.261  16.224  0.00  0.00    +0.000 OA
BRANCH  10  11
ATOM     11  C   UNL     1      48.653   5.750  17.307  0.00  0.00    +0.000 C 
ATOM     12  O   UNL     1      48.155   6.527  18.109  0.00  0.00    +0.000 OA
BRANCH  11  16
ATOM     13  C   UNL     1      52.489   2.656  18.054  0.00  0.00    +0.000 C 
ATOM     14  N   UNL     1      51.731   3.842  17.729  0.00  0.00    +0.000 N 
ATOM     15  C   UNL     1      50.373   3.974  17.804  0.00  0.00    +0.000 A 
ATOM     16  C   UNL     1      50.025   5.256  17.387  0.00  0.00    +0.000 A 
ATOM     17  C   UNL     1      51.260   5.931  17.065  0.00  0.00    +0.000 A 
ATOM     18  C   UNL     1      51.710   7.173  16.620  0.00  0.00    +0.000 A 
ATOM     19 CL   UNL     1      50.661   8.463  16.315  0.00  0.00    +0.000 Cl
ATOM     20  N   UNL     1      53.016   7.432  16.420  0.00  0.00    +0.000 NA
ATOM     21  C   UNL     1      53.879   6.443  16.671  0.00  0.00    +0.000 A 
ATOM     22  N   UNL     1      53.601   5.207  17.106  0.00  0.00    +0.000 NA
ATOM     23  C   UNL     1      52.285   5.011  17.286  0.00  0.00    +0.000 A 
ENDBRANCH  11  16
ENDBRANCH  10  11
ENDBRANCH   9  10
ENDBRANCH   1   9
BRANCH   5  24
ATOM     24  C   UNL     1      45.099   4.802   9.504  0.00  0.00    +0.000 C 
BRANCH  24  25
ATOM     25  C   UNL     1      44.745   3.871   8.335  0.00  0.00    +0.000 C 
BRANCH  25  26
ATOM     26  C   UNL     1      45.849   2.949   7.859  0.00  0.00    +0.000 A 
ATOM     27  C   UNL     1      45.910   1.596   8.208  0.00  0.00    +0.000 A 
ATOM     28  C   UNL     1      46.941   0.817   7.704  0.00  0.00    +0.000 A 
ATOM     29  N   UNL     1      47.897   1.280   6.875  0.00  0.00    +0.000 NA
ATOM     30  C   UNL     1      47.812   2.581   6.527  0.00  0.00    +0.000 A 
ATOM     31  C   UNL     1      46.823   3.440   6.981  0.00  0.00    +0.000 A 
ENDBRANCH  25  26
ENDBRANCH  24  25
ENDBRANCH   5  24
TORSDOF 7
ENDMDL
