MODEL 1
REMARK VINA RESULT:    -8.202      0.000      0.000
REMARK INTER + INTRA:         -10.841
REMARK INTER:                 -10.359
REMARK INTRA:                  -0.482
REMARK UNBOUND:                -0.482
REMARK  Name = 
REMARK  5 active torsions:
REMARK  status: ('A' for Active; 'I' for Inactive)
REMARK    1  A    between atoms: C_2  and  O_3
REMARK    2  A    between atoms: C_2  and  C_4
REMARK    3  A    between atoms: N_8  and  C_9
REMARK    4  A    between atoms: C_9  and  C_10
REMARK    5  A    between atoms: C_14  and  N_15
REMARK                            x       y       z     vdW  Elec       q    Type
REMARK                         _______ _______ _______ _____ _____    ______ ____
ROOT
ATOM      1  C   UNL     1      43.338   3.947  11.026  0.00  0.00    +0.000 C 
ENDROOT
BRANCH   1   6
ATOM      2  C   UNL     1      46.558   2.577   7.254  0.00  0.00    +0.000 A 
ATOM      3  C   UNL     1      45.936   3.792   7.512  0.00  0.00    +0.000 A 
ATOM      4  C   UNL     1      45.119   3.904   8.636  0.00  0.00    +0.000 A 
ATOM      5  C   UNL     1      44.921   2.803   9.462  0.00  0.00    +0.000 A 
ATOM      6  N   UNL     1      44.129   2.831  10.576  0.00  0.00    +0.000 N 
ATOM      7  N   UNL     1      45.503   1.618   9.202  0.00  0.00    +0.000 NA
ATOM      8  C   UNL     1      46.298   1.521   8.103  0.00  0.00    +0.000 A 
ATOM      9  H   UNL     1      44.097   1.955  11.082  0.00  0.00    +0.000 HD
BRANCH   2  11
ATOM     10  O   UNL     1      48.366   1.580   6.095  0.00  0.00    +0.000 OA
ATOM     11  C   UNL     1      47.446   2.383   6.096  0.00  0.00    +0.000 C 
BRANCH  11  12
ATOM     12  O   UNL     1      47.165   3.194   5.058  0.00  0.00    +0.000 OA
ATOM     13  H   UNL     1      47.619   2.975   4.224  0.00  0.00    +0.000 HD
ENDBRANCH  11  12
ENDBRANCH   2  11
ENDBRANCH   1   6
BRANCH   1  14
ATOM     14  C   UNL     1      44.174   5.049  11.615  0.00  0.00    +0.000 A 
ATOM     15  C   UNL     1      44.229   6.329  11.079  0.00  0.00    +0.000 A 
ATOM     16  N   UNL     1      45.042   7.307  11.538  0.00  0.00    +0.000 NA
ATOM     17  C   UNL     1      45.861   6.980  12.567  0.00  0.00    +0.000 A 
ATOM     18  C   UNL     1      45.917   5.733  13.188  0.00  0.00    +0.000 A 
ATOM     19  C   UNL     1      45.033   4.773  12.687  0.00  0.00    +0.000 A 
BRANCH  18  20
ATOM     20  N   UNL     1      46.830   5.371  14.160  0.00  0.00    +0.000 N 
ATOM     21  C   UNL     1      47.031   3.958  14.510  0.00  0.00    +0.000 C 
ATOM     22  C   UNL     1      47.495   3.901  15.976  0.00  0.00    +0.000 C 
ATOM     23  O   UNL     1      48.708   4.653  16.167  0.00  0.00    +0.000 OA
ATOM     24  C   UNL     1      48.512   6.035  15.806  0.00  0.00    +0.000 C 
ATOM     25  C   UNL     1      48.044   6.184  14.347  0.00  0.00    +0.000 C 
ENDBRANCH  18  20
ENDBRANCH   1  14
TORSDOF 5
ENDMDL
MODEL 2
REMARK VINA RESULT:    -7.858      2.557      3.955
REMARK INTER + INTRA:         -10.407
REMARK INTER:                  -9.970
REMARK INTRA:                  -0.437
REMARK UNBOUND:                -0.482
REMARK  Name = 
REMARK  5 active torsions:
REMARK  status: ('A' for Active; 'I' for Inactive)
REMARK    1  A    between atoms: C_2  and  O_3
REMARK    2  A    between atoms: C_2  and  C_4
REMARK    3  A    between atoms: N_8  and  C_9
REMARK    4  A    between atoms: C_9  and  C_10
REMARK    5  A    between atoms: C_14  and  N_15
REMARK                            x       y       z     vdW  Elec       q    Type
REMARK                         _______ _______ _______ _____ _____    ______ ____
ROOT
ATOM      1  C   UNL     1      43.366   3.994  11.046  0.00  0.00    +0.000 C 
ENDROOT
BRANCH   1   6
ATOM      2  C   UNL     1      46.641   2.585   7.336  0.00  0.00    +0.000 A 
ATOM      3  C   UNL     1      46.117   3.832   7.652  0.00  0.00    +0.000 A 
ATOM      4  C   UNL     1      45.257   3.944   8.742  0.00  0.00    +0.000 A 
ATOM      5  C   UNL     1      44.919   2.815   9.479  0.00  0.00    +0.000 A 
ATOM      6  N   UNL     1      44.076   2.841  10.555  0.00  0.00    +0.000 N 
ATOM      7  N   UNL     1      45.405   1.600   9.162  0.00  0.00    +0.000 NA
ATOM      8  C   UNL     1      46.244   1.503   8.097  0.00  0.00    +0.000 A 
ATOM      9  H   UNL     1      43.940   1.941  10.996  0.00  0.00    +0.000 HD
BRANCH   2  11
ATOM     10  O   UNL     1      48.469   1.564   6.231  0.00  0.00    +0.000 OA
ATOM     11  C   UNL     1      47.567   2.387   6.209  0.00  0.00    +0.000 C 
BRANCH  11  12
ATOM     12  O   UNL     1      47.341   3.216   5.172  0.00  0.00    +0.000 OA
ATOM     13  H   UNL     1      47.559   4.152   5.332  0.00  0.00    +0.000 HD
ENDBRANCH  11  12
ENDBRANCH   2  11
ENDBRANCH   1   6
BRANCH   1  14
ATOM     14  C   UNL     1      44.278   5.019  11.659  0.00  0.00    +0.000 A 
ATOM     15  C   UNL     1      45.141   4.736  12.710  0.00  0.00    +0.000 A 
ATOM     16  N   UNL     1      45.902   5.662  13.334  0.00  0.00    +0.000 NA
ATOM     17  C   UNL     1      45.772   6.941  12.905  0.00  0.00    +0.000 A 
ATOM     18  C   UNL     1      44.937   7.364  11.873  0.00  0.00    +0.000 A 
ATOM     19  C   UNL     1      44.197   6.356  11.248  0.00  0.00    +0.000 A 
BRANCH  18  20
ATOM     20  N   UNL     1      44.725   8.681  11.514  0.00  0.00    +0.000 N 
ATOM     21  C   UNL     1      43.476   9.086  10.852  0.00  0.00    +0.000 C 
ATOM     22  C   UNL     1      43.785  10.318   9.984  0.00  0.00    +0.000 C 
ATOM     23  O   UNL     1      44.315  11.395  10.779  0.00  0.00    +0.000 OA
ATOM     24  C   UNL     1      45.530  10.989  11.441  0.00  0.00    +0.000 C 
ATOM     25  C   UNL     1      45.309   9.756  12.335  0.00  0.00    +0.000 C 
ENDBRANCH  18  20
ENDBRANCH   1  14
TORSDOF 5
ENDMDL
MODEL 3
REMARK VINA RESULT:    -7.748      1.994      2.838
REMARK INTER + INTRA:         -10.268
REMARK INTER:                  -9.774
REMARK INTRA:                  -0.495
REMARK UNBOUND:                -0.482
REMARK  Name = 
REMARK  5 active torsions:
REMARK  status: ('A' for Active; 'I' for Inactive)
REMARK    1  A    between atoms: C_2  and  O_3
REMARK    2  A    between atoms: C_2  and  C_4
REMARK    3  A    between atoms: N_8  and  C_9
REMARK    4  A    between atoms: C_9  and  C_10
REMARK    5  A    between atoms: C_14  and  N_15
REMARK                            x       y       z     vdW  Elec       q    Type
REMARK                         _______ _______ _______ _____ _____    ______ ____
ROOT
ATOM      1  C   UNL     1      43.675   5.032  10.705  0.00  0.00    +0.000 C 
ENDROOT
BRANCH   1   6
ATOM      2  C   UNL     1      46.393   2.022   7.538  0.00  0.00    +0.000 A 
ATOM      3  C   UNL     1      45.818   1.747   8.772  0.00  0.00    +0.000 A 
ATOM      4  C   UNL     1      45.100   2.752   9.419  0.00  0.00    +0.000 A 
ATOM      5  C   UNL     1      44.988   4.009   8.837  0.00  0.00    +0.000 A 
ATOM      6  N   UNL     1      44.308   5.047   9.411  0.00  0.00    +0.000 N 
ATOM      7  N   UNL     1      45.563   4.287   7.652  0.00  0.00    +0.000 NA
ATOM      8  C   UNL     1      46.261   3.300   7.031  0.00  0.00    +0.000 A 
ATOM      9  H   UNL     1      44.304   5.895   8.859  0.00  0.00    +0.000 HD
BRANCH   2  11
ATOM     10  O   UNL     1      46.921  -0.184   6.864  0.00  0.00    +0.000 OA
ATOM     11  C   UNL     1      47.155   1.012   6.786  0.00  0.00    +0.000 C 
BRANCH  11  12
ATOM     12  O   UNL     1      48.145   1.530   6.035  0.00  0.00    +0.000 OA
ATOM     13  H   UNL     1      47.889   1.792   5.132  0.00  0.00    +0.000 HD
ENDBRANCH  11  12
ENDBRANCH   2  11
ENDBRANCH   1   6
BRANCH   1  14
ATOM     14  C   UNL     1      44.665   4.973  11.834  0.00  0.00    +0.000 A 
ATOM     15  C   UNL     1      44.503   4.156  12.945  0.00  0.00    +0.000 A 
ATOM     16  N   UNL     1      45.332   4.154  14.011  0.00  0.00    +0.000 NA
ATOM     17  C   UNL     1      46.361   5.037  13.979  0.00  0.00    +0.000 A 
ATOM     18  C   UNL     1      46.632   5.920  12.936  0.00  0.00    +0.000 A 
ATOM     19  C   UNL     1      45.755   5.855  11.850  0.00  0.00    +0.000 A 
BRANCH  18  20
ATOM     20  N   UNL     1      47.613   6.893  12.956  0.00  0.00    +0.000 N 
ATOM     21  C   UNL     1      47.455   8.133  12.182  0.00  0.00    +0.000 C 
ATOM     22  C   UNL     1      48.861   8.643  11.824  0.00  0.00    +0.000 C 
ATOM     23  O   UNL     1      49.648   8.875  13.007  0.00  0.00    +0.000 OA
ATOM     24  C   UNL     1      49.787   7.661  13.772  0.00  0.00    +0.000 C 
ATOM     25  C   UNL     1      48.419   7.080  14.174  0.00  0.00    +0.000 C 
ENDBRANCH  18  20
ENDBRANCH   1  14
TORSDOF 5
ENDMDL
MODEL 4
REMARK VINA RESULT:    -6.988      2.617      6.838
REMARK INTER + INTRA:          -9.308
REMARK INTER:                  -8.638
REMARK INTRA:                  -0.670
REMARK UNBOUND:                -0.482
REMARK  Name = 
REMARK  5 active torsions:
REMARK  status: ('A' for Active; 'I' for Inactive)
REMARK    1  A    between atoms: C_2  and  O_3
REMARK    2  A    between atoms: C_2  and  C_4
REMARK    3  A    between atoms: N_8  and  C_9
REMARK    4  A    between atoms: C_9  and  C_10
REMARK    5  A    between atoms: C_14  and  N_15
REMARK                            x       y       z     vdW  Elec       q    Type
REMARK                         _______ _______ _______ _____ _____    ______ ____
ROOT
ATOM      1  C   UNL     1      44.847   6.333  12.875  0.00  0.00    +0.000 C 
ENDROOT
BRANCH   1   6
ATOM      2  C   UNL     1      49.746   7.852  12.464  0.00  0.00    +0.000 A 
ATOM      3  C   UNL     1      48.650   8.108  11.650  0.00  0.00    +0.000 A 
ATOM      4  C   UNL     1      47.408   7.589  12.010  0.00  0.00    +0.000 A 
ATOM      5  C   UNL     1      47.287   6.810  13.155  0.00  0.00    +0.000 A 
ATOM      6  N   UNL     1      46.106   6.259  13.570  0.00  0.00    +0.000 N 
ATOM      7  N   UNL     1      48.351   6.539  13.934  0.00  0.00    +0.000 NA
ATOM      8  C   UNL     1      49.557   7.052  13.573  0.00  0.00    +0.000 A 
ATOM      9  H   UNL     1      46.176   5.731  14.430  0.00  0.00    +0.000 HD
BRANCH   2  11
ATOM     10  O   UNL     1      51.320   9.066  11.180  0.00  0.00    +0.000 OA
ATOM     11  C   UNL     1      51.087   8.376  12.159  0.00  0.00    +0.000 C 
BRANCH  11  12
ATOM     12  O   UNL     1      52.029   7.997  13.044  0.00  0.00    +0.000 OA
ATOM     13  H   UNL     1      52.886   8.452  12.960  0.00  0.00    +0.000 HD
ENDBRANCH  11  12
ENDBRANCH   2  11
ENDBRANCH   1   6
BRANCH   1  14
ATOM     14  C   UNL     1      44.438   5.017  12.275  0.00  0.00    +0.000 A 
ATOM     15  C   UNL     1      43.696   4.067  12.962  0.00  0.00    +0.000 A 
ATOM     16  N   UNL     1      43.396   2.843  12.474  0.00  0.00    +0.000 NA
ATOM     17  C   UNL     1      43.887   2.543  11.246  0.00  0.00    +0.000 A 
ATOM     18  C   UNL     1      44.654   3.397  10.456  0.00  0.00    +0.000 A 
ATOM     19  C   UNL     1      44.907   4.658  11.004  0.00  0.00    +0.000 A 
BRANCH  18  20
ATOM     20  N   UNL     1      45.245   3.049   9.256  0.00  0.00    +0.000 N 
ATOM     21  C   UNL     1      45.243   1.652   8.797  0.00  0.00    +0.000 C 
ATOM     22  C   UNL     1      46.483   1.450   7.909  0.00  0.00    +0.000 C 
ATOM     23  O   UNL     1      46.475   2.356   6.791  0.00  0.00    +0.000 OA
ATOM     24  C   UNL     1      46.459   3.724   7.245  0.00  0.00    +0.000 C 
ATOM     25  C   UNL     1      45.245   4.014   8.145  0.00  0.00    +0.000 C 
ENDBRANCH  18  20
ENDBRANCH   1  14
TORSDOF 5
ENDMDL
MODEL 5
REMARK VINA RESULT:    -6.907      2.225      8.493
REMARK INTER + INTRA:          -9.206
REMARK INTER:                  -8.829
REMARK INTRA:                  -0.377
REMARK UNBOUND:                -0.482
REMARK  Name = 
REMARK  5 active torsions:
REMARK  status: ('A' for Active; 'I' for Inactive)
REMARK    1  A    between atoms: C_2  and  O_3
REMARK    2  A    between atoms: C_2  and  C_4
REMARK    3  A    between atoms: N_8  and  C_9
REMARK    4  A    between atoms: C_9  and  C_10
REMARK    5  A    between atoms: C_14  and  N_15
REMARK                            x       y       z     vdW  Elec       q    Type
REMARK                         _______ _______ _______ _____ _____    ______ ____
ROOT
ATOM      1  C   UNL     1      46.480   5.012  13.854  0.00  0.00    +0.000 C 
ENDROOT
BRANCH   1   6
ATOM      2  C   UNL     1      48.522   4.367  18.533  0.00  0.00    +0.000 A 
ATOM      3  C   UNL     1      48.532   5.469  17.688  0.00  0.00    +0.000 A 
ATOM      4  C   UNL     1      47.869   5.386  16.465  0.00  0.00    +0.000 A 
ATOM      5  C   UNL     1      47.232   4.206  16.100  0.00  0.00    +0.000 A 
ATOM      6  N   UNL     1      46.568   4.043  14.916  0.00  0.00    +0.000 N 
ATOM      7  N   UNL     1      47.240   3.127  16.905  0.00  0.00    +0.000 NA
ATOM      8  C   UNL     1      47.890   3.220  18.095  0.00  0.00    +0.000 A 
ATOM      9  H   UNL     1      46.143   3.132  14.802  0.00  0.00    +0.000 HD
BRANCH   2  11
ATOM     10  O   UNL     1      50.309   4.833  20.013  0.00  0.00    +0.000 OA
ATOM     11  C   UNL     1      49.188   4.380  19.845  0.00  0.00    +0.000 C 
BRANCH  11  12
ATOM     12  O   UNL     1      48.456   3.821  20.828  0.00  0.00    +0.000 OA
ATOM     13  H   UNL     1      47.745   4.382  21.188  0.00  0.00    +0.000 HD
ENDBRANCH  11  12
ENDBRANCH   2  11
ENDBRANCH   1   6
BRANCH   1  14
ATOM     14  C   UNL     1      45.438   4.658  12.831  0.00  0.00    +0.000 A 
ATOM     15  C   UNL     1      44.082   4.593  13.119  0.00  0.00    +0.000 A 
ATOM     16  N   UNL     1      43.139   4.189  12.239  0.00  0.00    +0.000 NA
ATOM     17  C   UNL     1      43.579   3.804  11.016  0.00  0.00    +0.000 A 
ATOM     18  C   UNL     1      44.909   3.808  10.600  0.00  0.00    +0.000 A 
ATOM     19  C   UNL     1      45.833   4.262  11.546  0.00  0.00    +0.000 A 
BRANCH  18  20
ATOM     20  N   UNL     1      45.364   3.310   9.394  0.00  0.00    +0.000 N 
ATOM     21  C   UNL     1      45.092   1.917   9.008  0.00  0.00    +0.000 C 
ATOM     22  C   UNL     1      46.227   1.461   8.075  0.00  0.00    +0.000 C 
ATOM     23  O   UNL     1      46.317   2.306   6.913  0.00  0.00    +0.000 OA
ATOM     24  C   UNL     1      46.566   3.673   7.296  0.00  0.00    +0.000 C 
ATOM     25  C   UNL     1      45.472   4.212   8.235  0.00  0.00    +0.000 C 
ENDBRANCH  18  20
ENDBRANCH   1  14
TORSDOF 5
ENDMDL
MODEL 6
REMARK VINA RESULT:    -6.715      1.654      6.777
REMARK INTER + INTRA:          -8.963
REMARK INTER:                  -8.580
REMARK INTRA:                  -0.383
REMARK UNBOUND:                -0.482
REMARK  Name = 
REMARK  5 active torsions:
REMARK  status: ('A' for Active; 'I' for Inactive)
REMARK    1  A    between atoms: C_2  and  O_3
REMARK    2  A    between atoms: C_2  and  C_4
REMARK    3  A    between atoms: N_8  and  C_9
REMARK    4  A    between atoms: C_9  and  C_10
REMARK    5  A    between atoms: C_14  and  N_15
REMARK                            x       y       z     vdW  Elec       q    Type
REMARK                         _______ _______ _______ _____ _____    ______ ____
ROOT
ATOM      1  C   UNL     1      43.142   6.178  11.352  0.00  0.00    +0.000 C 
ENDROOT
BRANCH   1   6
ATOM      2  C   UNL     1      47.919   6.837  13.147  0.00  0.00    +0.000 A 
ATOM      3  C   UNL     1      46.936   5.925  13.510  0.00  0.00    +0.000 A 
ATOM      4  C   UNL     1      45.717   5.944  12.834  0.00  0.00    +0.000 A 
ATOM      5  C   UNL     1      45.494   6.881  11.832  0.00  0.00    +0.000 A 
ATOM      6  N   UNL     1      44.325   6.969  11.130  0.00  0.00    +0.000 N 
ATOM      7  N   UNL     1      46.435   7.783  11.493  0.00  0.00    +0.000 NA
ATOM      8  C   UNL     1      47.620   7.754  12.159  0.00  0.00    +0.000 A 
ATOM      9  H   UNL     1      44.320   7.693  10.422  0.00  0.00    +0.000 HD
BRANCH   2  11
ATOM     10  O   UNL     1      49.393   6.601  14.983  0.00  0.00    +0.000 OA
ATOM     11  C   UNL     1      49.236   6.871  13.803  0.00  0.00    +0.000 C 
BRANCH  11  12
ATOM     12  O   UNL     1      50.236   7.256  12.987  0.00  0.00    +0.000 OA
ATOM     13  H   UNL     1      50.302   6.764  12.149  0.00  0.00    +0.000 HD
ENDBRANCH  11  12
ENDBRANCH   2  11
ENDBRANCH   1   6
BRANCH   1  14
ATOM     14  C   UNL     1      43.358   4.719  11.061  0.00  0.00    +0.000 A 
ATOM     15  C   UNL     1      42.932   3.705  11.908  0.00  0.00    +0.000 A 
ATOM     16  N   UNL     1      43.194   2.394  11.711  0.00  0.00    +0.000 NA
ATOM     17  C   UNL     1      43.947   2.083  10.626  0.00  0.00    +0.000 A 
ATOM     18  C   UNL     1      44.449   3.000   9.705  0.00  0.00    +0.000 A 
ATOM     19  C   UNL     1      44.120   4.337   9.948  0.00  0.00    +0.000 A 
BRANCH  18  20
ATOM     20  N   UNL     1      45.307   2.692   8.667  0.00  0.00    +0.000 N 
ATOM     21  C   UNL     1      45.598   1.292   8.326  0.00  0.00    +0.000 C 
ATOM     22  C   UNL     1      47.003   1.246   7.701  0.00  0.00    +0.000 C 
ATOM     23  O   UNL     1      47.081   2.084   6.533  0.00  0.00    +0.000 OA
ATOM     24  C   UNL     1      46.777   3.453   6.868  0.00  0.00    +0.000 C 
ATOM     25  C   UNL     1      45.382   3.590   7.502  0.00  0.00    +0.000 C 
ENDBRANCH  18  20
ENDBRANCH   1  14
TORSDOF 5
ENDMDL
MODEL 7
REMARK VINA RESULT:    -6.557      3.816      8.506
REMARK INTER + INTRA:          -8.764
REMARK INTER:                  -8.205
REMARK INTRA:                  -0.559
REMARK UNBOUND:                -0.482
REMARK  Name = 
REMARK  5 active torsions:
REMARK  status: ('A' for Active; 'I' for Inactive)
REMARK    1  A    between atoms: C_2  and  O_3
REMARK    2  A    between atoms: C_2  and  C_4
REMARK    3  A    between atoms: N_8  and  C_9
REMARK    4  A    between atoms: C_9  and  C_10
REMARK    5  A    between atoms: C_14  and  N_15
REMARK                            x       y       z     vdW  Elec       q    Type
REMARK                         _______ _______ _______ _____ _____    ______ ____
ROOT
ATOM      1  C   UNL     1      47.437   3.986  16.715  0.00  0.00    +0.000 C 
ENDROOT
BRANCH   1   6
ATOM      2  C   UNL     1      52.209   2.449  17.872  0.00  0.00    +0.000 A 
ATOM      3  C   UNL     1      51.586   3.676  18.058  0.00  0.00    +0.000 A 
ATOM      4  C   UNL     1      50.254   3.820  17.673  0.00  0.00    +0.000 A 
ATOM      5  C   UNL     1      49.580   2.753  17.092  0.00  0.00    +0.000 A 
ATOM      6  N   UNL     1      48.278   2.818  16.681  0.00  0.00    +0.000 N 
ATOM      7  N   UNL     1      50.187   1.569  16.887  0.00  0.00    +0.000 NA
ATOM      8  C   UNL     1      51.486   1.440  17.268  0.00  0.00    +0.000 A 
ATOM      9  H   UNL     1      47.924   1.954  16.291  0.00  0.00    +0.000 HD
BRANCH   2  11
ATOM     10  O   UNL     1      54.492   1.986  17.454  0.00  0.00    +0.000 OA
ATOM     11  C   UNL     1      53.608   2.212  18.265  0.00  0.00    +0.000 C 
BRANCH  11  12
ATOM     12  O   UNL     1      53.807   2.242  19.596  0.00  0.00    +0.000 OA
ATOM     13  H   UNL     1      53.077   2.620  20.118  0.00  0.00    +0.000 HD
ENDBRANCH  11  12
ENDBRANCH   2  11
ENDBRANCH   1   6
BRANCH   1  14
ATOM     14  C   UNL     1      47.384   4.703  15.395  0.00  0.00    +0.000 A 
ATOM     15  C   UNL     1      48.121   5.847  15.122  0.00  0.00    +0.000 A 
ATOM     16  N   UNL     1      48.020   6.557  13.977  0.00  0.00    +0.000 NA
ATOM     17  C   UNL     1      47.115   6.116  13.069  0.00  0.00    +0.000 A 
ATOM     18  C   UNL     1      46.305   4.992  13.220  0.00  0.00    +0.000 A 
ATOM     19  C   UNL     1      46.475   4.285  14.414  0.00  0.00    +0.000 A 
BRANCH  18  20
ATOM     20  N   UNL     1      45.307   4.611  12.344  0.00  0.00    +0.000 N 
ATOM     21  C   UNL     1      45.025   5.403  11.138  0.00  0.00    +0.000 C 
ATOM     22  C   UNL     1      43.542   5.202  10.782  0.00  0.00    +0.000 C 
ATOM     23  O   UNL     1      43.244   3.811  10.561  0.00  0.00    +0.000 OA
ATOM     24  C   UNL     1      43.538   3.034  11.740  0.00  0.00    +0.000 C 
ATOM     25  C   UNL     1      45.010   3.180  12.167  0.00  0.00    +0.000 C 
ENDBRANCH  18  20
ENDBRANCH   1  14
TORSDOF 5
ENDMDL
MODEL 8
REMARK VINA RESULT:    -6.279      3.320      8.473
REMARK INTER + INTRA:          -8.413
REMARK INTER:                  -7.897
REMARK INTRA:                  -0.516
REMARK UNBOUND:                -0.482
REMARK  Name = 
REMARK  5 active torsions:
REMARK  status: ('A' for Active; 'I' for Inactive)
REMARK    1  A    between atoms: C_2  and  O_3
REMARK    2  A    between atoms: C_2  and  C_4
REMARK    3  A    between atoms: N_8  and  C_9
REMARK    4  A    between atoms: C_9  and  C_10
REMARK    5  A    between atoms: C_14  and  N_15
REMARK                            x       y       z     vdW  Elec       q    Type
REMARK                         _______ _______ _______ _____ _____    ______ ____
ROOT
ATOM      1  C   UNL     1      48.110   7.383  14.296  0.00  0.00    +0.000 C 
ENDROOT
BRANCH   1   6
ATOM      2  C   UNL     1      48.856   5.144  18.868  0.00  0.00    +0.000 A 
ATOM      3  C   UNL     1      48.733   6.485  18.530  0.00  0.00    +0.000 A 
ATOM      4  C   UNL     1      48.505   6.825  17.197  0.00  0.00    +0.000 A 
ATOM      5  C   UNL     1      48.428   5.829  16.231  0.00  0.00    +0.000 A 
ATOM      6  N   UNL     1      48.216   6.082  14.904  0.00  0.00    +0.000 N 
ATOM      7  N   UNL     1      48.571   4.529  16.550  0.00  0.00    +0.000 NA
ATOM      8  C   UNL     1      48.792   4.210  17.853  0.00  0.00    +0.000 A 
ATOM      9  H   UNL     1      48.170   5.252  14.327  0.00  0.00    +0.000 HD
BRANCH   2  11
ATOM     10  O   UNL     1      49.852   5.275  21.011  0.00  0.00    +0.000 OA
ATOM     11  C   UNL     1      49.084   4.703  20.254  0.00  0.00    +0.000 C 
BRANCH  11  12
ATOM     12  O   UNL     1      48.389   3.600  20.591  0.00  0.00    +0.000 OA
ATOM     13  H   UNL     1      48.388   3.383  21.541  0.00  0.00    +0.000 HD
ENDBRANCH  11  12
ENDBRANCH   2  11
ENDBRANCH   1   6
BRANCH   1  14
ATOM     14  C   UNL     1      46.967   7.479  13.325  0.00  0.00    +0.000 A 
ATOM     15  C   UNL     1      46.412   8.686  12.923  0.00  0.00    +0.000 A 
ATOM     16  N   UNL     1      45.327   8.790  12.123  0.00  0.00    +0.000 NA
ATOM     17  C   UNL     1      44.751   7.628  11.729  0.00  0.00    +0.000 A 
ATOM     18  C   UNL     1      45.196   6.353  12.070  0.00  0.00    +0.000 A 
ATOM     19  C   UNL     1      46.338   6.310  12.876  0.00  0.00    +0.000 A 
BRANCH  18  20
ATOM     20  N   UNL     1      44.542   5.176  11.760  0.00  0.00    +0.000 N 
ATOM     21  C   UNL     1      43.523   4.624  12.664  0.00  0.00    +0.000 C 
ATOM     22  C   UNL     1      43.503   3.098  12.471  0.00  0.00    +0.000 C 
ATOM     23  O   UNL     1      43.217   2.750  11.104  0.00  0.00    +0.000 OA
ATOM     24  C   UNL     1      44.209   3.307  10.218  0.00  0.00    +0.000 C 
ATOM     25  C   UNL     1      44.294   4.838  10.348  0.00  0.00    +0.000 C 
ENDBRANCH  18  20
ENDBRANCH   1  14
TORSDOF 5
ENDMDL
MODEL 9
REMARK VINA RESULT:    -6.043      3.096      5.098
REMARK INTER + INTRA:          -8.115
REMARK INTER:                  -7.495
REMARK INTRA:                  -0.620
REMARK UNBOUND:                -0.482
REMARK  Name = 
REMARK  5 active torsions:
REMARK  status: ('A' for Active; 'I' for Inactive)
REMARK    1  A    between atoms: C_2  and  O_3
REMARK    2  A    between atoms: C_2  and  C_4
REMARK    3  A    between atoms: N_8  and  C_9
REMARK    4  A    between atoms: C_9  and  C_10
REMARK    5  A    between atoms: C_14  and  N_15
REMARK                            x       y       z     vdW  Elec       q    Type
REMARK                         _______ _______ _______ _____ _____    ______ ____
ROOT
ATOM      1  C   UNL     1      47.293   8.697  13.223  0.00  0.00    +0.000 C 
ENDROOT
BRANCH   1   6
ATOM      2  C   UNL     1      44.681   4.974  10.817  0.00  0.00    +0.000 A 
ATOM      3  C   UNL     1      45.773   5.725  10.400  0.00  0.00    +0.000 A 
ATOM      4  C   UNL     1      46.314   6.667  11.273  0.00  0.00    +0.000 A 
ATOM      5  C   UNL     1      45.747   6.858  12.527  0.00  0.00    +0.000 A 
ATOM      6  N   UNL     1      46.214   7.767  13.435  0.00  0.00    +0.000 N 
ATOM      7  N   UNL     1      44.674   6.150  12.926  0.00  0.00    +0.000 NA
ATOM      8  C   UNL     1      44.155   5.233  12.067  0.00  0.00    +0.000 A 
ATOM      9  H   UNL     1      45.705   7.778  14.309  0.00  0.00    +0.000 HD
BRANCH   2  11
ATOM     10  O   UNL     1      43.648   2.886  10.394  0.00  0.00    +0.000 OA
ATOM     11  C   UNL     1      44.061   3.950   9.960  0.00  0.00    +0.000 C 
BRANCH  11  12
ATOM     12  O   UNL     1      44.022   4.288   8.657  0.00  0.00    +0.000 OA
ATOM     13  H   UNL     1      44.516   5.094   8.421  0.00  0.00    +0.000 HD
ENDBRANCH  11  12
ENDBRANCH   2  11
ENDBRANCH   1   6
BRANCH   1  14
ATOM     14  C   UNL     1      48.544   8.311  13.962  0.00  0.00    +0.000 A 
ATOM     15  C   UNL     1      49.816   8.682  13.547  0.00  0.00    +0.000 A 
ATOM     16  N   UNL     1      50.957   8.271  14.144  0.00  0.00    +0.000 NA
ATOM     17  C   UNL     1      50.819   7.423  15.192  0.00  0.00    +0.000 A 
ATOM     18  C   UNL     1      49.607   6.963  15.703  0.00  0.00    +0.000 A 
ATOM     19  C   UNL     1      48.463   7.445  15.060  0.00  0.00    +0.000 A 
BRANCH  18  20
ATOM     20  N   UNL     1      49.476   6.013  16.697  0.00  0.00    +0.000 N 
ATOM     21  C   UNL     1      49.937   6.291  18.065  0.00  0.00    +0.000 C 
ATOM     22  C   UNL     1      50.318   4.949  18.712  0.00  0.00    +0.000 C 
ATOM     23  O   UNL     1      49.201   4.040  18.724  0.00  0.00    +0.000 OA
ATOM     24  C   UNL     1      48.741   3.784  17.382  0.00  0.00    +0.000 C 
ATOM     25  C   UNL     1      48.336   5.081  16.658  0.00  0.00    +0.000 C 
ENDBRANCH  18  20
ENDBRANCH   1  14
TORSDOF 5
ENDMDL
