MODEL 1
REMARK VINA RESULT:    -8.632      0.000      0.000
REMARK INTER + INTRA:         -12.635
REMARK INTER:                 -11.660
REMARK INTRA:                  -0.975
REMARK UNBOUND:                -0.975
REMARK  Name = 
REMARK  7 active torsions:
REMARK  status: ('A' for Active; 'I' for Inactive)
REMARK    1  A    between atoms: C_1  and  N_2
REMARK    2  A    between atoms: N_2  and  C_3
REMARK    3  A    between atoms: C_3  and  C_4
REMARK    4  A    between atoms: C_7  and  C_8
REMARK    5  A    between atoms: C_8  and  N_9
REMARK    6  A    between atoms: C_10  and  C_12
REMARK    7  A    between atoms: C_24  and  C_26
REMARK                            x       y       z     vdW  Elec       q    Type
REMARK                         _______ _______ _______ _____ _____    ______ ____
ROOT
ATOM      1  C   UNL     1      46.394   4.565  13.419  0.00  0.00    +0.000 A 
ATOM      2  C   UNL     1      46.664   4.212  14.752  0.00  0.00    +0.000 A 
ATOM      3  C   UNL     1      47.534   4.978  15.529  0.00  0.00    +0.000 A 
ATOM      4  C   UNL     1      48.140   6.121  14.993  0.00  0.00    +0.000 A 
ATOM      5  C   UNL     1      47.871   6.470  13.660  0.00  0.00    +0.000 A 
ATOM      6  C   UNL     1      46.998   5.705  12.883  0.00  0.00    +0.000 A 
ENDROOT
BRANCH   1   7
ATOM      7  C   UNL     1      45.511   3.688  12.565  0.00  0.00    +0.000 C 
BRANCH   7   9
ATOM      8  C   UNL     1      43.376   5.006  12.889  0.00  0.00    +0.000 C 
ATOM      9  N   UNL     1      44.271   4.250  12.019  0.00  0.00    +0.000 N 
ATOM     10  C   UNL     1      44.032   4.397  10.638  0.00  0.00    +0.000 C 
ATOM     11  O   UNL     1      43.139   5.135  10.215  0.00  0.00    +0.000 OA
BRANCH  10  12
ATOM     12  C   UNL     1      44.859   3.692   9.609  0.00  0.00    +0.000 A 
ATOM     13  C   UNL     1      44.881   2.303   9.450  0.00  0.00    +0.000 A 
ATOM     14  C   UNL     1      45.698   1.705   8.486  0.00  0.00    +0.000 A 
ATOM     15  C   UNL     1      46.435   2.494   7.610  0.00  0.00    +0.000 A 
ATOM     16  C   UNL     1      46.357   3.882   7.696  0.00  0.00    +0.000 A 
ATOM     17  C   UNL     1      45.582   4.477   8.696  0.00  0.00    +0.000 A 
ENDBRANCH  10  12
ENDBRANCH   7   9
ENDBRANCH   1   7
BRANCH   4  18
ATOM     18  C   UNL     1      49.126   6.925  15.803  0.00  0.00    +0.000 C 
BRANCH  18  19
ATOM     19  N   UNL     1      50.166   6.072  16.312  0.00  0.00    +0.000 N 
ATOM     20  C   UNL     1      50.156   5.608  17.601  0.00  0.00    +0.000 C 
ATOM     21  O   UNL     1      49.236   5.851  18.374  0.00  0.00    +0.000 OA
ATOM     22  H   UNL     1      51.030   6.041  15.778  0.00  0.00    +0.000 HD
BRANCH  20  23
ATOM     23  C   UNL     1      51.280   4.744  17.986  0.00  0.00    +0.000 A 
ATOM     24  C   UNL     1      52.389   5.296  18.611  0.00  0.00    +0.000 A 
ATOM     25  S   UNL     1      53.567   4.145  19.053  0.00  0.00    +0.000 S 
ATOM     26  C   UNL     1      52.663   2.874  18.372  0.00  0.00    +0.000 A 
ATOM     27  N   UNL     1      53.127   1.596  18.393  0.00  0.00    +0.000 NA
ATOM     28  C   UNL     1      52.358   0.738  17.810  0.00  0.00    +0.000 A 
ATOM     29  N   UNL     1      51.163   1.043  17.211  0.00  0.00    +0.000 N 
ATOM     30  C   UNL     1      50.640   2.312  17.195  0.00  0.00    +0.000 A 
ATOM     31  O   UNL     1      49.543   2.541  16.685  0.00  0.00    +0.000 OA
ATOM     32  C   UNL     1      51.469   3.318  17.828  0.00  0.00    +0.000 A 
ATOM     33  H   UNL     1      50.606   0.322  16.776  0.00  0.00    +0.000 HD
ENDBRANCH  20  23
ENDBRANCH  18  19
ENDBRANCH   4  18
TORSDOF 6
ENDMDL
MODEL 2
REMARK VINA RESULT:    -8.368      2.715      3.399
REMARK INTER + INTRA:         -12.279
REMARK INTER:                 -11.529
REMARK INTRA:                  -0.750
REMARK UNBOUND:                -0.975
REMARK  Name = 
REMARK  7 active torsions:
REMARK  status: ('A' for Active; 'I' for Inactive)
REMARK    1  A    between atoms: C_1  and  N_2
REMARK    2  A    between atoms: N_2  and  C_3
REMARK    3  A    between atoms: C_3  and  C_4
REMARK    4  A    between atoms: C_7  and  C_8
REMARK    5  A    between atoms: C_8  and  N_9
REMARK    6  A    between atoms: C_10  and  C_12
REMARK    7  A    between atoms: C_24  and  C_26
REMARK                            x       y       z     vdW  Elec       q    Type
REMARK                         _______ _______ _______ _____ _____    ______ ____
ROOT
ATOM      1  C   UNL     1      45.369   6.108  10.834  0.00  0.00    +0.000 A 
ATOM      2  C   UNL     1      44.720   7.204  11.428  0.00  0.00    +0.000 A 
ATOM      3  C   UNL     1      45.384   8.004  12.360  0.00  0.00    +0.000 A 
ATOM      4  C   UNL     1      46.713   7.731  12.706  0.00  0.00    +0.000 A 
ATOM      5  C   UNL     1      47.357   6.634  12.114  0.00  0.00    +0.000 A 
ATOM      6  C   UNL     1      46.694   5.835  11.180  0.00  0.00    +0.000 A 
ENDROOT
BRANCH   1   7
ATOM      7  C   UNL     1      44.619   5.205   9.885  0.00  0.00    +0.000 C 
BRANCH   7   9
ATOM      8  C   UNL     1      43.233   3.744  11.417  0.00  0.00    +0.000 C 
ATOM      9  N   UNL     1      44.217   3.872  10.347  0.00  0.00    +0.000 N 
ATOM     10  C   UNL     1      44.464   2.694   9.614  0.00  0.00    +0.000 C 
ATOM     11  O   UNL     1      43.864   1.645   9.862  0.00  0.00    +0.000 OA
BRANCH  10  12
ATOM     12  C   UNL     1      45.444   2.652   8.484  0.00  0.00    +0.000 A 
ATOM     13  C   UNL     1      45.729   3.748   7.663  0.00  0.00    +0.000 A 
ATOM     14  C   UNL     1      46.635   3.634   6.605  0.00  0.00    +0.000 A 
ATOM     15  C   UNL     1      47.335   2.447   6.410  0.00  0.00    +0.000 A 
ATOM     16  C   UNL     1      47.129   1.373   7.273  0.00  0.00    +0.000 A 
ATOM     17  C   UNL     1      46.181   1.472   8.297  0.00  0.00    +0.000 A 
ENDBRANCH  10  12
ENDBRANCH   7   9
ENDBRANCH   1   7
BRANCH   4  18
ATOM     18  C   UNL     1      47.422   8.552  13.754  0.00  0.00    +0.000 C 
BRANCH  18  19
ATOM     19  N   UNL     1      47.712   7.745  14.908  0.00  0.00    +0.000 N 
ATOM     20  C   UNL     1      48.976   7.283  15.169  0.00  0.00    +0.000 C 
ATOM     21  O   UNL     1      49.935   7.575  14.464  0.00  0.00    +0.000 OA
ATOM     22  H   UNL     1      46.919   7.312  15.371  0.00  0.00    +0.000 HD
BRANCH  20  23
ATOM     23  C   UNL     1      49.129   6.471  16.383  0.00  0.00    +0.000 A 
ATOM     24  C   UNL     1      49.957   6.910  17.406  0.00  0.00    +0.000 A 
ATOM     25  S   UNL     1      49.963   5.885  18.768  0.00  0.00    +0.000 S 
ATOM     26  C   UNL     1      48.903   4.786  18.017  0.00  0.00    +0.000 A 
ATOM     27  N   UNL     1      48.510   3.648  18.651  0.00  0.00    +0.000 NA
ATOM     28  C   UNL     1      47.734   2.888  17.953  0.00  0.00    +0.000 A 
ATOM     29  N   UNL     1      47.311   3.165  16.679  0.00  0.00    +0.000 N 
ATOM     30  C   UNL     1      47.655   4.316  16.013  0.00  0.00    +0.000 A 
ATOM     31  O   UNL     1      47.221   4.552  14.885  0.00  0.00    +0.000 OA
ATOM     32  C   UNL     1      48.534   5.202  16.749  0.00  0.00    +0.000 A 
ATOM     33  H   UNL     1      46.700   2.529  16.188  0.00  0.00    +0.000 HD
ENDBRANCH  20  23
ENDBRANCH  18  19
ENDBRANCH   4  18
TORSDOF 6
ENDMDL
MODEL 3
REMARK VINA RESULT:    -7.787      3.579      8.664
REMARK INTER + INTRA:         -11.493
REMARK INTER:                  -9.615
REMARK INTRA:                  -1.878
REMARK UNBOUND:                -0.975
REMARK  Name = 
REMARK  7 active torsions:
REMARK  status: ('A' for Active; 'I' for Inactive)
REMARK    1  A    between atoms: C_1  and  N_2
REMARK    2  A    between atoms: N_2  and  C_3
REMARK    3  A    between atoms: C_3  and  C_4
REMARK    4  A    between atoms: C_7  and  C_8
REMARK    5  A    between atoms: C_8  and  N_9
REMARK    6  A    between atoms: C_10  and  C_12
REMARK    7  A    between atoms: C_24  and  C_26
REMARK                            x       y       z     vdW  Elec       q    Type
REMARK                         _______ _______ _______ _____ _____    ______ ____
ROOT
ATOM      1  C   UNL     1      49.141   7.814  16.103  0.00  0.00    +0.000 A 
ATOM      2  C   UNL     1      49.623   6.894  15.157  0.00  0.00    +0.000 A 
ATOM      3  C   UNL     1      49.156   6.915  13.842  0.00  0.00    +0.000 A 
ATOM      4  C   UNL     1      48.207   7.865  13.444  0.00  0.00    +0.000 A 
ATOM      5  C   UNL     1      47.724   8.780  14.392  0.00  0.00    +0.000 A 
ATOM      6  C   UNL     1      48.193   8.761  15.707  0.00  0.00    +0.000 A 
ENDROOT
BRANCH   1   7
ATOM      7  C   UNL     1      49.595   7.735  17.540  0.00  0.00    +0.000 C 
BRANCH   7   9
ATOM      8  C   UNL     1      48.026   8.651  19.301  0.00  0.00    +0.000 C 
ATOM      9  N   UNL     1      48.593   7.511  18.588  0.00  0.00    +0.000 N 
ATOM     10  C   UNL     1      47.890   6.299  18.738  0.00  0.00    +0.000 C 
ATOM     11  O   UNL     1      46.858   6.233  19.411  0.00  0.00    +0.000 OA
BRANCH  10  12
ATOM     12  C   UNL     1      48.336   5.034  18.074  0.00  0.00    +0.000 A 
ATOM     13  C   UNL     1      49.491   4.334  18.435  0.00  0.00    +0.000 A 
ATOM     14  C   UNL     1      49.866   3.172  17.754  0.00  0.00    +0.000 A 
ATOM     15  C   UNL     1      49.043   2.647  16.764  0.00  0.00    +0.000 A 
ATOM     16  C   UNL     1      47.844   3.283  16.452  0.00  0.00    +0.000 A 
ATOM     17  C   UNL     1      47.497   4.475  17.096  0.00  0.00    +0.000 A 
ENDBRANCH  10  12
ENDBRANCH   7   9
ENDBRANCH   1   7
BRANCH   4  18
ATOM     18  C   UNL     1      47.652   7.861  12.042  0.00  0.00    +0.000 C 
BRANCH  18  19
ATOM     19  N   UNL     1      46.940   6.637  11.791  0.00  0.00    +0.000 N 
ATOM     20  C   UNL     1      45.600   6.513  12.051  0.00  0.00    +0.000 C 
ATOM     21  O   UNL     1      44.926   7.451  12.461  0.00  0.00    +0.000 OA
ATOM     22  H   UNL     1      47.503   5.801  11.669  0.00  0.00    +0.000 HD
BRANCH  20  23
ATOM     23  C   UNL     1      45.001   5.207  11.745  0.00  0.00    +0.000 A 
ATOM     24  C   UNL     1      44.321   4.513  12.735  0.00  0.00    +0.000 A 
ATOM     25  S   UNL     1      43.628   3.052  12.192  0.00  0.00    +0.000 S 
ATOM     26  C   UNL     1      44.262   3.267  10.628  0.00  0.00    +0.000 A 
ATOM     27  N   UNL     1      44.049   2.341   9.654  0.00  0.00    +0.000 NA
ATOM     28  C   UNL     1      44.616   2.612   8.526  0.00  0.00    +0.000 A 
ATOM     29  N   UNL     1      45.374   3.729   8.282  0.00  0.00    +0.000 N 
ATOM     30  C   UNL     1      45.587   4.704   9.224  0.00  0.00    +0.000 A 
ATOM     31  O   UNL     1      46.237   5.716   8.956  0.00  0.00    +0.000 OA
ATOM     32  C   UNL     1      44.979   4.445  10.514  0.00  0.00    +0.000 A 
ATOM     33  H   UNL     1      45.787   3.884   7.374  0.00  0.00    +0.000 HD
ENDBRANCH  20  23
ENDBRANCH  18  19
ENDBRANCH   4  18
TORSDOF 6
ENDMDL
MODEL 4
REMARK VINA RESULT:    -7.777      2.869      3.471
REMARK INTER + INTRA:         -11.480
REMARK INTER:                 -10.232
REMARK INTRA:                  -1.249
REMARK UNBOUND:                -0.975
REMARK  Name = 
REMARK  7 active torsions:
REMARK  status: ('A' for Active; 'I' for Inactive)
REMARK    1  A    between atoms: C_1  and  N_2
REMARK    2  A    between atoms: N_2  and  C_3
REMARK    3  A    between atoms: C_3  and  C_4
REMARK    4  A    between atoms: C_7  and  C_8
REMARK    5  A    between atoms: C_8  and  N_9
REMARK    6  A    between atoms: C_10  and  C_12
REMARK    7  A    between atoms: C_24  and  C_26
REMARK                            x       y       z     vdW  Elec       q    Type
REMARK                         _______ _______ _______ _____ _____    ______ ____
ROOT
ATOM      1  C   UNL     1      46.408   4.587  13.184  0.00  0.00    +0.000 A 
ATOM      2  C   UNL     1      46.766   5.758  12.494  0.00  0.00    +0.000 A 
ATOM      3  C   UNL     1      47.582   6.717  13.096  0.00  0.00    +0.000 A 
ATOM      4  C   UNL     1      48.068   6.518  14.394  0.00  0.00    +0.000 A 
ATOM      5  C   UNL     1      47.706   5.350  15.082  0.00  0.00    +0.000 A 
ATOM      6  C   UNL     1      46.891   4.388  14.480  0.00  0.00    +0.000 A 
ENDROOT
BRANCH   1   7
ATOM      7  C   UNL     1      45.464   3.592  12.553  0.00  0.00    +0.000 C 
BRANCH   7   9
ATOM      8  C   UNL     1      43.234   4.738  12.898  0.00  0.00    +0.000 C 
ATOM      9  N   UNL     1      44.187   4.073  12.014  0.00  0.00    +0.000 N 
ATOM     10  C   UNL     1      43.942   4.236  10.636  0.00  0.00    +0.000 C 
ATOM     11  O   UNL     1      42.997   4.915  10.227  0.00  0.00    +0.000 OA
BRANCH  10  12
ATOM     12  C   UNL     1      44.824   3.621   9.594  0.00  0.00    +0.000 A 
ATOM     13  C   UNL     1      44.931   2.243   9.384  0.00  0.00    +0.000 A 
ATOM     14  C   UNL     1      45.795   1.732   8.412  0.00  0.00    +0.000 A 
ATOM     15  C   UNL     1      46.496   2.596   7.577  0.00  0.00    +0.000 A 
ATOM     16  C   UNL     1      46.333   3.973   7.714  0.00  0.00    +0.000 A 
ATOM     17  C   UNL     1      45.510   4.482   8.724  0.00  0.00    +0.000 A 
ENDBRANCH  10  12
ENDBRANCH   7   9
ENDBRANCH   1   7
BRANCH   4  18
ATOM     18  C   UNL     1      48.902   7.572  15.076  0.00  0.00    +0.000 C 
BRANCH  18  19
ATOM     19  N   UNL     1      48.631   7.587  16.488  0.00  0.00    +0.000 N 
ATOM     20  C   UNL     1      49.611   7.847  17.411  0.00  0.00    +0.000 C 
ATOM     21  O   UNL     1      50.756   8.132  17.082  0.00  0.00    +0.000 OA
ATOM     22  H   UNL     1      47.768   7.144  16.790  0.00  0.00    +0.000 HD
BRANCH  20  23
ATOM     23  C   UNL     1      49.192   7.831  18.819  0.00  0.00    +0.000 A 
ATOM     24  C   UNL     1      49.148   9.017  19.537  0.00  0.00    +0.000 A 
ATOM     25  S   UNL     1      48.573   8.828  21.132  0.00  0.00    +0.000 S 
ATOM     26  C   UNL     1      48.417   7.145  20.937  0.00  0.00    +0.000 A 
ATOM     27  N   UNL     1      47.980   6.360  21.959  0.00  0.00    +0.000 NA
ATOM     28  C   UNL     1      47.943   5.099  21.686  0.00  0.00    +0.000 A 
ATOM     29  N   UNL     1      48.299   4.551  20.481  0.00  0.00    +0.000 N 
ATOM     30  C   UNL     1      48.713   5.307  19.412  0.00  0.00    +0.000 A 
ATOM     31  O   UNL     1      48.984   4.784  18.330  0.00  0.00    +0.000 OA
ATOM     32  C   UNL     1      48.782   6.732  19.667  0.00  0.00    +0.000 A 
ATOM     33  H   UNL     1      48.243   3.554  20.330  0.00  0.00    +0.000 HD
ENDBRANCH  20  23
ENDBRANCH  18  19
ENDBRANCH   4  18
TORSDOF 6
ENDMDL
MODEL 5
REMARK VINA RESULT:    -7.733      3.206      4.295
REMARK INTER + INTRA:         -11.421
REMARK INTER:                 -10.920
REMARK INTRA:                  -0.501
REMARK UNBOUND:                -0.975
REMARK  Name = 
REMARK  7 active torsions:
REMARK  status: ('A' for Active; 'I' for Inactive)
REMARK    1  A    between atoms: C_1  and  N_2
REMARK    2  A    between atoms: N_2  and  C_3
REMARK    3  A    between atoms: C_3  and  C_4
REMARK    4  A    between atoms: C_7  and  C_8
REMARK    5  A    between atoms: C_8  and  N_9
REMARK    6  A    between atoms: C_10  and  C_12
REMARK    7  A    between atoms: C_24  and  C_26
REMARK                            x       y       z     vdW  Elec       q    Type
REMARK                         _______ _______ _______ _____ _____    ______ ____
ROOT
ATOM      1  C   UNL     1      45.500   6.622  11.723  0.00  0.00    +0.000 A 
ATOM      2  C   UNL     1      45.198   7.840  12.355  0.00  0.00    +0.000 A 
ATOM      3  C   UNL     1      46.124   8.454  13.198  0.00  0.00    +0.000 A 
ATOM      4  C   UNL     1      47.377   7.868  13.417  0.00  0.00    +0.000 A 
ATOM      5  C   UNL     1      47.676   6.650  12.788  0.00  0.00    +0.000 A 
ATOM      6  C   UNL     1      46.750   6.036  11.942  0.00  0.00    +0.000 A 
ENDROOT
BRANCH   1   7
ATOM      7  C   UNL     1      44.464   5.928  10.873  0.00  0.00    +0.000 C 
BRANCH   7   9
ATOM      8  C   UNL     1      42.944   4.654  12.444  0.00  0.00    +0.000 C 
ATOM      9  N   UNL     1      43.900   4.657  11.342  0.00  0.00    +0.000 N 
ATOM     10  C   UNL     1      43.962   3.463  10.596  0.00  0.00    +0.000 C 
ATOM     11  O   UNL     1      43.233   2.503  10.859  0.00  0.00    +0.000 OA
BRANCH  10  12
ATOM     12  C   UNL     1      44.889   3.300   9.432  0.00  0.00    +0.000 A 
ATOM     13  C   UNL     1      45.427   4.371   8.713  0.00  0.00    +0.000 A 
ATOM     14  C   UNL     1      46.266   4.149   7.617  0.00  0.00    +0.000 A 
ATOM     15  C   UNL     1      46.649   2.854   7.284  0.00  0.00    +0.000 A 
ATOM     16  C   UNL     1      46.193   1.780   8.044  0.00  0.00    +0.000 A 
ATOM     17  C   UNL     1      45.310   2.001   9.106  0.00  0.00    +0.000 A 
ENDBRANCH  10  12
ENDBRANCH   7   9
ENDBRANCH   1   7
BRANCH   4  18
ATOM     18  C   UNL     1      48.365   8.492  14.371  0.00  0.00    +0.000 C 
BRANCH  18  19
ATOM     19  N   UNL     1      48.199   7.942  15.690  0.00  0.00    +0.000 N 
ATOM     20  C   UNL     1      49.049   6.990  16.189  0.00  0.00    +0.000 C 
ATOM     21  O   UNL     1      50.024   6.593  15.561  0.00  0.00    +0.000 OA
ATOM     22  H   UNL     1      47.295   8.083  16.130  0.00  0.00    +0.000 HD
BRANCH  20  23
ATOM     23  C   UNL     1      48.762   6.518  17.551  0.00  0.00    +0.000 A 
ATOM     24  C   UNL     1      48.915   5.175  17.860  0.00  0.00    +0.000 A 
ATOM     25  S   UNL     1      48.611   4.813  19.499  0.00  0.00    +0.000 S 
ATOM     26  C   UNL     1      48.207   6.430  19.840  0.00  0.00    +0.000 A 
ATOM     27  N   UNL     1      47.825   6.807  21.090  0.00  0.00    +0.000 NA
ATOM     28  C   UNL     1      47.513   8.055  21.201  0.00  0.00    +0.000 A 
ATOM     29  N   UNL     1      47.554   8.963  20.174  0.00  0.00    +0.000 N 
ATOM     30  C   UNL     1      47.965   8.635  18.906  0.00  0.00    +0.000 A 
ATOM     31  O   UNL     1      48.031   9.487  18.019  0.00  0.00    +0.000 OA
ATOM     32  C   UNL     1      48.319   7.241  18.724  0.00  0.00    +0.000 A 
ATOM     33  H   UNL     1      47.301   9.928  20.328  0.00  0.00    +0.000 HD
ENDBRANCH  20  23
ENDBRANCH  18  19
ENDBRANCH   4  18
TORSDOF 6
ENDMDL
MODEL 6
REMARK VINA RESULT:    -7.600      3.773      8.459
REMARK INTER + INTRA:         -11.241
REMARK INTER:                  -9.555
REMARK INTRA:                  -1.686
REMARK UNBOUND:                -0.975
REMARK  Name = 
REMARK  7 active torsions:
REMARK  status: ('A' for Active; 'I' for Inactive)
REMARK    1  A    between atoms: C_1  and  N_2
REMARK    2  A    between atoms: N_2  and  C_3
REMARK    3  A    between atoms: C_3  and  C_4
REMARK    4  A    between atoms: C_7  and  C_8
REMARK    5  A    between atoms: C_8  and  N_9
REMARK    6  A    between atoms: C_10  and  C_12
REMARK    7  A    between atoms: C_24  and  C_26
REMARK                            x       y       z     vdW  Elec       q    Type
REMARK                         _______ _______ _______ _____ _____    ______ ____
ROOT
ATOM      1  C   UNL     1      49.009   7.653  16.209  0.00  0.00    +0.000 A 
ATOM      2  C   UNL     1      48.433   8.862  15.783  0.00  0.00    +0.000 A 
ATOM      3  C   UNL     1      48.135   9.071  14.436  0.00  0.00    +0.000 A 
ATOM      4  C   UNL     1      48.393   8.070  13.491  0.00  0.00    +0.000 A 
ATOM      5  C   UNL     1      48.972   6.866  13.919  0.00  0.00    +0.000 A 
ATOM      6  C   UNL     1      49.268   6.655  15.267  0.00  0.00    +0.000 A 
ENDROOT
BRANCH   1   7
ATOM      7  C   UNL     1      49.397   7.466  17.656  0.00  0.00    +0.000 C 
BRANCH   7   9
ATOM      8  C   UNL     1      47.726   8.301  19.362  0.00  0.00    +0.000 C 
ATOM      9  N   UNL     1      48.345   7.194  18.641  0.00  0.00    +0.000 N 
ATOM     10  C   UNL     1      47.652   5.969  18.713  0.00  0.00    +0.000 C 
ATOM     11  O   UNL     1      46.588   5.867  19.329  0.00  0.00    +0.000 OA
BRANCH  10  12
ATOM     12  C   UNL     1      48.149   4.733  18.030  0.00  0.00    +0.000 A 
ATOM     13  C   UNL     1      49.278   4.019  18.444  0.00  0.00    +0.000 A 
ATOM     14  C   UNL     1      49.706   2.887  17.744  0.00  0.00    +0.000 A 
ATOM     15  C   UNL     1      48.958   2.404  16.675  0.00  0.00    +0.000 A 
ATOM     16  C   UNL     1      47.782   3.052  16.305  0.00  0.00    +0.000 A 
ATOM     17  C   UNL     1      47.386   4.216  16.972  0.00  0.00    +0.000 A 
ENDBRANCH  10  12
ENDBRANCH   7   9
ENDBRANCH   1   7
BRANCH   4  18
ATOM     18  C   UNL     1      48.129   8.306  12.025  0.00  0.00    +0.000 C 
BRANCH  18  19
ATOM     19  N   UNL     1      47.471   7.166  11.447  0.00  0.00    +0.000 N 
ATOM     20  C   UNL     1      46.105   7.053  11.421  0.00  0.00    +0.000 C 
ATOM     21  O   UNL     1      45.371   7.939  11.842  0.00  0.00    +0.000 OA
ATOM     22  H   UNL     1      48.041   6.338  11.300  0.00  0.00    +0.000 HD
BRANCH  20  23
ATOM     23  C   UNL     1      45.569   5.836  10.799  0.00  0.00    +0.000 A 
ATOM     24  C   UNL     1      45.795   5.595   9.451  0.00  0.00    +0.000 A 
ATOM     25  S   UNL     1      45.166   4.105   8.909  0.00  0.00    +0.000 S 
ATOM     26  C   UNL     1      44.518   3.756  10.443  0.00  0.00    +0.000 A 
ATOM     27  N   UNL     1      43.820   2.609  10.662  0.00  0.00    +0.000 NA
ATOM     28  C   UNL     1      43.354   2.487  11.861  0.00  0.00    +0.000 A 
ATOM     29  N   UNL     1      43.528   3.408  12.862  0.00  0.00    +0.000 N 
ATOM     30  C   UNL     1      44.253   4.562  12.695  0.00  0.00    +0.000 A 
ATOM     31  O   UNL     1      44.425   5.345  13.630  0.00  0.00    +0.000 OA
ATOM     32  C   UNL     1      44.791   4.753  11.363  0.00  0.00    +0.000 A 
ATOM     33  H   UNL     1      43.141   3.250  13.781  0.00  0.00    +0.000 HD
ENDBRANCH  20  23
ENDBRANCH  18  19
ENDBRANCH   4  18
TORSDOF 6
ENDMDL
MODEL 7
REMARK VINA RESULT:    -7.458      3.515     10.087
REMARK INTER + INTRA:         -11.049
REMARK INTER:                  -9.421
REMARK INTRA:                  -1.628
REMARK UNBOUND:                -0.975
REMARK  Name = 
REMARK  7 active torsions:
REMARK  status: ('A' for Active; 'I' for Inactive)
REMARK    1  A    between atoms: C_1  and  N_2
REMARK    2  A    between atoms: N_2  and  C_3
REMARK    3  A    between atoms: C_3  and  C_4
REMARK    4  A    between atoms: C_7  and  C_8
REMARK    5  A    between atoms: C_8  and  N_9
REMARK    6  A    between atoms: C_10  and  C_12
REMARK    7  A    between atoms: C_24  and  C_26
REMARK                            x       y       z     vdW  Elec       q    Type
REMARK                         _______ _______ _______ _____ _____    ______ ____
ROOT
ATOM      1  C   UNL     1      51.236   4.015  17.617  0.00  0.00    +0.000 A 
ATOM      2  C   UNL     1      50.379   5.124  17.533  0.00  0.00    +0.000 A 
ATOM      3  C   UNL     1      49.017   4.953  17.280  0.00  0.00    +0.000 A 
ATOM      4  C   UNL     1      48.484   3.669  17.119  0.00  0.00    +0.000 A 
ATOM      5  C   UNL     1      49.343   2.563  17.199  0.00  0.00    +0.000 A 
ATOM      6  C   UNL     1      50.706   2.733  17.455  0.00  0.00    +0.000 A 
ENDROOT
BRANCH   1   7
ATOM      7  C   UNL     1      52.719   4.215  17.816  0.00  0.00    +0.000 C 
BRANCH   7   9
ATOM      8  C   UNL     1      54.477   2.705  18.832  0.00  0.00    +0.000 C 
ATOM      9  N   UNL     1      53.360   3.628  18.998  0.00  0.00    +0.000 N 
ATOM     10  C   UNL     1      53.192   4.139  20.301  0.00  0.00    +0.000 C 
ATOM     11  O   UNL     1      53.960   3.832  21.216  0.00  0.00    +0.000 OA
BRANCH  10  12
ATOM     12  C   UNL     1      52.095   5.098  20.643  0.00  0.00    +0.000 A 
ATOM     13  C   UNL     1      50.863   4.709  21.178  0.00  0.00    +0.000 A 
ATOM     14  C   UNL     1      49.869   5.653  21.449  0.00  0.00    +0.000 A 
ATOM     15  C   UNL     1      50.128   7.009  21.274  0.00  0.00    +0.000 A 
ATOM     16  C   UNL     1      51.381   7.421  20.825  0.00  0.00    +0.000 A 
ATOM     17  C   UNL     1      52.355   6.470  20.502  0.00  0.00    +0.000 A 
ENDBRANCH  10  12
ENDBRANCH   7   9
ENDBRANCH   1   7
BRANCH   4  18
ATOM     18  C   UNL     1      47.026   3.474  16.787  0.00  0.00    +0.000 C 
BRANCH  18  19
ATOM     19  N   UNL     1      46.611   4.418  15.785  0.00  0.00    +0.000 N 
ATOM     20  C   UNL     1      46.768   4.169  14.446  0.00  0.00    +0.000 C 
ATOM     21  O   UNL     1      47.220   3.109  14.029  0.00  0.00    +0.000 OA
ATOM     22  H   UNL     1      46.448   5.370  16.098  0.00  0.00    +0.000 HD
BRANCH  20  23
ATOM     23  C   UNL     1      46.299   5.220  13.534  0.00  0.00    +0.000 A 
ATOM     24  C   UNL     1      47.139   6.276  13.211  0.00  0.00    +0.000 A 
ATOM     25  S   UNL     1      46.464   7.366  12.087  0.00  0.00    +0.000 S 
ATOM     26  C   UNL     1      45.002   6.497  12.036  0.00  0.00    +0.000 A 
ATOM     27  N   UNL     1      43.966   6.917  11.260  0.00  0.00    +0.000 NA
ATOM     28  C   UNL     1      42.905   6.185  11.343  0.00  0.00    +0.000 A 
ATOM     29  N   UNL     1      42.789   5.068  12.129  0.00  0.00    +0.000 N 
ATOM     30  C   UNL     1      43.818   4.589  12.901  0.00  0.00    +0.000 A 
ATOM     31  O   UNL     1      43.691   3.557  13.561  0.00  0.00    +0.000 OA
ATOM     32  C   UNL     1      45.032   5.380  12.852  0.00  0.00    +0.000 A 
ATOM     33  H   UNL     1      41.931   4.536  12.146  0.00  0.00    +0.000 HD
ENDBRANCH  20  23
ENDBRANCH  18  19
ENDBRANCH   4  18
TORSDOF 6
ENDMDL
MODEL 8
REMARK VINA RESULT:    -7.432      6.551     10.391
REMARK INTER + INTRA:         -11.014
REMARK INTER:                 -10.197
REMARK INTRA:                  -0.817
REMARK UNBOUND:                -0.975
REMARK  Name = 
REMARK  7 active torsions:
REMARK  status: ('A' for Active; 'I' for Inactive)
REMARK    1  A    between atoms: C_1  and  N_2
REMARK    2  A    between atoms: N_2  and  C_3
REMARK    3  A    between atoms: C_3  and  C_4
REMARK    4  A    between atoms: C_7  and  C_8
REMARK    5  A    between atoms: C_8  and  N_9
REMARK    6  A    between atoms: C_10  and  C_12
REMARK    7  A    between atoms: C_24  and  C_26
REMARK                            x       y       z     vdW  Elec       q    Type
REMARK                         _______ _______ _______ _____ _____    ______ ____
ROOT
ATOM      1  C   UNL     1      45.659   6.197  11.855  0.00  0.00    +0.000 A 
ATOM      2  C   UNL     1      44.561   6.697  11.134  0.00  0.00    +0.000 A 
ATOM      3  C   UNL     1      44.224   8.049  11.200  0.00  0.00    +0.000 A 
ATOM      4  C   UNL     1      44.986   8.931  11.976  0.00  0.00    +0.000 A 
ATOM      5  C   UNL     1      46.079   8.428  12.698  0.00  0.00    +0.000 A 
ATOM      6  C   UNL     1      46.419   7.075  12.631  0.00  0.00    +0.000 A 
ENDROOT
BRANCH   1   7
ATOM      7  C   UNL     1      45.969   4.720  11.837  0.00  0.00    +0.000 C 
BRANCH   7   9
ATOM      8  C   UNL     1      43.972   3.699  13.008  0.00  0.00    +0.000 C 
ATOM      9  N   UNL     1      44.857   3.763  11.850  0.00  0.00    +0.000 N 
ATOM     10  C   UNL     1      44.376   3.123  10.690  0.00  0.00    +0.000 C 
ATOM     11  O   UNL     1      43.272   2.572  10.671  0.00  0.00    +0.000 OA
BRANCH  10  12
ATOM     12  C   UNL     1      45.159   3.095   9.415  0.00  0.00    +0.000 A 
ATOM     13  C   UNL     1      45.496   4.240   8.686  0.00  0.00    +0.000 A 
ATOM     14  C   UNL     1      46.206   4.143   7.486  0.00  0.00    +0.000 A 
ATOM     15  C   UNL     1      46.665   2.906   7.046  0.00  0.00    +0.000 A 
ATOM     16  C   UNL     1      46.414   1.765   7.804  0.00  0.00    +0.000 A 
ATOM     17  C   UNL     1      45.656   1.857   8.977  0.00  0.00    +0.000 A 
ENDBRANCH  10  12
ENDBRANCH   7   9
ENDBRANCH   1   7
BRANCH   4  18
ATOM     18  C   UNL     1      44.597  10.383  12.101  0.00  0.00    +0.000 C 
BRANCH  18  19
ATOM     19  N   UNL     1      43.209  10.558  11.770  0.00  0.00    +0.000 N 
ATOM     20  C   UNL     1      42.654  11.801  11.611  0.00  0.00    +0.000 C 
ATOM     21  O   UNL     1      43.320  12.827  11.690  0.00  0.00    +0.000 OA
ATOM     22  H   UNL     1      42.602   9.757  11.918  0.00  0.00    +0.000 HD
BRANCH  20  23
ATOM     23  C   UNL     1      41.225  11.832  11.272  0.00  0.00    +0.000 A 
ATOM     24  C   UNL     1      40.829  11.719   9.948  0.00  0.00    +0.000 A 
ATOM     25  S   UNL     1      39.136  11.700   9.740  0.00  0.00    +0.000 S 
ATOM     26  C   UNL     1      38.872  11.902  11.409  0.00  0.00    +0.000 A 
ATOM     27  N   UNL     1      37.611  11.985  11.912  0.00  0.00    +0.000 NA
ATOM     28  C   UNL     1      37.556  12.173  13.189  0.00  0.00    +0.000 A 
ATOM     29  N   UNL     1      38.650  12.279  14.009  0.00  0.00    +0.000 N 
ATOM     30  C   UNL     1      39.939  12.167  13.550  0.00  0.00    +0.000 A 
ATOM     31  O   UNL     1      40.897  12.224  14.323  0.00  0.00    +0.000 OA
ATOM     32  C   UNL     1      40.058  11.965  12.120  0.00  0.00    +0.000 A 
ATOM     33  H   UNL     1      38.539  12.422  15.002  0.00  0.00    +0.000 HD
ENDBRANCH  20  23
ENDBRANCH  18  19
ENDBRANCH   4  18
TORSDOF 6
ENDMDL
MODEL 9
REMARK VINA RESULT:    -7.192      3.909      8.355
REMARK INTER + INTRA:         -10.690
REMARK INTER:                  -8.569
REMARK INTRA:                  -2.120
REMARK UNBOUND:                -0.975
REMARK  Name = 
REMARK  7 active torsions:
REMARK  status: ('A' for Active; 'I' for Inactive)
REMARK    1  A    between atoms: C_1  and  N_2
REMARK    2  A    between atoms: N_2  and  C_3
REMARK    3  A    between atoms: C_3  and  C_4
REMARK    4  A    between atoms: C_7  and  C_8
REMARK    5  A    between atoms: C_8  and  N_9
REMARK    6  A    between atoms: C_10  and  C_12
REMARK    7  A    between atoms: C_24  and  C_26
REMARK                            x       y       z     vdW  Elec       q    Type
REMARK                         _______ _______ _______ _____ _____    ______ ____
ROOT
ATOM      1  C   UNL     1      49.990   7.363  17.342  0.00  0.00    +0.000 A 
ATOM      2  C   UNL     1      50.048   6.790  16.061  0.00  0.00    +0.000 A 
ATOM      3  C   UNL     1      49.375   7.376  14.988  0.00  0.00    +0.000 A 
ATOM      4  C   UNL     1      48.642   8.555  15.173  0.00  0.00    +0.000 A 
ATOM      5  C   UNL     1      48.583   9.123  16.454  0.00  0.00    +0.000 A 
ATOM      6  C   UNL     1      49.258   8.538  17.528  0.00  0.00    +0.000 A 
ENDROOT
BRANCH   1   7
ATOM      7  C   UNL     1      50.658   6.680  18.511  0.00  0.00    +0.000 C 
BRANCH   7   9
ATOM      8  C   UNL     1      49.929   7.195  20.879  0.00  0.00    +0.000 C 
ATOM      9  N   UNL     1      49.852   6.349  19.692  0.00  0.00    +0.000 N 
ATOM     10  C   UNL     1      48.758   5.462  19.657  0.00  0.00    +0.000 C 
ATOM     11  O   UNL     1      47.924   5.433  20.565  0.00  0.00    +0.000 OA
BRANCH  10  12
ATOM     12  C   UNL     1      48.530   4.525  18.511  0.00  0.00    +0.000 A 
ATOM     13  C   UNL     1      49.356   3.433  18.226  0.00  0.00    +0.000 A 
ATOM     14  C   UNL     1      49.103   2.613  17.123  0.00  0.00    +0.000 A 
ATOM     15  C   UNL     1      47.970   2.822  16.343  0.00  0.00    +0.000 A 
ATOM     16  C   UNL     1      47.089   3.852  16.666  0.00  0.00    +0.000 A 
ATOM     17  C   UNL     1      47.373   4.705  17.737  0.00  0.00    +0.000 A 
ENDBRANCH  10  12
ENDBRANCH   7   9
ENDBRANCH   1   7
BRANCH   4  18
ATOM     18  C   UNL     1      47.864   9.166  14.035  0.00  0.00    +0.000 C 
BRANCH  18  19
ATOM     19  N   UNL     1      46.790   8.295  13.640  0.00  0.00    +0.000 N 
ATOM     20  C   UNL     1      46.801   7.629  12.442  0.00  0.00    +0.000 C 
ATOM     21  O   UNL     1      47.747   7.699  11.667  0.00  0.00    +0.000 OA
ATOM     22  H   UNL     1      45.915   8.394  14.147  0.00  0.00    +0.000 HD
BRANCH  20  23
ATOM     23  C   UNL     1      45.639   6.772  12.169  0.00  0.00    +0.000 A 
ATOM     24  C   UNL     1      44.484   7.327  11.640  0.00  0.00    +0.000 A 
ATOM     25  S   UNL     1      43.262   6.182  11.318  0.00  0.00    +0.000 S 
ATOM     26  C   UNL     1      44.213   4.911  11.929  0.00  0.00    +0.000 A 
ATOM     27  N   UNL     1      43.738   3.636  11.963  0.00  0.00    +0.000 NA
ATOM     28  C   UNL     1      44.549   2.777  12.485  0.00  0.00    +0.000 A 
ATOM     29  N   UNL     1      45.796   3.078  12.971  0.00  0.00    +0.000 N 
ATOM     30  C   UNL     1      46.328   4.342  12.927  0.00  0.00    +0.000 A 
ATOM     31  O   UNL     1      47.469   4.567  13.333  0.00  0.00    +0.000 OA
ATOM     32  C   UNL     1      45.454   5.349  12.359  0.00  0.00    +0.000 A 
ATOM     33  H   UNL     1      46.384   2.357  13.363  0.00  0.00    +0.000 HD
ENDBRANCH  20  23
ENDBRANCH  18  19
ENDBRANCH   4  18
TORSDOF 6
ENDMDL
