MODEL 1
REMARK VINA RESULT:    -8.205      0.000      0.000
REMARK INTER + INTRA:         -12.947
REMARK INTER:                 -11.803
REMARK INTRA:                  -1.145
REMARK UNBOUND:                -1.145
REMARK  Name = 
REMARK  8 active torsions:
REMARK  status: ('A' for Active; 'I' for Inactive)
REMARK    1  A    between atoms: N_1  and  C_2
REMARK    2  A    between atoms: C_2  and  C_3
REMARK    3  A    between atoms: C_3  and  N_4
REMARK    4  A    between atoms: C_3  and  C_17
REMARK    5  A    between atoms: C_5  and  C_7
REMARK    6  A    between atoms: C_20  and  O_21
REMARK    7  A    between atoms: O_21  and  C_22
REMARK    8  A    between atoms: C_22  and  C_23
REMARK                            x       y       z     vdW  Elec       q    Type
REMARK                         _______ _______ _______ _____ _____    ______ ____
ROOT
ATOM      1  C   UNL     1      47.661   6.882  13.515  0.00  0.00    +0.000 C 
ENDROOT
BRANCH   1   2
ATOM      2  C   UNL     1      46.742   6.040  12.631  0.00  0.00    +0.000 A 
ATOM      3  C   UNL     1      46.320   6.523  11.383  0.00  0.00    +0.000 A 
ATOM      4  C   UNL     1      45.452   5.772  10.587  0.00  0.00    +0.000 A 
ATOM      5  C   UNL     1      45.020   4.516  11.010  0.00  0.00    +0.000 A 
ATOM      6  C   UNL     1      45.395   4.046  12.269  0.00  0.00    +0.000 A 
ATOM      7  C   UNL     1      46.246   4.803  13.071  0.00  0.00    +0.000 A 
BRANCH   5   8
ATOM      8  O   UNL     1      44.236   3.825  10.125  0.00  0.00    +0.000 OA
BRANCH   8   9
ATOM      9  C   UNL     1      44.672   2.486   9.867  0.00  0.00    +0.000 C 
BRANCH   9  10
ATOM     10  C   UNL     1      45.540   2.418   8.631  0.00  0.00    +0.000 A 
ATOM     11  C   UNL     1      45.606   3.476   7.731  0.00  0.00    +0.000 A 
ATOM     12  C   UNL     1      46.410   3.349   6.602  0.00  0.00    +0.000 A 
ATOM     13  C   UNL     1      47.116   2.171   6.397  0.00  0.00    +0.000 A 
ATOM     14  C   UNL     1      46.984   1.160   7.329  0.00  0.00    +0.000 A 
ATOM     15  N   UNL     1      46.211   1.253   8.432  0.00  0.00    +0.000 NA
ENDBRANCH   9  10
ENDBRANCH   8   9
ENDBRANCH   5   8
ENDBRANCH   1   2
BRANCH   1  16
ATOM     16  N   UNL     1      47.677   6.325  14.869  0.00  0.00    +0.000 N 
ATOM     17  C   UNL     1      48.818   6.197  15.618  0.00  0.00    +0.000 C 
ATOM     18  O   UNL     1      49.904   6.629  15.247  0.00  0.00    +0.000 OA
ATOM     19  H   UNL     1      46.898   5.714  15.098  0.00  0.00    +0.000 HD
BRANCH  17  20
ATOM     20  C   UNL     1      48.672   5.556  16.930  0.00  0.00    +0.000 A 
ATOM     21  C   UNL     1      48.863   4.185  17.046  0.00  0.00    +0.000 A 
ATOM     22  S   UNL     1      48.608   3.590  18.622  0.00  0.00    +0.000 S 
ATOM     23  C   UNL     1      48.198   5.137  19.198  0.00  0.00    +0.000 A 
ATOM     24  N   UNL     1      47.800   5.321  20.486  0.00  0.00    +0.000 NA
ATOM     25  C   UNL     1      47.486   6.540  20.777  0.00  0.00    +0.000 A 
ATOM     26  N   UNL     1      47.559   7.596  19.905  0.00  0.00    +0.000 N 
ATOM     27  C   UNL     1      48.016   7.466  18.615  0.00  0.00    +0.000 A 
ATOM     28  O   UNL     1      48.183   8.441  17.892  0.00  0.00    +0.000 OA
ATOM     29  C   UNL     1      48.314   6.104  18.216  0.00  0.00    +0.000 A 
ATOM     30  H   UNL     1      47.337   8.533  20.207  0.00  0.00    +0.000 HD
ENDBRANCH  17  20
ENDBRANCH   1  16
BRANCH   1  31
ATOM     31  C   UNL     1      47.204   8.376  13.469  0.00  0.00    +0.000 C 
BRANCH  31  32
ATOM     32  N   UNL     1      47.198   9.063  14.770  0.00  0.00    +0.000 NA
ATOM     33  H   UNL     1      47.128  10.067  14.606  0.00  0.00    +0.000 HD
ATOM     34  H   UNL     1      48.097   8.920  15.231  0.00  0.00    +0.000 HD
ENDBRANCH  31  32
ENDBRANCH   1  31
TORSDOF 8
ENDMDL
MODEL 2
REMARK VINA RESULT:    -8.129      1.879      2.306
REMARK INTER + INTRA:         -12.838
REMARK INTER:                 -12.156
REMARK INTRA:                  -0.682
REMARK UNBOUND:                -1.145
REMARK  Name = 
REMARK  8 active torsions:
REMARK  status: ('A' for Active; 'I' for Inactive)
REMARK    1  A    between atoms: N_1  and  C_2
REMARK    2  A    between atoms: C_2  and  C_3
REMARK    3  A    between atoms: C_3  and  N_4
REMARK    4  A    between atoms: C_3  and  C_17
REMARK    5  A    between atoms: C_5  and  C_7
REMARK    6  A    between atoms: C_20  and  O_21
REMARK    7  A    between atoms: O_21  and  C_22
REMARK    8  A    between atoms: C_22  and  C_23
REMARK                            x       y       z     vdW  Elec       q    Type
REMARK                         _______ _______ _______ _____ _____    ______ ____
ROOT
ATOM      1  C   UNL     1      46.551   7.527  12.824  0.00  0.00    +0.000 C 
ENDROOT
BRANCH   1   2
ATOM      2  C   UNL     1      45.971   6.295  12.129  0.00  0.00    +0.000 A 
ATOM      3  C   UNL     1      45.950   6.215  10.728  0.00  0.00    +0.000 A 
ATOM      4  C   UNL     1      45.389   5.106  10.089  0.00  0.00    +0.000 A 
ATOM      5  C   UNL     1      44.871   4.050  10.838  0.00  0.00    +0.000 A 
ATOM      6  C   UNL     1      44.843   4.141  12.230  0.00  0.00    +0.000 A 
ATOM      7  C   UNL     1      45.386   5.254  12.868  0.00  0.00    +0.000 A 
BRANCH   5   8
ATOM      8  O   UNL     1      44.416   2.977  10.121  0.00  0.00    +0.000 OA
BRANCH   8   9
ATOM      9  C   UNL     1      44.350   3.194   8.707  0.00  0.00    +0.000 C 
BRANCH   9  10
ATOM     10  C   UNL     1      45.554   2.610   8.004  0.00  0.00    +0.000 A 
ATOM     11  C   UNL     1      46.260   3.333   7.049  0.00  0.00    +0.000 A 
ATOM     12  C   UNL     1      47.351   2.737   6.424  0.00  0.00    +0.000 A 
ATOM     13  C   UNL     1      47.701   1.435   6.759  0.00  0.00    +0.000 A 
ATOM     14  C   UNL     1      46.939   0.777   7.705  0.00  0.00    +0.000 A 
ATOM     15  N   UNL     1      45.875   1.329   8.327  0.00  0.00    +0.000 NA
ENDBRANCH   9  10
ENDBRANCH   8   9
ENDBRANCH   5   8
ENDBRANCH   1   2
BRANCH   1  16
ATOM     16  N   UNL     1      47.095   7.139  14.126  0.00  0.00    +0.000 N 
ATOM     17  C   UNL     1      48.374   6.677  14.302  0.00  0.00    +0.000 C 
ATOM     18  O   UNL     1      49.194   6.642  13.391  0.00  0.00    +0.000 OA
ATOM     19  H   UNL     1      46.407   6.882  14.828  0.00  0.00    +0.000 HD
BRANCH  17  20
ATOM     20  C   UNL     1      48.742   6.267  15.661  0.00  0.00    +0.000 A 
ATOM     21  C   UNL     1      49.675   7.014  16.370  0.00  0.00    +0.000 A 
ATOM     22  S   UNL     1      50.031   6.378  17.911  0.00  0.00    +0.000 S 
ATOM     23  C   UNL     1      48.980   5.062  17.670  0.00  0.00    +0.000 A 
ATOM     24  N   UNL     1      48.864   4.080  18.604  0.00  0.00    +0.000 NA
ATOM     25  C   UNL     1      48.058   3.125  18.275  0.00  0.00    +0.000 A 
ATOM     26  N   UNL     1      47.336   3.078  17.110  0.00  0.00    +0.000 N 
ATOM     27  C   UNL     1      47.375   4.079  16.169  0.00  0.00    +0.000 A 
ATOM     28  O   UNL     1      46.635   4.071  15.193  0.00  0.00    +0.000 OA
ATOM     29  C   UNL     1      48.320   5.141  16.457  0.00  0.00    +0.000 A 
ATOM     30  H   UNL     1      46.692   2.322  16.931  0.00  0.00    +0.000 HD
ENDBRANCH  17  20
ENDBRANCH   1  16
BRANCH   1  31
ATOM     31  C   UNL     1      45.454   8.636  12.919  0.00  0.00    +0.000 C 
BRANCH  31  32
ATOM     32  N   UNL     1      45.887   9.974  12.484  0.00  0.00    +0.000 NA
ATOM     33  H   UNL     1      45.061  10.565  12.387  0.00  0.00    +0.000 HD
ATOM     34  H   UNL     1      46.293   9.911  11.550  0.00  0.00    +0.000 HD
ENDBRANCH  31  32
ENDBRANCH   1  31
TORSDOF 8
ENDMDL
MODEL 3
REMARK VINA RESULT:    -7.751      1.509      2.116
REMARK INTER + INTRA:         -12.295
REMARK INTER:                 -11.284
REMARK INTRA:                  -1.011
REMARK UNBOUND:                -1.145
REMARK  Name = 
REMARK  8 active torsions:
REMARK  status: ('A' for Active; 'I' for Inactive)
REMARK    1  A    between atoms: N_1  and  C_2
REMARK    2  A    between atoms: C_2  and  C_3
REMARK    3  A    between atoms: C_3  and  N_4
REMARK    4  A    between atoms: C_3  and  C_17
REMARK    5  A    between atoms: C_5  and  C_7
REMARK    6  A    between atoms: C_20  and  O_21
REMARK    7  A    between atoms: O_21  and  C_22
REMARK    8  A    between atoms: C_22  and  C_23
REMARK                            x       y       z     vdW  Elec       q    Type
REMARK                         _______ _______ _______ _____ _____    ______ ____
ROOT
ATOM      1  C   UNL     1      48.246   7.166  13.529  0.00  0.00    +0.000 C 
ENDROOT
BRANCH   1   2
ATOM      2  C   UNL     1      47.191   6.278  12.871  0.00  0.00    +0.000 A 
ATOM      3  C   UNL     1      46.574   6.676  11.675  0.00  0.00    +0.000 A 
ATOM      4  C   UNL     1      45.584   5.883  11.089  0.00  0.00    +0.000 A 
ATOM      5  C   UNL     1      45.219   4.669  11.670  0.00  0.00    +0.000 A 
ATOM      6  C   UNL     1      45.791   4.287  12.884  0.00  0.00    +0.000 A 
ATOM      7  C   UNL     1      46.766   5.085  13.479  0.00  0.00    +0.000 A 
BRANCH   5   8
ATOM      8  O   UNL     1      44.298   3.930  10.979  0.00  0.00    +0.000 OA
BRANCH   8   9
ATOM      9  C   UNL     1      44.181   4.273   9.594  0.00  0.00    +0.000 C 
BRANCH   9  10
ATOM     10  C   UNL     1      45.141   3.471   8.745  0.00  0.00    +0.000 A 
ATOM     11  C   UNL     1      45.311   2.104   8.935  0.00  0.00    +0.000 A 
ATOM     12  C   UNL     1      46.220   1.422   8.133  0.00  0.00    +0.000 A 
ATOM     13  C   UNL     1      46.942   2.120   7.174  0.00  0.00    +0.000 A 
ATOM     14  C   UNL     1      46.729   3.480   7.059  0.00  0.00    +0.000 A 
ATOM     15  N   UNL     1      45.855   4.169   7.823  0.00  0.00    +0.000 NA
ENDBRANCH   9  10
ENDBRANCH   8   9
ENDBRANCH   5   8
ENDBRANCH   1   2
BRANCH   1  16
ATOM     16  N   UNL     1      48.036   7.178  14.978  0.00  0.00    +0.000 N 
ATOM     17  C   UNL     1      49.004   6.829  15.883  0.00  0.00    +0.000 C 
ATOM     18  O   UNL     1      50.156   6.569  15.552  0.00  0.00    +0.000 OA
ATOM     19  H   UNL     1      47.068   7.104  15.279  0.00  0.00    +0.000 HD
BRANCH  17  20
ATOM     20  C   UNL     1      48.612   6.830  17.297  0.00  0.00    +0.000 A 
ATOM     21  C   UNL     1      48.224   8.021  17.898  0.00  0.00    +0.000 A 
ATOM     22  S   UNL     1      47.850   7.862  19.553  0.00  0.00    +0.000 S 
ATOM     23  C   UNL     1      48.227   6.203  19.534  0.00  0.00    +0.000 A 
ATOM     24  N   UNL     1      48.180   5.462  20.674  0.00  0.00    +0.000 NA
ATOM     25  C   UNL     1      48.525   4.227  20.521  0.00  0.00    +0.000 A 
ATOM     26  N   UNL     1      48.885   3.659  19.326  0.00  0.00    +0.000 N 
ATOM     27  C   UNL     1      48.884   4.354  18.140  0.00  0.00    +0.000 A 
ATOM     28  O   UNL     1      49.097   3.797  17.070  0.00  0.00    +0.000 OA
ATOM     29  C   UNL     1      48.574   5.764  18.269  0.00  0.00    +0.000 A 
ATOM     30  H   UNL     1      49.105   2.675  19.267  0.00  0.00    +0.000 HD
ENDBRANCH  17  20
ENDBRANCH   1  16
BRANCH   1  31
ATOM     31  C   UNL     1      48.202   8.591  12.888  0.00  0.00    +0.000 C 
BRANCH  31  32
ATOM     32  N   UNL     1      47.440   9.591  13.653  0.00  0.00    +0.000 NA
ATOM     33  H   UNL     1      48.089  10.299  13.996  0.00  0.00    +0.000 HD
ATOM     34  H   UNL     1      47.045   9.152  14.484  0.00  0.00    +0.000 HD
ENDBRANCH  31  32
ENDBRANCH   1  31
TORSDOF 8
ENDMDL
MODEL 4
REMARK VINA RESULT:    -7.338      1.589      2.257
REMARK INTER + INTRA:         -11.700
REMARK INTER:                 -10.182
REMARK INTRA:                  -1.518
REMARK UNBOUND:                -1.145
REMARK  Name = 
REMARK  8 active torsions:
REMARK  status: ('A' for Active; 'I' for Inactive)
REMARK    1  A    between atoms: N_1  and  C_2
REMARK    2  A    between atoms: C_2  and  C_3
REMARK    3  A    between atoms: C_3  and  N_4
REMARK    4  A    between atoms: C_3  and  C_17
REMARK    5  A    between atoms: C_5  and  C_7
REMARK    6  A    between atoms: C_20  and  O_21
REMARK    7  A    between atoms: O_21  and  C_22
REMARK    8  A    between atoms: C_22  and  C_23
REMARK                            x       y       z     vdW  Elec       q    Type
REMARK                         _______ _______ _______ _____ _____    ______ ____
ROOT
ATOM      1  C   UNL     1      48.571   6.818  14.060  0.00  0.00    +0.000 C 
ENDROOT
BRANCH   1   2
ATOM      2  C   UNL     1      47.361   6.176  13.382  0.00  0.00    +0.000 A 
ATOM      3  C   UNL     1      47.032   4.836  13.637  0.00  0.00    +0.000 A 
ATOM      4  C   UNL     1      45.949   4.235  12.992  0.00  0.00    +0.000 A 
ATOM      5  C   UNL     1      45.159   4.972  12.110  0.00  0.00    +0.000 A 
ATOM      6  C   UNL     1      45.504   6.291  11.812  0.00  0.00    +0.000 A 
ATOM      7  C   UNL     1      46.596   6.885  12.441  0.00  0.00    +0.000 A 
BRANCH   5   8
ATOM      8  O   UNL     1      44.075   4.317  11.590  0.00  0.00    +0.000 OA
BRANCH   8   9
ATOM      9  C   UNL     1      43.818   4.601  10.210  0.00  0.00    +0.000 C 
BRANCH   9  10
ATOM     10  C   UNL     1      44.714   3.789   9.304  0.00  0.00    +0.000 A 
ATOM     11  C   UNL     1      44.832   2.410   9.444  0.00  0.00    +0.000 A 
ATOM     12  C   UNL     1      45.685   1.718   8.591  0.00  0.00    +0.000 A 
ATOM     13  C   UNL     1      46.405   2.418   7.631  0.00  0.00    +0.000 A 
ATOM     14  C   UNL     1      46.246   3.788   7.567  0.00  0.00    +0.000 A 
ATOM     15  N   UNL     1      45.427   4.487   8.381  0.00  0.00    +0.000 NA
ENDBRANCH   9  10
ENDBRANCH   8   9
ENDBRANCH   5   8
ENDBRANCH   1   2
BRANCH   1  16
ATOM     16  N   UNL     1      48.269   7.050  15.474  0.00  0.00    +0.000 N 
ATOM     17  C   UNL     1      48.923   6.416  16.499  0.00  0.00    +0.000 C 
ATOM     18  O   UNL     1      49.881   5.674  16.312  0.00  0.00    +0.000 OA
ATOM     19  H   UNL     1      47.339   7.411  15.668  0.00  0.00    +0.000 HD
BRANCH  17  20
ATOM     20  C   UNL     1      48.454   6.711  17.858  0.00  0.00    +0.000 A 
ATOM     21  C   UNL     1      48.259   5.667  18.753  0.00  0.00    +0.000 A 
ATOM     22  S   UNL     1      47.665   6.170  20.270  0.00  0.00    +0.000 S 
ATOM     23  C   UNL     1      47.613   7.795  19.771  0.00  0.00    +0.000 A 
ATOM     24  N   UNL     1      47.126   8.764  20.592  0.00  0.00    +0.000 NA
ATOM     25  C   UNL     1      47.113   9.946  20.072  0.00  0.00    +0.000 A 
ATOM     26  N   UNL     1      47.570  10.253  18.816  0.00  0.00    +0.000 N 
ATOM     27  C   UNL     1      48.129   9.317  17.978  0.00  0.00    +0.000 A 
ATOM     28  O   UNL     1      48.636   9.635  16.909  0.00  0.00    +0.000 OA
ATOM     29  C   UNL     1      48.101   7.960  18.487  0.00  0.00    +0.000 A 
ATOM     30  H   UNL     1      47.569  11.206  18.484  0.00  0.00    +0.000 HD
ENDBRANCH  17  20
ENDBRANCH   1  16
BRANCH   1  31
ATOM     31  C   UNL     1      48.970   8.119  13.294  0.00  0.00    +0.000 C 
BRANCH  31  32
ATOM     32  N   UNL     1      48.812   9.365  14.062  0.00  0.00    +0.000 NA
ATOM     33  H   UNL     1      47.818   9.580  14.130  0.00  0.00    +0.000 HD
ATOM     34  H   UNL     1      49.228  10.137  13.542  0.00  0.00    +0.000 HD
ENDBRANCH  31  32
ENDBRANCH   1  31
TORSDOF 8
ENDMDL
MODEL 5
REMARK VINA RESULT:    -7.013      2.139      2.630
REMARK INTER + INTRA:         -11.232
REMARK INTER:                 -10.154
REMARK INTRA:                  -1.078
REMARK UNBOUND:                -1.145
REMARK  Name = 
REMARK  8 active torsions:
REMARK  status: ('A' for Active; 'I' for Inactive)
REMARK    1  A    between atoms: N_1  and  C_2
REMARK    2  A    between atoms: C_2  and  C_3
REMARK    3  A    between atoms: C_3  and  N_4
REMARK    4  A    between atoms: C_3  and  C_17
REMARK    5  A    between atoms: C_5  and  C_7
REMARK    6  A    between atoms: C_20  and  O_21
REMARK    7  A    between atoms: O_21  and  C_22
REMARK    8  A    between atoms: C_22  and  C_23
REMARK                            x       y       z     vdW  Elec       q    Type
REMARK                         _______ _______ _______ _____ _____    ______ ____
ROOT
ATOM      1  C   UNL     1      48.010   7.617  13.280  0.00  0.00    +0.000 C 
ENDROOT
BRANCH   1   2
ATOM      2  C   UNL     1      47.059   6.551  12.737  0.00  0.00    +0.000 A 
ATOM      3  C   UNL     1      46.191   6.850  11.675  0.00  0.00    +0.000 A 
ATOM      4  C   UNL     1      45.295   5.889  11.199  0.00  0.00    +0.000 A 
ATOM      5  C   UNL     1      45.276   4.610  11.753  0.00  0.00    +0.000 A 
ATOM      6  C   UNL     1      46.100   4.316  12.839  0.00  0.00    +0.000 A 
ATOM      7  C   UNL     1      46.981   5.279  13.327  0.00  0.00    +0.000 A 
BRANCH   5   8
ATOM      8  O   UNL     1      44.419   3.718  11.165  0.00  0.00    +0.000 OA
BRANCH   8   9
ATOM      9  C   UNL     1      44.113   4.005   9.796  0.00  0.00    +0.000 C 
BRANCH   9  10
ATOM     10  C   UNL     1      45.113   3.363   8.862  0.00  0.00    +0.000 A 
ATOM     11  C   UNL     1      45.389   2.001   8.918  0.00  0.00    +0.000 A 
ATOM     12  C   UNL     1      46.331   1.470   8.043  0.00  0.00    +0.000 A 
ATOM     13  C   UNL     1      46.979   2.310   7.145  0.00  0.00    +0.000 A 
ATOM     14  C   UNL     1      46.661   3.654   7.164  0.00  0.00    +0.000 A 
ATOM     15  N   UNL     1      45.753   4.198   8.002  0.00  0.00    +0.000 NA
ENDBRANCH   9  10
ENDBRANCH   8   9
ENDBRANCH   5   8
ENDBRANCH   1   2
BRANCH   1  16
ATOM     16  N   UNL     1      48.899   7.013  14.275  0.00  0.00    +0.000 N 
ATOM     17  C   UNL     1      49.946   7.681  14.854  0.00  0.00    +0.000 C 
ATOM     18  O   UNL     1      50.163   8.871  14.654  0.00  0.00    +0.000 OA
ATOM     19  H   UNL     1      48.945   5.998  14.260  0.00  0.00    +0.000 HD
BRANCH  17  20
ATOM     20  C   UNL     1      50.782   6.911  15.784  0.00  0.00    +0.000 A 
ATOM     21  C   UNL     1      52.150   7.145  15.824  0.00  0.00    +0.000 A 
ATOM     22  S   UNL     1      52.984   6.135  16.916  0.00  0.00    +0.000 S 
ATOM     23  C   UNL     1      51.550   5.326  17.346  0.00  0.00    +0.000 A 
ATOM     24  N   UNL     1      51.571   4.277  18.212  0.00  0.00    +0.000 NA
ATOM     25  C   UNL     1      50.418   3.735  18.420  0.00  0.00    +0.000 A 
ATOM     26  N   UNL     1      49.240   4.164  17.863  0.00  0.00    +0.000 N 
ATOM     27  C   UNL     1      49.164   5.259  17.035  0.00  0.00    +0.000 A 
ATOM     28  O   UNL     1      48.087   5.693  16.643  0.00  0.00    +0.000 OA
ATOM     29  C   UNL     1      50.443   5.860  16.711  0.00  0.00    +0.000 A 
ATOM     30  H   UNL     1      48.365   3.721  18.099  0.00  0.00    +0.000 HD
ENDBRANCH  17  20
ENDBRANCH   1  16
BRANCH   1  31
ATOM     31  C   UNL     1      47.183   8.817  13.841  0.00  0.00    +0.000 C 
BRANCH  31  32
ATOM     32  N   UNL     1      47.623  10.144  13.378  0.00  0.00    +0.000 NA
ATOM     33  H   UNL     1      48.642  10.163  13.374  0.00  0.00    +0.000 HD
ATOM     34  H   UNL     1      47.336  10.850  14.055  0.00  0.00    +0.000 HD
ENDBRANCH  31  32
ENDBRANCH   1  31
TORSDOF 8
ENDMDL
MODEL 6
REMARK VINA RESULT:    -6.832      3.452      8.374
REMARK INTER + INTRA:         -10.973
REMARK INTER:                  -9.849
REMARK INTRA:                  -1.124
REMARK UNBOUND:                -1.145
REMARK  Name = 
REMARK  8 active torsions:
REMARK  status: ('A' for Active; 'I' for Inactive)
REMARK    1  A    between atoms: N_1  and  C_2
REMARK    2  A    between atoms: C_2  and  C_3
REMARK    3  A    between atoms: C_3  and  N_4
REMARK    4  A    between atoms: C_3  and  C_17
REMARK    5  A    between atoms: C_5  and  C_7
REMARK    6  A    between atoms: C_20  and  O_21
REMARK    7  A    between atoms: O_21  and  C_22
REMARK    8  A    between atoms: C_22  and  C_23
REMARK                            x       y       z     vdW  Elec       q    Type
REMARK                         _______ _______ _______ _____ _____    ______ ____
ROOT
ATOM      1  C   UNL     1      48.426   7.804  12.601  0.00  0.00    +0.000 C 
ENDROOT
BRANCH   1   2
ATOM      2  C   UNL     1      48.861   7.260  13.962  0.00  0.00    +0.000 A 
ATOM      3  C   UNL     1      48.105   6.266  14.602  0.00  0.00    +0.000 A 
ATOM      4  C   UNL     1      48.479   5.791  15.862  0.00  0.00    +0.000 A 
ATOM      5  C   UNL     1      49.628   6.277  16.484  0.00  0.00    +0.000 A 
ATOM      6  C   UNL     1      50.359   7.299  15.879  0.00  0.00    +0.000 A 
ATOM      7  C   UNL     1      49.977   7.786  14.631  0.00  0.00    +0.000 A 
BRANCH   5   8
ATOM      8  O   UNL     1      49.952   5.694  17.679  0.00  0.00    +0.000 OA
BRANCH   8   9
ATOM      9  C   UNL     1      49.514   4.337  17.814  0.00  0.00    +0.000 C 
BRANCH   9  10
ATOM     10  C   UNL     1      50.685   3.380  17.834  0.00  0.00    +0.000 A 
ATOM     11  C   UNL     1      50.570   2.081  17.355  0.00  0.00    +0.000 A 
ATOM     12  C   UNL     1      51.678   1.241  17.414  0.00  0.00    +0.000 A 
ATOM     13  C   UNL     1      52.864   1.716  17.960  0.00  0.00    +0.000 A 
ATOM     14  C   UNL     1      52.893   3.013  18.431  0.00  0.00    +0.000 A 
ATOM     15  N   UNL     1      51.834   3.850  18.387  0.00  0.00    +0.000 NA
ENDBRANCH   9  10
ENDBRANCH   8   9
ENDBRANCH   5   8
ENDBRANCH   1   2
BRANCH   1  16
ATOM     16  N   UNL     1      47.689   6.767  11.876  0.00  0.00    +0.000 N 
ATOM     17  C   UNL     1      46.358   6.866  11.565  0.00  0.00    +0.000 C 
ATOM     18  O   UNL     1      45.701   7.877  11.788  0.00  0.00    +0.000 OA
ATOM     19  H   UNL     1      48.088   5.834  11.925  0.00  0.00    +0.000 HD
BRANCH  17  20
ATOM     20  C   UNL     1      45.753   5.709  10.894  0.00  0.00    +0.000 A 
ATOM     21  C   UNL     1      45.860   5.588   9.514  0.00  0.00    +0.000 A 
ATOM     22  S   UNL     1      45.062   4.220   8.885  0.00  0.00    +0.000 S 
ATOM     23  C   UNL     1      44.515   3.762  10.429  0.00  0.00    +0.000 A 
ATOM     24  N   UNL     1      43.702   2.683  10.592  0.00  0.00    +0.000 NA
ATOM     25  C   UNL     1      43.335   2.472  11.812  0.00  0.00    +0.000 A 
ATOM     26  N   UNL     1      43.730   3.224  12.888  0.00  0.00    +0.000 N 
ATOM     27  C   UNL     1      44.601   4.282  12.778  0.00  0.00    +0.000 A 
ATOM     28  O   UNL     1      45.031   4.865  13.766  0.00  0.00    +0.000 OA
ATOM     29  C   UNL     1      44.987   4.606  11.418  0.00  0.00    +0.000 A 
ATOM     30  H   UNL     1      43.440   2.981  13.824  0.00  0.00    +0.000 HD
ENDBRANCH  17  20
ENDBRANCH   1  16
BRANCH   1  31
ATOM     31  C   UNL     1      49.677   8.328  11.826  0.00  0.00    +0.000 C 
BRANCH  31  32
ATOM     32  N   UNL     1      50.553   7.278  11.280  0.00  0.00    +0.000 NA
ATOM     33  H   UNL     1      51.155   7.696  10.572  0.00  0.00    +0.000 HD
ATOM     34  H   UNL     1      49.986   6.588  10.789  0.00  0.00    +0.000 HD
ENDBRANCH  31  32
ENDBRANCH   1  31
TORSDOF 8
ENDMDL
MODEL 7
REMARK VINA RESULT:    -6.567      2.135      2.824
REMARK INTER + INTRA:         -10.591
REMARK INTER:                  -9.620
REMARK INTRA:                  -0.972
REMARK UNBOUND:                -1.145
REMARK  Name = 
REMARK  8 active torsions:
REMARK  status: ('A' for Active; 'I' for Inactive)
REMARK    1  A    between atoms: N_1  and  C_2
REMARK    2  A    between atoms: C_2  and  C_3
REMARK    3  A    between atoms: C_3  and  N_4
REMARK    4  A    between atoms: C_3  and  C_17
REMARK    5  A    between atoms: C_5  and  C_7
REMARK    6  A    between atoms: C_20  and  O_21
REMARK    7  A    between atoms: O_21  and  C_22
REMARK    8  A    between atoms: C_22  and  C_23
REMARK                            x       y       z     vdW  Elec       q    Type
REMARK                         _______ _______ _______ _____ _____    ______ ____
ROOT
ATOM      1  C   UNL     1      48.589   8.285  14.057  0.00  0.00    +0.000 C 
ENDROOT
BRANCH   1   2
ATOM      2  C   UNL     1      47.455   7.828  13.140  0.00  0.00    +0.000 A 
ATOM      3  C   UNL     1      47.658   6.780  12.229  0.00  0.00    +0.000 A 
ATOM      4  C   UNL     1      46.635   6.383  11.364  0.00  0.00    +0.000 A 
ATOM      5  C   UNL     1      45.388   7.003  11.419  0.00  0.00    +0.000 A 
ATOM      6  C   UNL     1      45.189   8.077  12.287  0.00  0.00    +0.000 A 
ATOM      7  C   UNL     1      46.215   8.486  13.137  0.00  0.00    +0.000 A 
BRANCH   5   8
ATOM      8  O   UNL     1      44.429   6.491  10.587  0.00  0.00    +0.000 OA
BRANCH   8   9
ATOM      9  C   UNL     1      44.071   5.132  10.862  0.00  0.00    +0.000 C 
BRANCH   9  10
ATOM     10  C   UNL     1      44.653   4.190   9.834  0.00  0.00    +0.000 A 
ATOM     11  C   UNL     1      44.604   2.811  10.001  0.00  0.00    +0.000 A 
ATOM     12  C   UNL     1      45.171   1.994   9.028  0.00  0.00    +0.000 A 
ATOM     13  C   UNL     1      45.781   2.574   7.922  0.00  0.00    +0.000 A 
ATOM     14  C   UNL     1      45.804   3.952   7.837  0.00  0.00    +0.000 A 
ATOM     15  N   UNL     1      45.263   4.769   8.766  0.00  0.00    +0.000 NA
ENDBRANCH   9  10
ENDBRANCH   8   9
ENDBRANCH   5   8
ENDBRANCH   1   2
BRANCH   1  16
ATOM     16  N   UNL     1      48.642   7.416  15.235  0.00  0.00    +0.000 N 
ATOM     17  C   UNL     1      49.805   6.884  15.728  0.00  0.00    +0.000 C 
ATOM     18  O   UNL     1      50.908   7.173  15.275  0.00  0.00    +0.000 OA
ATOM     19  H   UNL     1      47.777   6.932  15.459  0.00  0.00    +0.000 HD
BRANCH  17  20
ATOM     20  C   UNL     1      49.677   5.978  16.876  0.00  0.00    +0.000 A 
ATOM     21  C   UNL     1      50.554   6.104  17.945  0.00  0.00    +0.000 A 
ATOM     22  S   UNL     1      50.307   4.947  19.172  0.00  0.00    +0.000 S 
ATOM     23  C   UNL     1      49.043   4.214  18.300  0.00  0.00    +0.000 A 
ATOM     24  N   UNL     1      48.424   3.097  18.770  0.00  0.00    +0.000 NA
ATOM     25  C   UNL     1      47.508   2.628  17.990  0.00  0.00    +0.000 A 
ATOM     26  N   UNL     1      47.135   3.190  16.796  0.00  0.00    +0.000 N 
ATOM     27  C   UNL     1      47.688   4.352  16.315  0.00  0.00    +0.000 A 
ATOM     28  O   UNL     1      47.258   4.898  15.305  0.00  0.00    +0.000 OA
ATOM     29  C   UNL     1      48.773   4.881  17.118  0.00  0.00    +0.000 A 
ATOM     30  H   UNL     1      46.381   2.795  16.252  0.00  0.00    +0.000 HD
ENDBRANCH  17  20
ENDBRANCH   1  16
BRANCH   1  31
ATOM     31  C   UNL     1      48.397   9.794  14.413  0.00  0.00    +0.000 C 
BRANCH  31  32
ATOM     32  N   UNL     1      48.069  10.062  15.822  0.00  0.00    +0.000 NA
ATOM     33  H   UNL     1      48.791   9.643  16.408  0.00  0.00    +0.000 HD
ATOM     34  H   UNL     1      47.203   9.580  16.065  0.00  0.00    +0.000 HD
ENDBRANCH  31  32
ENDBRANCH   1  31
TORSDOF 8
ENDMDL
MODEL 8
REMARK VINA RESULT:    -6.525      3.686     10.096
REMARK INTER + INTRA:         -10.530
REMARK INTER:                  -9.688
REMARK INTRA:                  -0.842
REMARK UNBOUND:                -1.145
REMARK  Name = 
REMARK  8 active torsions:
REMARK  status: ('A' for Active; 'I' for Inactive)
REMARK    1  A    between atoms: N_1  and  C_2
REMARK    2  A    between atoms: C_2  and  C_3
REMARK    3  A    between atoms: C_3  and  N_4
REMARK    4  A    between atoms: C_3  and  C_17
REMARK    5  A    between atoms: C_5  and  C_7
REMARK    6  A    between atoms: C_20  and  O_21
REMARK    7  A    between atoms: O_21  and  C_22
REMARK    8  A    between atoms: C_22  and  C_23
REMARK                            x       y       z     vdW  Elec       q    Type
REMARK                         _______ _______ _______ _____ _____    ______ ____
ROOT
ATOM      1  C   UNL     1      48.309   4.527  16.275  0.00  0.00    +0.000 C 
ENDROOT
BRANCH   1   2
ATOM      2  C   UNL     1      48.413   5.339  17.566  0.00  0.00    +0.000 A 
ATOM      3  C   UNL     1      47.344   5.365  18.475  0.00  0.00    +0.000 A 
ATOM      4  C   UNL     1      47.421   6.134  19.640  0.00  0.00    +0.000 A 
ATOM      5  C   UNL     1      48.577   6.859  19.928  0.00  0.00    +0.000 A 
ATOM      6  C   UNL     1      49.626   6.878  19.009  0.00  0.00    +0.000 A 
ATOM      7  C   UNL     1      49.543   6.127  17.839  0.00  0.00    +0.000 A 
BRANCH   5   8
ATOM      8  O   UNL     1      48.585   7.516  21.129  0.00  0.00    +0.000 OA
BRANCH   8   9
ATOM      9  C   UNL     1      47.313   8.041  21.525  0.00  0.00    +0.000 C 
BRANCH   9  10
ATOM     10  C   UNL     1      47.213   9.521  21.235  0.00  0.00    +0.000 A 
ATOM     11  C   UNL     1      46.607   9.995  20.077  0.00  0.00    +0.000 A 
ATOM     12  C   UNL     1      46.559  11.368  19.856  0.00  0.00    +0.000 A 
ATOM     13  C   UNL     1      47.126  12.229  20.788  0.00  0.00    +0.000 A 
ATOM     14  C   UNL     1      47.725  11.679  21.904  0.00  0.00    +0.000 A 
ATOM     15  N   UNL     1      47.788  10.352  22.145  0.00  0.00    +0.000 NA
ENDBRANCH   9  10
ENDBRANCH   8   9
ENDBRANCH   5   8
ENDBRANCH   1   2
BRANCH   1  16
ATOM     16  N   UNL     1      47.368   5.183  15.364  0.00  0.00    +0.000 N 
ATOM     17  C   UNL     1      47.118   4.739  14.091  0.00  0.00    +0.000 C 
ATOM     18  O   UNL     1      47.593   3.698  13.649  0.00  0.00    +0.000 OA
ATOM     19  H   UNL     1      47.181   6.162  15.561  0.00  0.00    +0.000 HD
BRANCH  17  20
ATOM     20  C   UNL     1      46.199   5.548  13.283  0.00  0.00    +0.000 A 
ATOM     21  C   UNL     1      46.470   6.896  13.084  0.00  0.00    +0.000 A 
ATOM     22  S   UNL     1      45.282   7.705  12.168  0.00  0.00    +0.000 S 
ATOM     23  C   UNL     1      44.344   6.291  12.038  0.00  0.00    +0.000 A 
ATOM     24  N   UNL     1      43.133   6.309  11.416  0.00  0.00    +0.000 NA
ATOM     25  C   UNL     1      42.515   5.175  11.422  0.00  0.00    +0.000 A 
ATOM     26  N   UNL     1      43.009   4.018  11.968  0.00  0.00    +0.000 N 
ATOM     27  C   UNL     1      44.253   3.940  12.547  0.00  0.00    +0.000 A 
ATOM     28  O   UNL     1      44.719   2.871  12.923  0.00  0.00    +0.000 OA
ATOM     29  C   UNL     1      44.959   5.203  12.631  0.00  0.00    +0.000 A 
ATOM     30  H   UNL     1      42.491   3.154  11.902  0.00  0.00    +0.000 HD
ENDBRANCH  17  20
ENDBRANCH   1  16
BRANCH   1  31
ATOM     31  C   UNL     1      47.913   3.055  16.615  0.00  0.00    +0.000 C 
BRANCH  31  32
ATOM     32  N   UNL     1      48.813   2.028  16.065  0.00  0.00    +0.000 NA
ATOM     33  H   UNL     1      49.096   2.315  15.128  0.00  0.00    +0.000 HD
ATOM     34  H   UNL     1      48.297   1.157  15.943  0.00  0.00    +0.000 HD
ENDBRANCH  31  32
ENDBRANCH   1  31
TORSDOF 8
ENDMDL
MODEL 9
REMARK VINA RESULT:    -6.480      3.810      9.882
REMARK INTER + INTRA:         -10.466
REMARK INTER:                  -9.238
REMARK INTRA:                  -1.227
REMARK UNBOUND:                -1.145
REMARK  Name = 
REMARK  8 active torsions:
REMARK  status: ('A' for Active; 'I' for Inactive)
REMARK    1  A    between atoms: N_1  and  C_2
REMARK    2  A    between atoms: C_2  and  C_3
REMARK    3  A    between atoms: C_3  and  N_4
REMARK    4  A    between atoms: C_3  and  C_17
REMARK    5  A    between atoms: C_5  and  C_7
REMARK    6  A    between atoms: C_20  and  O_21
REMARK    7  A    between atoms: O_21  and  C_22
REMARK    8  A    between atoms: C_22  and  C_23
REMARK                            x       y       z     vdW  Elec       q    Type
REMARK                         _______ _______ _______ _____ _____    ______ ____
ROOT
ATOM      1  C   UNL     1      48.109   4.481  16.287  0.00  0.00    +0.000 C 
ENDROOT
BRANCH   1   2
ATOM      2  C   UNL     1      48.124   5.438  17.478  0.00  0.00    +0.000 A 
ATOM      3  C   UNL     1      47.414   5.126  18.648  0.00  0.00    +0.000 A 
ATOM      4  C   UNL     1      47.396   6.015  19.726  0.00  0.00    +0.000 A 
ATOM      5  C   UNL     1      48.112   7.210  19.664  0.00  0.00    +0.000 A 
ATOM      6  C   UNL     1      48.782   7.552  18.490  0.00  0.00    +0.000 A 
ATOM      7  C   UNL     1      48.785   6.675  17.407  0.00  0.00    +0.000 A 
BRANCH   5   8
ATOM      8  O   UNL     1      48.096   7.974  20.800  0.00  0.00    +0.000 OA
BRANCH   8   9
ATOM      9  C   UNL     1      48.232   9.381  20.568  0.00  0.00    +0.000 C 
BRANCH   9  10
ATOM     10  C   UNL     1      46.937  10.112  20.839  0.00  0.00    +0.000 A 
ATOM     11  C   UNL     1      46.442  11.065  19.956  0.00  0.00    +0.000 A 
ATOM     12  C   UNL     1      45.252  11.716  20.267  0.00  0.00    +0.000 A 
ATOM     13  C   UNL     1      44.596  11.408  21.452  0.00  0.00    +0.000 A 
ATOM     14  C   UNL     1      45.162  10.462  22.285  0.00  0.00    +0.000 A 
ATOM     15  N   UNL     1      46.314   9.815  22.011  0.00  0.00    +0.000 NA
ENDBRANCH   9  10
ENDBRANCH   8   9
ENDBRANCH   5   8
ENDBRANCH   1   2
BRANCH   1  16
ATOM     16  N   UNL     1      47.022   4.853  15.379  0.00  0.00    +0.000 N 
ATOM     17  C   UNL     1      46.883   4.335  14.117  0.00  0.00    +0.000 C 
ATOM     18  O   UNL     1      47.607   3.445  13.685  0.00  0.00    +0.000 OA
ATOM     19  H   UNL     1      46.588   5.753  15.563  0.00  0.00    +0.000 HD
BRANCH  17  20
ATOM     20  C   UNL     1      45.777   4.862  13.310  0.00  0.00    +0.000 A 
ATOM     21  C   UNL     1      44.760   4.007  12.904  0.00  0.00    +0.000 A 
ATOM     22  S   UNL     1      43.580   4.761  11.932  0.00  0.00    +0.000 S 
ATOM     23  C   UNL     1      44.406   6.248  11.989  0.00  0.00    +0.000 A 
ATOM     24  N   UNL     1      43.955   7.326  11.293  0.00  0.00    +0.000 NA
ATOM     25  C   UNL     1      44.698   8.377  11.399  0.00  0.00    +0.000 A 
ATOM     26  N   UNL     1      45.836   8.457  12.160  0.00  0.00    +0.000 N 
ATOM     27  C   UNL     1      46.291   7.413  12.929  0.00  0.00    +0.000 A 
ATOM     28  O   UNL     1      47.243   7.544  13.691  0.00  0.00    +0.000 OA
ATOM     29  C   UNL     1      45.533   6.185  12.790  0.00  0.00    +0.000 A 
ATOM     30  H   UNL     1      46.350   9.322  12.233  0.00  0.00    +0.000 HD
ENDBRANCH  17  20
ENDBRANCH   1  16
BRANCH   1  31
ATOM     31  C   UNL     1      48.006   3.009  16.801  0.00  0.00    +0.000 C 
BRANCH  31  32
ATOM     32  N   UNL     1      48.902   2.054  16.130  0.00  0.00    +0.000 NA
ATOM     33  H   UNL     1      49.829   2.474  16.059  0.00  0.00    +0.000 HD
ATOM     34  H   UNL     1      48.588   1.914  15.170  0.00  0.00    +0.000 HD
ENDBRANCH  31  32
ENDBRANCH   1  31
TORSDOF 8
ENDMDL
