MODEL 1
REMARK VINA RESULT:    -8.184      0.000      0.000
REMARK INTER + INTRA:         -13.257
REMARK INTER:                 -12.011
REMARK INTRA:                  -1.246
REMARK UNBOUND:                -1.246
REMARK  Name = 
REMARK  10 active torsions:
REMARK  status: ('A' for Active; 'I' for Inactive)
REMARK    1  A    between atoms: C_1  and  C_2
REMARK    2  A    between atoms: C_2  and  C_3
REMARK    3  A    between atoms: C_2  and  N_10
REMARK    4  A    between atoms: C_3  and  C_4
REMARK    5  A    between atoms: N_10  and  C_11
REMARK    6  A    between atoms: N_10  and  C_12
REMARK    7  A    between atoms: C_12  and  C_13
REMARK    8  A    between atoms: C_16  and  C_17
REMARK    9  A    between atoms: C_17  and  N_18
REMARK   10  A    between atoms: C_19  and  C_21
REMARK                            x       y       z     vdW  Elec       q    Type
REMARK                         _______ _______ _______ _____ _____    ______ ____
ROOT
ATOM      1  C   UNL     1      46.732   4.477  13.811  0.00  0.00    +0.000 A 
ATOM      2  C   UNL     1      46.938   4.058  15.135  0.00  0.00    +0.000 A 
ATOM      3  C   UNL     1      47.758   4.798  15.993  0.00  0.00    +0.000 A 
ATOM      4  C   UNL     1      48.412   5.950  15.533  0.00  0.00    +0.000 A 
ATOM      5  C   UNL     1      48.198   6.359  14.217  0.00  0.00    +0.000 A 
ATOM      6  F   UNL     1      48.775   7.480  13.761  0.00  0.00    +0.000 F 
ATOM      7  C   UNL     1      47.388   5.630  13.356  0.00  0.00    +0.000 A 
ENDROOT
BRANCH   1   8
ATOM      8  C   UNL     1      45.815   3.727  12.879  0.00  0.00    +0.000 C 
BRANCH   8   9
ATOM      9  N   UNL     1      44.550   4.405  12.500  0.00  0.00    +0.000 NA
ATOM     10  C   UNL     1      43.524   3.346  12.448  0.00  0.00    +0.000 C 
BRANCH   9  12
ATOM     11  C   UNL     1      43.945   6.568  11.253  0.00  0.00    +0.000 C 
ATOM     12  C   UNL     1      44.597   5.173  11.219  0.00  0.00    +0.000 C 
BRANCH  12  13
ATOM     13  C   UNL     1      43.978   4.417   9.996  0.00  0.00    +0.000 C 
BRANCH  13  14
ATOM     14  C   UNL     1      44.941   3.662   9.102  0.00  0.00    +0.000 A 
ATOM     15  C   UNL     1      45.066   2.267   9.192  0.00  0.00    +0.000 A 
ATOM     16  C   UNL     1      45.953   1.576   8.363  0.00  0.00    +0.000 A 
ATOM     17  C   UNL     1      46.722   2.271   7.430  0.00  0.00    +0.000 A 
ATOM     18  C   UNL     1      46.605   3.653   7.327  0.00  0.00    +0.000 A 
ATOM     19  C   UNL     1      45.717   4.341   8.156  0.00  0.00    +0.000 A 
ENDBRANCH  13  14
ENDBRANCH  12  13
ENDBRANCH   9  12
ENDBRANCH   8   9
ENDBRANCH   1   8
BRANCH   4  20
ATOM     20  C   UNL     1      49.319   6.736  16.429  0.00  0.00    +0.000 C 
BRANCH  20  21
ATOM     21  N   UNL     1      50.416   5.943  16.922  0.00  0.00    +0.000 N 
ATOM     22  C   UNL     1      50.402   5.357  18.159  0.00  0.00    +0.000 C 
ATOM     23  O   UNL     1      49.464   5.505  18.940  0.00  0.00    +0.000 OA
ATOM     24  H   UNL     1      51.263   5.934  16.361  0.00  0.00    +0.000 HD
BRANCH  22  25
ATOM     25  C   UNL     1      51.529   4.474  18.484  0.00  0.00    +0.000 A 
ATOM     26  C   UNL     1      52.563   4.961  19.272  0.00  0.00    +0.000 A 
ATOM     27  S   UNL     1      53.785   3.817  19.588  0.00  0.00    +0.000 S 
ATOM     28  C   UNL     1      52.994   2.638  18.650  0.00  0.00    +0.000 A 
ATOM     29  N   UNL     1      53.541   1.404  18.481  0.00  0.00    +0.000 NA
ATOM     30  C   UNL     1      52.854   0.615  17.725  0.00  0.00    +0.000 A 
ATOM     31  N   UNL     1      51.662   0.947  17.131  0.00  0.00    +0.000 N 
ATOM     32  C   UNL     1      51.048   2.161  17.318  0.00  0.00    +0.000 A 
ATOM     33  O   UNL     1      49.938   2.390  16.844  0.00  0.00    +0.000 OA
ATOM     34  C   UNL     1      51.800   3.100  18.128  0.00  0.00    +0.000 A 
ATOM     35  H   UNL     1      51.164   0.274  16.567  0.00  0.00    +0.000 HD
ENDBRANCH  22  25
ENDBRANCH  20  21
ENDBRANCH   4  20
TORSDOF 8
ENDMDL
MODEL 2
REMARK VINA RESULT:    -7.846      4.337      9.249
REMARK INTER + INTRA:         -12.762
REMARK INTER:                  -9.698
REMARK INTRA:                  -3.063
REMARK UNBOUND:                -1.246
REMARK  Name = 
REMARK  10 active torsions:
REMARK  status: ('A' for Active; 'I' for Inactive)
REMARK    1  A    between atoms: C_1  and  C_2
REMARK    2  A    between atoms: C_2  and  C_3
REMARK    3  A    between atoms: C_2  and  N_10
REMARK    4  A    between atoms: C_3  and  C_4
REMARK    5  A    between atoms: N_10  and  C_11
REMARK    6  A    between atoms: N_10  and  C_12
REMARK    7  A    between atoms: C_12  and  C_13
REMARK    8  A    between atoms: C_16  and  C_17
REMARK    9  A    between atoms: C_17  and  N_18
REMARK   10  A    between atoms: C_19  and  C_21
REMARK                            x       y       z     vdW  Elec       q    Type
REMARK                         _______ _______ _______ _____ _____    ______ ____
ROOT
ATOM      1  C   UNL     1      48.343   5.577  20.321  0.00  0.00    +0.000 A 
ATOM      2  C   UNL     1      47.248   5.998  19.549  0.00  0.00    +0.000 A 
ATOM      3  C   UNL     1      46.980   5.397  18.315  0.00  0.00    +0.000 A 
ATOM      4  C   UNL     1      47.819   4.391  17.817  0.00  0.00    +0.000 A 
ATOM      5  C   UNL     1      48.902   3.978  18.594  0.00  0.00    +0.000 A 
ATOM      6  F   UNL     1      49.697   2.987  18.164  0.00  0.00    +0.000 F 
ATOM      7  C   UNL     1      49.179   4.570  19.819  0.00  0.00    +0.000 A 
ENDROOT
BRANCH   1   8
ATOM      8  C   UNL     1      48.628   6.171  21.678  0.00  0.00    +0.000 C 
BRANCH   8   9
ATOM      9  N   UNL     1      49.454   7.404  21.706  0.00  0.00    +0.000 NA
ATOM     10  C   UNL     1      48.504   8.529  21.615  0.00  0.00    +0.000 C 
BRANCH   9  12
ATOM     11  C   UNL     1      51.927   7.796  21.133  0.00  0.00    +0.000 C 
ATOM     12  C   UNL     1      50.500   7.494  20.641  0.00  0.00    +0.000 C 
BRANCH  12  13
ATOM     13  C   UNL     1      50.181   8.536  19.517  0.00  0.00    +0.000 C 
BRANCH  13  14
ATOM     14  C   UNL     1      49.982   7.991  18.118  0.00  0.00    +0.000 A 
ATOM     15  C   UNL     1      48.935   8.453  17.306  0.00  0.00    +0.000 A 
ATOM     16  C   UNL     1      48.759   7.949  16.015  0.00  0.00    +0.000 A 
ATOM     17  C   UNL     1      49.630   6.980  15.518  0.00  0.00    +0.000 A 
ATOM     18  C   UNL     1      50.674   6.515  16.311  0.00  0.00    +0.000 A 
ATOM     19  C   UNL     1      50.849   7.021  17.600  0.00  0.00    +0.000 A 
ENDBRANCH  13  14
ENDBRANCH  12  13
ENDBRANCH   9  12
ENDBRANCH   8   9
ENDBRANCH   1   8
BRANCH   4  20
ATOM     20  C   UNL     1      47.564   3.760  16.482  0.00  0.00    +0.000 C 
BRANCH  20  21
ATOM     21  N   UNL     1      46.976   4.684  15.548  0.00  0.00    +0.000 N 
ATOM     22  C   UNL     1      46.883   4.416  14.209  0.00  0.00    +0.000 C 
ATOM     23  O   UNL     1      47.332   3.383  13.718  0.00  0.00    +0.000 OA
ATOM     24  H   UNL     1      46.738   5.605  15.904  0.00  0.00    +0.000 HD
BRANCH  22  25
ATOM     25  C   UNL     1      46.148   5.390  13.390  0.00  0.00    +0.000 A 
ATOM     26  C   UNL     1      46.736   6.616  13.110  0.00  0.00    +0.000 A 
ATOM     27  S   UNL     1      45.779   7.628  12.130  0.00  0.00    +0.000 S 
ATOM     28  C   UNL     1      44.527   6.478  12.075  0.00  0.00    +0.000 A 
ATOM     29  N   UNL     1      43.373   6.738  11.404  0.00  0.00    +0.000 NA
ATOM     30  C   UNL     1      42.495   5.794  11.464  0.00  0.00    +0.000 A 
ATOM     31  N   UNL     1      42.672   4.607  12.128  0.00  0.00    +0.000 N 
ATOM     32  C   UNL     1      43.840   4.280  12.773  0.00  0.00    +0.000 A 
ATOM     33  O   UNL     1      43.996   3.171  13.280  0.00  0.00    +0.000 OA
ATOM     34  C   UNL     1      44.846   5.325  12.769  0.00  0.00    +0.000 A 
ATOM     35  H   UNL     1      41.952   3.900  12.119  0.00  0.00    +0.000 HD
ENDBRANCH  22  25
ENDBRANCH  20  21
ENDBRANCH   4  20
TORSDOF 8
ENDMDL
MODEL 3
REMARK VINA RESULT:    -7.810      3.973     10.078
REMARK INTER + INTRA:         -12.708
REMARK INTER:                  -9.876
REMARK INTRA:                  -2.832
REMARK UNBOUND:                -1.246
REMARK  Name = 
REMARK  10 active torsions:
REMARK  status: ('A' for Active; 'I' for Inactive)
REMARK    1  A    between atoms: C_1  and  C_2
REMARK    2  A    between atoms: C_2  and  C_3
REMARK    3  A    between atoms: C_2  and  N_10
REMARK    4  A    between atoms: C_3  and  C_4
REMARK    5  A    between atoms: N_10  and  C_11
REMARK    6  A    between atoms: N_10  and  C_12
REMARK    7  A    between atoms: C_12  and  C_13
REMARK    8  A    between atoms: C_16  and  C_17
REMARK    9  A    between atoms: C_17  and  N_18
REMARK   10  A    between atoms: C_19  and  C_21
REMARK                            x       y       z     vdW  Elec       q    Type
REMARK                         _______ _______ _______ _____ _____    ______ ____
ROOT
ATOM      1  C   UNL     1      51.344   4.879  17.899  0.00  0.00    +0.000 A 
ATOM      2  C   UNL     1      50.411   5.857  17.517  0.00  0.00    +0.000 A 
ATOM      3  C   UNL     1      49.130   5.488  17.097  0.00  0.00    +0.000 A 
ATOM      4  C   UNL     1      48.770   4.135  17.019  0.00  0.00    +0.000 A 
ATOM      5  C   UNL     1      49.702   3.172  17.404  0.00  0.00    +0.000 A 
ATOM      6  F   UNL     1      49.372   1.872  17.382  0.00  0.00    +0.000 F 
ATOM      7  C   UNL     1      50.978   3.527  17.820  0.00  0.00    +0.000 A 
ENDROOT
BRANCH   1   8
ATOM      8  C   UNL     1      52.716   5.249  18.404  0.00  0.00    +0.000 C 
BRANCH   8   9
ATOM      9  N   UNL     1      52.782   6.317  19.432  0.00  0.00    +0.000 NA
ATOM     10  C   UNL     1      53.890   7.201  19.025  0.00  0.00    +0.000 C 
BRANCH   9  12
ATOM     11  C   UNL     1      53.147   4.319  21.005  0.00  0.00    +0.000 C 
ATOM     12  C   UNL     1      52.962   5.838  20.837  0.00  0.00    +0.000 C 
BRANCH  12  13
ATOM     13  C   UNL     1      51.812   6.262  21.811  0.00  0.00    +0.000 C 
BRANCH  13  14
ATOM     14  C   UNL     1      50.394   6.108  21.300  0.00  0.00    +0.000 A 
ATOM     15  C   UNL     1      49.787   4.845  21.229  0.00  0.00    +0.000 A 
ATOM     16  C   UNL     1      48.478   4.710  20.760  0.00  0.00    +0.000 A 
ATOM     17  C   UNL     1      47.758   5.835  20.362  0.00  0.00    +0.000 A 
ATOM     18  C   UNL     1      48.347   7.094  20.431  0.00  0.00    +0.000 A 
ATOM     19  C   UNL     1      49.654   7.227  20.900  0.00  0.00    +0.000 A 
ENDBRANCH  13  14
ENDBRANCH  12  13
ENDBRANCH   9  12
ENDBRANCH   8   9
ENDBRANCH   1   8
BRANCH   4  20
ATOM     20  C   UNL     1      47.412   3.721  16.540  0.00  0.00    +0.000 C 
BRANCH  20  21
ATOM     21  N   UNL     1      46.869   4.647  15.579  0.00  0.00    +0.000 N 
ATOM     22  C   UNL     1      46.774   4.351  14.246  0.00  0.00    +0.000 C 
ATOM     23  O   UNL     1      47.184   3.289  13.783  0.00  0.00    +0.000 OA
ATOM     24  H   UNL     1      46.668   5.585  15.911  0.00  0.00    +0.000 HD
BRANCH  22  25
ATOM     25  C   UNL     1      46.087   5.335  13.399  0.00  0.00    +0.000 A 
ATOM     26  C   UNL     1      46.721   6.536  13.109  0.00  0.00    +0.000 A 
ATOM     27  S   UNL     1      45.815   7.563  12.096  0.00  0.00    +0.000 S 
ATOM     28  C   UNL     1      44.526   6.455  12.038  0.00  0.00    +0.000 A 
ATOM     29  N   UNL     1      43.393   6.743  11.343  0.00  0.00    +0.000 NA
ATOM     30  C   UNL     1      42.483   5.830  11.405  0.00  0.00    +0.000 A 
ATOM     31  N   UNL     1      42.607   4.649  12.092  0.00  0.00    +0.000 N 
ATOM     32  C   UNL     1      43.753   4.294  12.762  0.00  0.00    +0.000 A 
ATOM     33  O   UNL     1      43.862   3.190  13.289  0.00  0.00    +0.000 OA
ATOM     34  C   UNL     1      44.794   5.304  12.757  0.00  0.00    +0.000 A 
ATOM     35  H   UNL     1      41.864   3.967  12.082  0.00  0.00    +0.000 HD
ENDBRANCH  22  25
ENDBRANCH  20  21
ENDBRANCH   4  20
TORSDOF 8
ENDMDL
MODEL 4
REMARK VINA RESULT:    -7.776      4.046      9.284
REMARK INTER + INTRA:         -12.658
REMARK INTER:                  -9.440
REMARK INTRA:                  -3.219
REMARK UNBOUND:                -1.246
REMARK  Name = 
REMARK  10 active torsions:
REMARK  status: ('A' for Active; 'I' for Inactive)
REMARK    1  A    between atoms: C_1  and  C_2
REMARK    2  A    between atoms: C_2  and  C_3
REMARK    3  A    between atoms: C_2  and  N_10
REMARK    4  A    between atoms: C_3  and  C_4
REMARK    5  A    between atoms: N_10  and  C_11
REMARK    6  A    between atoms: N_10  and  C_12
REMARK    7  A    between atoms: C_12  and  C_13
REMARK    8  A    between atoms: C_16  and  C_17
REMARK    9  A    between atoms: C_17  and  N_18
REMARK   10  A    between atoms: C_19  and  C_21
REMARK                            x       y       z     vdW  Elec       q    Type
REMARK                         _______ _______ _______ _____ _____    ______ ____
ROOT
ATOM      1  C   UNL     1      49.938   5.380  19.606  0.00  0.00    +0.000 A 
ATOM      2  C   UNL     1      50.466   4.494  18.653  0.00  0.00    +0.000 A 
ATOM      3  C   UNL     1      49.639   3.927  17.679  0.00  0.00    +0.000 A 
ATOM      4  C   UNL     1      48.265   4.207  17.662  0.00  0.00    +0.000 A 
ATOM      5  C   UNL     1      47.751   5.089  18.612  0.00  0.00    +0.000 A 
ATOM      6  F   UNL     1      46.449   5.411  18.594  0.00  0.00    +0.000 F 
ATOM      7  C   UNL     1      48.563   5.657  19.585  0.00  0.00    +0.000 A 
ENDROOT
BRANCH   1   8
ATOM      8  C   UNL     1      50.814   6.047  20.636  0.00  0.00    +0.000 C 
BRANCH   8   9
ATOM      9  N   UNL     1      51.835   6.997  20.129  0.00  0.00    +0.000 NA
ATOM     10  C   UNL     1      53.078   6.681  20.858  0.00  0.00    +0.000 C 
BRANCH   9  12
ATOM     11  C   UNL     1      50.191   8.743  21.051  0.00  0.00    +0.000 C 
ATOM     12  C   UNL     1      51.482   8.443  20.266  0.00  0.00    +0.000 C 
BRANCH  12  13
ATOM     13  C   UNL     1      51.368   9.207  18.904  0.00  0.00    +0.000 C 
BRANCH  13  14
ATOM     14  C   UNL     1      50.779   8.439  17.739  0.00  0.00    +0.000 A 
ATOM     15  C   UNL     1      51.594   7.661  16.902  0.00  0.00    +0.000 A 
ATOM     16  C   UNL     1      51.044   6.952  15.832  0.00  0.00    +0.000 A 
ATOM     17  C   UNL     1      49.672   7.007  15.588  0.00  0.00    +0.000 A 
ATOM     18  C   UNL     1      48.852   7.771  16.412  0.00  0.00    +0.000 A 
ATOM     19  C   UNL     1      49.403   8.478  17.482  0.00  0.00    +0.000 A 
ENDBRANCH  13  14
ENDBRANCH  12  13
ENDBRANCH   9  12
ENDBRANCH   8   9
ENDBRANCH   1   8
BRANCH   4  20
ATOM     20  C   UNL     1      47.359   3.581  16.646  0.00  0.00    +0.000 C 
BRANCH  20  21
ATOM     21  N   UNL     1      46.887   4.536  15.677  0.00  0.00    +0.000 N 
ATOM     22  C   UNL     1      46.797   4.246  14.343  0.00  0.00    +0.000 C 
ATOM     23  O   UNL     1      47.151   3.161  13.886  0.00  0.00    +0.000 OA
ATOM     24  H   UNL     1      46.735   5.485  16.006  0.00  0.00    +0.000 HD
BRANCH  22  25
ATOM     25  C   UNL     1      46.182   5.268  13.485  0.00  0.00    +0.000 A 
ATOM     26  C   UNL     1      46.880   6.439  13.223  0.00  0.00    +0.000 A 
ATOM     27  S   UNL     1      46.054   7.515  12.193  0.00  0.00    +0.000 S 
ATOM     28  C   UNL     1      44.716   6.471  12.090  0.00  0.00    +0.000 A 
ATOM     29  N   UNL     1      43.618   6.817  11.365  0.00  0.00    +0.000 NA
ATOM     30  C   UNL     1      42.664   5.949  11.393  0.00  0.00    +0.000 A 
ATOM     31  N   UNL     1      42.712   4.759  12.073  0.00  0.00    +0.000 N 
ATOM     32  C   UNL     1      43.820   4.344  12.772  0.00  0.00    +0.000 A 
ATOM     33  O   UNL     1      43.861   3.232  13.293  0.00  0.00    +0.000 OA
ATOM     34  C   UNL     1      44.907   5.303  12.806  0.00  0.00    +0.000 A 
ATOM     35  H   UNL     1      41.938   4.113  12.036  0.00  0.00    +0.000 HD
ENDBRANCH  22  25
ENDBRANCH  20  21
ENDBRANCH   4  20
TORSDOF 8
ENDMDL
MODEL 5
REMARK VINA RESULT:    -7.745      3.737      9.248
REMARK INTER + INTRA:         -12.612
REMARK INTER:                  -9.488
REMARK INTRA:                  -3.124
REMARK UNBOUND:                -1.246
REMARK  Name = 
REMARK  10 active torsions:
REMARK  status: ('A' for Active; 'I' for Inactive)
REMARK    1  A    between atoms: C_1  and  C_2
REMARK    2  A    between atoms: C_2  and  C_3
REMARK    3  A    between atoms: C_2  and  N_10
REMARK    4  A    between atoms: C_3  and  C_4
REMARK    5  A    between atoms: N_10  and  C_11
REMARK    6  A    between atoms: N_10  and  C_12
REMARK    7  A    between atoms: C_12  and  C_13
REMARK    8  A    between atoms: C_16  and  C_17
REMARK    9  A    between atoms: C_17  and  N_18
REMARK   10  A    between atoms: C_19  and  C_21
REMARK                            x       y       z     vdW  Elec       q    Type
REMARK                         _______ _______ _______ _____ _____    ______ ____
ROOT
ATOM      1  C   UNL     1      50.895   4.298  18.772  0.00  0.00    +0.000 A 
ATOM      2  C   UNL     1      49.749   5.021  19.142  0.00  0.00    +0.000 A 
ATOM      3  C   UNL     1      48.512   4.734  18.558  0.00  0.00    +0.000 A 
ATOM      4  C   UNL     1      48.405   3.745  17.570  0.00  0.00    +0.000 A 
ATOM      5  C   UNL     1      49.548   3.031  17.211  0.00  0.00    +0.000 A 
ATOM      6  F   UNL     1      49.469   2.049  16.302  0.00  0.00    +0.000 F 
ATOM      7  C   UNL     1      50.782   3.309  17.783  0.00  0.00    +0.000 A 
ENDROOT
BRANCH   1   8
ATOM      8  C   UNL     1      52.233   4.551  19.421  0.00  0.00    +0.000 C 
BRANCH   8   9
ATOM      9  N   UNL     1      53.259   5.228  18.590  0.00  0.00    +0.000 NA
ATOM     10  C   UNL     1      54.483   4.413  18.717  0.00  0.00    +0.000 C 
BRANCH   9  12
ATOM     11  C   UNL     1      52.866   7.154  20.243  0.00  0.00    +0.000 C 
ATOM     12  C   UNL     1      53.524   6.656  18.943  0.00  0.00    +0.000 C 
BRANCH  12  13
ATOM     13  C   UNL     1      53.134   7.676  17.821  0.00  0.00    +0.000 C 
BRANCH  13  14
ATOM     14  C   UNL     1      51.706   7.624  17.319  0.00  0.00    +0.000 A 
ATOM     15  C   UNL     1      50.700   8.392  17.924  0.00  0.00    +0.000 A 
ATOM     16  C   UNL     1      49.385   8.343  17.453  0.00  0.00    +0.000 A 
ATOM     17  C   UNL     1      49.061   7.528  16.369  0.00  0.00    +0.000 A 
ATOM     18  C   UNL     1      50.050   6.763  15.758  0.00  0.00    +0.000 A 
ATOM     19  C   UNL     1      51.362   6.815  16.229  0.00  0.00    +0.000 A 
ENDBRANCH  13  14
ENDBRANCH  12  13
ENDBRANCH   9  12
ENDBRANCH   8   9
ENDBRANCH   1   8
BRANCH   4  20
ATOM     20  C   UNL     1      47.092   3.447  16.910  0.00  0.00    +0.000 C 
BRANCH  20  21
ATOM     21  N   UNL     1      46.751   4.429  15.913  0.00  0.00    +0.000 N 
ATOM     22  C   UNL     1      46.860   4.184  14.571  0.00  0.00    +0.000 C 
ATOM     23  O   UNL     1      47.295   3.119  14.137  0.00  0.00    +0.000 OA
ATOM     24  H   UNL     1      46.537   5.365  16.247  0.00  0.00    +0.000 HD
BRANCH  22  25
ATOM     25  C   UNL     1      46.360   5.227  13.666  0.00  0.00    +0.000 A 
ATOM     26  C   UNL     1      47.131   6.361  13.451  0.00  0.00    +0.000 A 
ATOM     27  S   UNL     1      46.436   7.467  12.359  0.00  0.00    +0.000 S 
ATOM     28  C   UNL     1      45.060   6.487  12.161  0.00  0.00    +0.000 A 
ATOM     29  N   UNL     1      44.036   6.879  11.356  0.00  0.00    +0.000 NA
ATOM     30  C   UNL     1      43.042   6.058  11.317  0.00  0.00    +0.000 A 
ATOM     31  N   UNL     1      42.983   4.872  12.004  0.00  0.00    +0.000 N 
ATOM     32  C   UNL     1      44.015   4.410  12.785  0.00  0.00    +0.000 A 
ATOM     33  O   UNL     1      43.965   3.302  13.313  0.00  0.00    +0.000 OA
ATOM     34  C   UNL     1      45.142   5.317  12.895  0.00  0.00    +0.000 A 
ATOM     35  H   UNL     1      42.184   4.263  11.913  0.00  0.00    +0.000 HD
ENDBRANCH  22  25
ENDBRANCH  20  21
ENDBRANCH   4  20
TORSDOF 8
ENDMDL
MODEL 6
REMARK VINA RESULT:    -7.489      4.121      8.782
REMARK INTER + INTRA:         -12.237
REMARK INTER:                 -10.223
REMARK INTRA:                  -2.014
REMARK UNBOUND:                -1.246
REMARK  Name = 
REMARK  10 active torsions:
REMARK  status: ('A' for Active; 'I' for Inactive)
REMARK    1  A    between atoms: C_1  and  C_2
REMARK    2  A    between atoms: C_2  and  C_3
REMARK    3  A    between atoms: C_2  and  N_10
REMARK    4  A    between atoms: C_3  and  C_4
REMARK    5  A    between atoms: N_10  and  C_11
REMARK    6  A    between atoms: N_10  and  C_12
REMARK    7  A    between atoms: C_12  and  C_13
REMARK    8  A    between atoms: C_16  and  C_17
REMARK    9  A    between atoms: C_17  and  N_18
REMARK   10  A    between atoms: C_19  and  C_21
REMARK                            x       y       z     vdW  Elec       q    Type
REMARK                         _______ _______ _______ _____ _____    ______ ____
ROOT
ATOM      1  C   UNL     1      48.863   7.978  16.375  0.00  0.00    +0.000 A 
ATOM      2  C   UNL     1      48.996   6.799  15.626  0.00  0.00    +0.000 A 
ATOM      3  C   UNL     1      48.841   6.822  14.236  0.00  0.00    +0.000 A 
ATOM      4  C   UNL     1      48.518   8.016  13.577  0.00  0.00    +0.000 A 
ATOM      5  C   UNL     1      48.392   9.183  14.330  0.00  0.00    +0.000 A 
ATOM      6  F   UNL     1      48.128  10.349  13.723  0.00  0.00    +0.000 F 
ATOM      7  C   UNL     1      48.541   9.171  15.711  0.00  0.00    +0.000 A 
ENDROOT
BRANCH   1   8
ATOM      8  C   UNL     1      49.074   7.994  17.869  0.00  0.00    +0.000 C 
BRANCH   8   9
ATOM      9  N   UNL     1      47.868   7.814  18.714  0.00  0.00    +0.000 NA
ATOM     10  C   UNL     1      47.886   8.925  19.685  0.00  0.00    +0.000 C 
BRANCH   9  12
ATOM     11  C   UNL     1      47.372   6.551  20.895  0.00  0.00    +0.000 C 
ATOM     12  C   UNL     1      47.767   6.493  19.408  0.00  0.00    +0.000 C 
BRANCH  12  13
ATOM     13  C   UNL     1      49.066   5.624  19.321  0.00  0.00    +0.000 C 
BRANCH  13  14
ATOM     14  C   UNL     1      49.029   4.434  18.384  0.00  0.00    +0.000 A 
ATOM     15  C   UNL     1      50.192   3.701  18.102  0.00  0.00    +0.000 A 
ATOM     16  C   UNL     1      50.150   2.602  17.240  0.00  0.00    +0.000 A 
ATOM     17  C   UNL     1      48.944   2.219  16.654  0.00  0.00    +0.000 A 
ATOM     18  C   UNL     1      47.783   2.935  16.928  0.00  0.00    +0.000 A 
ATOM     19  C   UNL     1      47.827   4.031  17.790  0.00  0.00    +0.000 A 
ENDBRANCH  13  14
ENDBRANCH  12  13
ENDBRANCH   9  12
ENDBRANCH   8   9
ENDBRANCH   1   8
BRANCH   4  20
ATOM     20  C   UNL     1      48.317   8.052  12.092  0.00  0.00    +0.000 C 
BRANCH  20  21
ATOM     21  N   UNL     1      47.587   6.906  11.616  0.00  0.00    +0.000 N 
ATOM     22  C   UNL     1      46.230   6.919  11.439  0.00  0.00    +0.000 C 
ATOM     23  O   UNL     1      45.546   7.903  11.716  0.00  0.00    +0.000 OA
ATOM     24  H   UNL     1      48.106   6.037  11.528  0.00  0.00    +0.000 HD
BRANCH  22  25
ATOM     25  C   UNL     1      45.631   5.725  10.829  0.00  0.00    +0.000 A 
ATOM     26  C   UNL     1      45.799   5.506   9.469  0.00  0.00    +0.000 A 
ATOM     27  S   UNL     1      45.073   4.069   8.910  0.00  0.00    +0.000 S 
ATOM     28  C   UNL     1      44.476   3.707  10.461  0.00  0.00    +0.000 A 
ATOM     29  N   UNL     1      43.723   2.595  10.673  0.00  0.00    +0.000 NA
ATOM     30  C   UNL     1      43.310   2.452  11.887  0.00  0.00    +0.000 A 
ATOM     31  N   UNL     1      43.591   3.319  12.913  0.00  0.00    +0.000 N 
ATOM     32  C   UNL     1      44.392   4.424  12.757  0.00  0.00    +0.000 A 
ATOM     33  O   UNL     1      44.697   5.127  13.717  0.00  0.00    +0.000 OA
ATOM     34  C   UNL     1      44.849   4.652  11.399  0.00  0.00    +0.000 A 
ATOM     35  H   UNL     1      43.255   3.138  13.846  0.00  0.00    +0.000 HD
ENDBRANCH  22  25
ENDBRANCH  20  21
ENDBRANCH   4  20
TORSDOF 8
ENDMDL
MODEL 7
REMARK VINA RESULT:    -7.420      4.107      8.960
REMARK INTER + INTRA:         -12.135
REMARK INTER:                  -9.774
REMARK INTRA:                  -2.361
REMARK UNBOUND:                -1.246
REMARK  Name = 
REMARK  10 active torsions:
REMARK  status: ('A' for Active; 'I' for Inactive)
REMARK    1  A    between atoms: C_1  and  C_2
REMARK    2  A    between atoms: C_2  and  C_3
REMARK    3  A    between atoms: C_2  and  N_10
REMARK    4  A    between atoms: C_3  and  C_4
REMARK    5  A    between atoms: N_10  and  C_11
REMARK    6  A    between atoms: N_10  and  C_12
REMARK    7  A    between atoms: C_12  and  C_13
REMARK    8  A    between atoms: C_16  and  C_17
REMARK    9  A    between atoms: C_17  and  N_18
REMARK   10  A    between atoms: C_19  and  C_21
REMARK                            x       y       z     vdW  Elec       q    Type
REMARK                         _______ _______ _______ _____ _____    ______ ____
ROOT
ATOM      1  C   UNL     1      49.721   7.904  15.975  0.00  0.00    +0.000 A 
ATOM      2  C   UNL     1      49.357   6.671  15.410  0.00  0.00    +0.000 A 
ATOM      3  C   UNL     1      48.701   6.623  14.177  0.00  0.00    +0.000 A 
ATOM      4  C   UNL     1      48.366   7.806  13.503  0.00  0.00    +0.000 A 
ATOM      5  C   UNL     1      48.734   9.026  14.071  0.00  0.00    +0.000 A 
ATOM      6  F   UNL     1      48.467  10.172  13.429  0.00  0.00    +0.000 F 
ATOM      7  C   UNL     1      49.384   9.085  15.297  0.00  0.00    +0.000 A 
ENDROOT
BRANCH   1   8
ATOM      8  C   UNL     1      50.474   7.985  17.279  0.00  0.00    +0.000 C 
BRANCH   8   9
ATOM      9  N   UNL     1      49.693   8.385  18.476  0.00  0.00    +0.000 NA
ATOM     10  C   UNL     1      50.531   8.038  19.639  0.00  0.00    +0.000 C 
BRANCH   9  12
ATOM     11  C   UNL     1      47.250   8.657  19.220  0.00  0.00    +0.000 C 
ATOM     12  C   UNL     1      48.336   7.768  18.586  0.00  0.00    +0.000 C 
BRANCH  12  13
ATOM     13  C   UNL     1      48.312   6.407  19.360  0.00  0.00    +0.000 C 
BRANCH  13  14
ATOM     14  C   UNL     1      48.349   5.146  18.522  0.00  0.00    +0.000 A 
ATOM     15  C   UNL     1      47.206   4.698  17.841  0.00  0.00    +0.000 A 
ATOM     16  C   UNL     1      47.248   3.537  17.066  0.00  0.00    +0.000 A 
ATOM     17  C   UNL     1      48.433   2.810  16.959  0.00  0.00    +0.000 A 
ATOM     18  C   UNL     1      49.574   3.244  17.626  0.00  0.00    +0.000 A 
ATOM     19  C   UNL     1      49.531   4.406  18.398  0.00  0.00    +0.000 A 
ENDBRANCH  13  14
ENDBRANCH  12  13
ENDBRANCH   9  12
ENDBRANCH   8   9
ENDBRANCH   1   8
BRANCH   4  20
ATOM     20  C   UNL     1      47.634   7.773  12.196  0.00  0.00    +0.000 C 
BRANCH  20  21
ATOM     21  N   UNL     1      46.917   6.539  12.006  0.00  0.00    +0.000 N 
ATOM     22  C   UNL     1      45.550   6.469  12.042  0.00  0.00    +0.000 C 
ATOM     23  O   UNL     1      44.853   7.454  12.277  0.00  0.00    +0.000 OA
ATOM     24  H   UNL     1      47.472   5.689  11.964  0.00  0.00    +0.000 HD
BRANCH  22  25
ATOM     25  C   UNL     1      44.947   5.173  11.708  0.00  0.00    +0.000 A 
ATOM     26  C   UNL     1      44.216   4.498  12.677  0.00  0.00    +0.000 A 
ATOM     27  S   UNL     1      43.555   3.025  12.137  0.00  0.00    +0.000 S 
ATOM     28  C   UNL     1      44.252   3.216  10.598  0.00  0.00    +0.000 A 
ATOM     29  N   UNL     1      44.091   2.265   9.639  0.00  0.00    +0.000 NA
ATOM     30  C   UNL     1      44.695   2.520   8.527  0.00  0.00    +0.000 A 
ATOM     31  N   UNL     1      45.437   3.647   8.284  0.00  0.00    +0.000 N 
ATOM     32  C   UNL     1      45.581   4.658   9.203  0.00  0.00    +0.000 A 
ATOM     33  O   UNL     1      46.178   5.694   8.919  0.00  0.00    +0.000 OA
ATOM     34  C   UNL     1      44.955   4.402  10.486  0.00  0.00    +0.000 A 
ATOM     35  H   UNL     1      45.866   3.796   7.383  0.00  0.00    +0.000 HD
ENDBRANCH  22  25
ENDBRANCH  20  21
ENDBRANCH   4  20
TORSDOF 8
ENDMDL
MODEL 8
REMARK VINA RESULT:    -7.368      4.204      8.890
REMARK INTER + INTRA:         -12.060
REMARK INTER:                  -9.453
REMARK INTRA:                  -2.607
REMARK UNBOUND:                -1.246
REMARK  Name = 
REMARK  10 active torsions:
REMARK  status: ('A' for Active; 'I' for Inactive)
REMARK    1  A    between atoms: C_1  and  C_2
REMARK    2  A    between atoms: C_2  and  C_3
REMARK    3  A    between atoms: C_2  and  N_10
REMARK    4  A    between atoms: C_3  and  C_4
REMARK    5  A    between atoms: N_10  and  C_11
REMARK    6  A    between atoms: N_10  and  C_12
REMARK    7  A    between atoms: C_12  and  C_13
REMARK    8  A    between atoms: C_16  and  C_17
REMARK    9  A    between atoms: C_17  and  N_18
REMARK   10  A    between atoms: C_19  and  C_21
REMARK                            x       y       z     vdW  Elec       q    Type
REMARK                         _______ _______ _______ _____ _____    ______ ____
ROOT
ATOM      1  C   UNL     1      49.517   7.971  18.500  0.00  0.00    +0.000 A 
ATOM      2  C   UNL     1      48.419   8.770  18.144  0.00  0.00    +0.000 A 
ATOM      3  C   UNL     1      48.083   8.954  16.800  0.00  0.00    +0.000 A 
ATOM      4  C   UNL     1      48.858   8.370  15.787  0.00  0.00    +0.000 A 
ATOM      5  C   UNL     1      49.945   7.576  16.151  0.00  0.00    +0.000 A 
ATOM      6  F   UNL     1      50.678   6.969  15.207  0.00  0.00    +0.000 F 
ATOM      7  C   UNL     1      50.289   7.389  17.484  0.00  0.00    +0.000 A 
ENDROOT
BRANCH   1   8
ATOM      8  C   UNL     1      49.873   7.713  19.943  0.00  0.00    +0.000 C 
BRANCH   8   9
ATOM      9  N   UNL     1      48.744   7.473  20.875  0.00  0.00    +0.000 NA
ATOM     10  C   UNL     1      49.311   7.587  22.233  0.00  0.00    +0.000 C 
BRANCH   9  12
ATOM     11  C   UNL     1      47.293   5.638  21.935  0.00  0.00    +0.000 C 
ATOM     12  C   UNL     1      48.036   6.168  20.695  0.00  0.00    +0.000 C 
BRANCH  12  13
ATOM     13  C   UNL     1      48.954   5.006  20.189  0.00  0.00    +0.000 C 
BRANCH  13  14
ATOM     14  C   UNL     1      48.590   4.379  18.859  0.00  0.00    +0.000 A 
ATOM     15  C   UNL     1      49.321   3.297  18.346  0.00  0.00    +0.000 A 
ATOM     16  C   UNL     1      48.978   2.721  17.121  0.00  0.00    +0.000 A 
ATOM     17  C   UNL     1      47.896   3.217  16.394  0.00  0.00    +0.000 A 
ATOM     18  C   UNL     1      47.160   4.288  16.892  0.00  0.00    +0.000 A 
ATOM     19  C   UNL     1      47.504   4.860  18.117  0.00  0.00    +0.000 A 
ENDBRANCH  13  14
ENDBRANCH  12  13
ENDBRANCH   9  12
ENDBRANCH   8   9
ENDBRANCH   1   8
BRANCH   4  20
ATOM     20  C   UNL     1      48.531   8.585  14.341  0.00  0.00    +0.000 C 
BRANCH  20  21
ATOM     21  N   UNL     1      47.480   7.712  13.886  0.00  0.00    +0.000 N 
ATOM     22  C   UNL     1      47.730   6.559  13.192  0.00  0.00    +0.000 C 
ATOM     23  O   UNL     1      48.870   6.219  12.881  0.00  0.00    +0.000 OA
ATOM     24  H   UNL     1      46.527   8.047  13.995  0.00  0.00    +0.000 HD
BRANCH  22  25
ATOM     25  C   UNL     1      46.575   5.700  12.900  0.00  0.00    +0.000 A 
ATOM     26  C   UNL     1      46.652   4.344  13.188  0.00  0.00    +0.000 A 
ATOM     27  S   UNL     1      45.229   3.483  12.822  0.00  0.00    +0.000 S 
ATOM     28  C   UNL     1      44.471   4.885  12.229  0.00  0.00    +0.000 A 
ATOM     29  N   UNL     1      43.210   4.832  11.721  0.00  0.00    +0.000 NA
ATOM     30  C   UNL     1      42.764   5.959  11.280  0.00  0.00    +0.000 A 
ATOM     31  N   UNL     1      43.462   7.140  11.310  0.00  0.00    +0.000 N 
ATOM     32  C   UNL     1      44.715   7.251  11.862  0.00  0.00    +0.000 A 
ATOM     33  O   UNL     1      45.274   8.341  11.954  0.00  0.00    +0.000 OA
ATOM     34  C   UNL     1      45.280   6.002  12.336  0.00  0.00    +0.000 A 
ATOM     35  H   UNL     1      43.046   7.993  10.968  0.00  0.00    +0.000 HD
ENDBRANCH  22  25
ENDBRANCH  20  21
ENDBRANCH   4  20
TORSDOF 8
ENDMDL
MODEL 9
REMARK VINA RESULT:    -7.307      4.305      8.972
REMARK INTER + INTRA:         -11.971
REMARK INTER:                  -9.647
REMARK INTRA:                  -2.324
REMARK UNBOUND:                -1.246
REMARK  Name = 
REMARK  10 active torsions:
REMARK  status: ('A' for Active; 'I' for Inactive)
REMARK    1  A    between atoms: C_1  and  C_2
REMARK    2  A    between atoms: C_2  and  C_3
REMARK    3  A    between atoms: C_2  and  N_10
REMARK    4  A    between atoms: C_3  and  C_4
REMARK    5  A    between atoms: N_10  and  C_11
REMARK    6  A    between atoms: N_10  and  C_12
REMARK    7  A    between atoms: C_12  and  C_13
REMARK    8  A    between atoms: C_16  and  C_17
REMARK    9  A    between atoms: C_17  and  N_18
REMARK   10  A    between atoms: C_19  and  C_21
REMARK                            x       y       z     vdW  Elec       q    Type
REMARK                         _______ _______ _______ _____ _____    ______ ____
ROOT
ATOM      1  C   UNL     1      48.923   8.831  17.916  0.00  0.00    +0.000 A 
ATOM      2  C   UNL     1      48.153   9.323  16.849  0.00  0.00    +0.000 A 
ATOM      3  C   UNL     1      48.333   8.821  15.557  0.00  0.00    +0.000 A 
ATOM      4  C   UNL     1      49.308   7.846  15.302  0.00  0.00    +0.000 A 
ATOM      5  C   UNL     1      50.065   7.363  16.369  0.00  0.00    +0.000 A 
ATOM      6  F   UNL     1      50.974   6.399  16.164  0.00  0.00    +0.000 F 
ATOM      7  C   UNL     1      49.896   7.855  17.656  0.00  0.00    +0.000 A 
ENDROOT
BRANCH   1   8
ATOM      8  C   UNL     1      48.716   9.316  19.329  0.00  0.00    +0.000 C 
BRANCH   8   9
ATOM      9  N   UNL     1      47.502   8.830  20.030  0.00  0.00    +0.000 NA
ATOM     10  C   UNL     1      46.660  10.020  20.252  0.00  0.00    +0.000 C 
BRANCH   9  12
ATOM     11  C   UNL     1      49.195   8.183  21.851  0.00  0.00    +0.000 C 
ATOM     12  C   UNL     1      47.755   8.102  21.311  0.00  0.00    +0.000 C 
BRANCH  12  13
ATOM     13  C   UNL     1      47.374   6.583  21.271  0.00  0.00    +0.000 C 
BRANCH  13  14
ATOM     14  C   UNL     1      47.838   5.796  20.063  0.00  0.00    +0.000 A 
ATOM     15  C   UNL     1      49.066   5.117  20.072  0.00  0.00    +0.000 A 
ATOM     16  C   UNL     1      49.486   4.389  18.956  0.00  0.00    +0.000 A 
ATOM     17  C   UNL     1      48.681   4.327  17.819  0.00  0.00    +0.000 A 
ATOM     18  C   UNL     1      47.460   4.992  17.798  0.00  0.00    +0.000 A 
ATOM     19  C   UNL     1      47.041   5.717  18.914  0.00  0.00    +0.000 A 
ENDBRANCH  13  14
ENDBRANCH  12  13
ENDBRANCH   9  12
ENDBRANCH   8   9
ENDBRANCH   1   8
BRANCH   4  20
ATOM     20  C   UNL     1      49.536   7.322  13.917  0.00  0.00    +0.000 C 
BRANCH  20  21
ATOM     21  N   UNL     1      48.301   7.064  13.223  0.00  0.00    +0.000 N 
ATOM     22  C   UNL     1      47.514   5.979  13.502  0.00  0.00    +0.000 C 
ATOM     23  O   UNL     1      47.837   5.137  14.337  0.00  0.00    +0.000 OA
ATOM     24  H   UNL     1      48.091   7.658  12.426  0.00  0.00    +0.000 HD
BRANCH  22  25
ATOM     25  C   UNL     1      46.221   5.905  12.808  0.00  0.00    +0.000 A 
ATOM     26  C   UNL     1      45.635   7.077  12.347  0.00  0.00    +0.000 A 
ATOM     27  S   UNL     1      44.155   6.831  11.541  0.00  0.00    +0.000 S 
ATOM     28  C   UNL     1      44.225   5.154  11.812  0.00  0.00    +0.000 A 
ATOM     29  N   UNL     1      43.223   4.339  11.387  0.00  0.00    +0.000 NA
ATOM     30  C   UNL     1      43.387   3.093  11.681  0.00  0.00    +0.000 A 
ATOM     31  N   UNL     1      44.470   2.586  12.353  0.00  0.00    +0.000 N 
ATOM     32  C   UNL     1      45.530   3.364  12.752  0.00  0.00    +0.000 A 
ATOM     33  O   UNL     1      46.525   2.863  13.270  0.00  0.00    +0.000 OA
ATOM     34  C   UNL     1      45.376   4.780  12.481  0.00  0.00    +0.000 A 
ATOM     35  H   UNL     1      44.548   1.597  12.532  0.00  0.00    +0.000 HD
ENDBRANCH  22  25
ENDBRANCH  20  21
ENDBRANCH   4  20
TORSDOF 8
ENDMDL
