MODEL 1
REMARK VINA RESULT:    -8.512      0.000      0.000
REMARK INTER + INTRA:         -13.647
REMARK INTER:                 -12.492
REMARK INTRA:                  -1.155
REMARK UNBOUND:                -1.155
REMARK  Name = 
REMARK  10 active torsions:
REMARK  status: ('A' for Active; 'I' for Inactive)
REMARK    1  A    between atoms: C_1  and  C_2
REMARK    2  A    between atoms: C_2  and  N_3
REMARK    3  A    between atoms: C_2  and  C_16
REMARK    4  A    between atoms: N_3  and  C_4
REMARK    5  A    between atoms: C_4  and  C_5
REMARK    6  A    between atoms: C_4  and  C_6
REMARK    7  A    between atoms: C_19  and  C_20
REMARK    8  A    between atoms: C_20  and  O_21
REMARK    9  A    between atoms: O_21  and  C_22
REMARK   10  A    between atoms: C_22  and  C_23
REMARK                            x       y       z     vdW  Elec       q    Type
REMARK                         _______ _______ _______ _____ _____    ______ ____
ROOT
ATOM      1  C   UNL     1      48.758   7.215  13.836  0.00  0.00    +0.000 C 
ATOM      2  C   UNL     1      48.080   5.862  14.124  0.00  0.00    +0.000 C 
ENDROOT
BRANCH   2   3
ATOM      3  C   UNL     1      46.783   5.719  13.332  0.00  0.00    +0.000 A 
ATOM      4  C   UNL     1      46.647   6.400  12.106  0.00  0.00    +0.000 A 
ATOM      5  C   UNL     1      45.572   6.145  11.250  0.00  0.00    +0.000 A 
ATOM      6  C   UNL     1      44.631   5.162  11.568  0.00  0.00    +0.000 A 
ATOM      7  C   UNL     1      44.711   4.542  12.814  0.00  0.00    +0.000 A 
ATOM      8  C   UNL     1      45.741   4.861  13.699  0.00  0.00    +0.000 A 
BRANCH   6   9
ATOM      9  C   UNL     1      43.574   4.755  10.582  0.00  0.00    +0.000 C 
BRANCH   9  10
ATOM     10  O   UNL     1      44.238   4.312   9.403  0.00  0.00    +0.000 OA
BRANCH  10  11
ATOM     11  C   UNL     1      44.509   2.917   9.439  0.00  0.00    +0.000 C 
BRANCH  11  12
ATOM     12  C   UNL     1      45.522   2.614   8.369  0.00  0.00    +0.000 A 
ATOM     13  C   UNL     1      46.137   1.359   8.292  0.00  0.00    +0.000 A 
ATOM     14  C   UNL     1      47.066   1.088   7.287  0.00  0.00    +0.000 A 
ATOM     15  C   UNL     1      47.389   2.069   6.349  0.00  0.00    +0.000 A 
ATOM     16  C   UNL     1      46.785   3.321   6.416  0.00  0.00    +0.000 A 
ATOM     17  C   UNL     1      45.855   3.596   7.418  0.00  0.00    +0.000 A 
ENDBRANCH  11  12
ENDBRANCH  10  11
ENDBRANCH   9  10
ENDBRANCH   6   9
ENDBRANCH   2   3
BRANCH   2  18
ATOM     18  N   UNL     1      47.997   5.762  15.592  0.00  0.00    +0.000 NA
ATOM     19  H   UNL     1      47.098   6.138  15.892  0.00  0.00    +0.000 HD
BRANCH  18  20
ATOM     20  C   UNL     1      48.236   4.469  16.246  0.00  0.00    +0.000 C 
ATOM     21  C   UNL     1      46.930   4.047  16.924  0.00  0.00    +0.000 C 
BRANCH  20  22
ATOM     22  C   UNL     1      49.403   4.534  17.193  0.00  0.00    +0.000 A 
ATOM     23  C   UNL     1      49.817   5.660  17.882  0.00  0.00    +0.000 A 
ATOM     24  S   UNL     1      51.305   5.435  18.698  0.00  0.00    +0.000 S 
ATOM     25  C   UNL     1      51.444   3.837  18.122  0.00  0.00    +0.000 A 
ATOM     26  N   UNL     1      52.571   3.100  18.323  0.00  0.00    +0.000 NA
ATOM     27  C   UNL     1      52.534   1.925  17.783  0.00  0.00    +0.000 A 
ATOM     28  N   UNL     1      51.450   1.389  17.133  0.00  0.00    +0.000 N 
ATOM     29  C   UNL     1      50.244   2.049  17.025  0.00  0.00    +0.000 A 
ATOM     30  O   UNL     1      49.224   1.470  16.674  0.00  0.00    +0.000 OA
ATOM     31  C   UNL     1      50.309   3.437  17.446  0.00  0.00    +0.000 A 
ATOM     32  H   UNL     1      51.465   0.435  16.807  0.00  0.00    +0.000 HD
ENDBRANCH  20  22
ENDBRANCH  18  20
ENDBRANCH   2  18
TORSDOF 8
ENDMDL
MODEL 2
REMARK VINA RESULT:    -8.132      1.937      2.579
REMARK INTER + INTRA:         -13.090
REMARK INTER:                 -11.823
REMARK INTRA:                  -1.267
REMARK UNBOUND:                -1.155
REMARK  Name = 
REMARK  10 active torsions:
REMARK  status: ('A' for Active; 'I' for Inactive)
REMARK    1  A    between atoms: C_1  and  C_2
REMARK    2  A    between atoms: C_2  and  N_3
REMARK    3  A    between atoms: C_2  and  C_16
REMARK    4  A    between atoms: N_3  and  C_4
REMARK    5  A    between atoms: C_4  and  C_5
REMARK    6  A    between atoms: C_4  and  C_6
REMARK    7  A    between atoms: C_19  and  C_20
REMARK    8  A    between atoms: C_20  and  O_21
REMARK    9  A    between atoms: O_21  and  C_22
REMARK   10  A    between atoms: C_22  and  C_23
REMARK                            x       y       z     vdW  Elec       q    Type
REMARK                         _______ _______ _______ _____ _____    ______ ____
ROOT
ATOM      1  C   UNL     1      47.737   8.396  13.954  0.00  0.00    +0.000 C 
ATOM      2  C   UNL     1      48.083   6.898  13.855  0.00  0.00    +0.000 C 
ENDROOT
BRANCH   2   3
ATOM      3  C   UNL     1      47.078   6.160  12.974  0.00  0.00    +0.000 A 
ATOM      4  C   UNL     1      46.348   5.084  13.517  0.00  0.00    +0.000 A 
ATOM      5  C   UNL     1      45.279   4.510  12.825  0.00  0.00    +0.000 A 
ATOM      6  C   UNL     1      44.872   5.030  11.593  0.00  0.00    +0.000 A 
ATOM      7  C   UNL     1      45.637   6.038  11.011  0.00  0.00    +0.000 A 
ATOM      8  C   UNL     1      46.753   6.552  11.672  0.00  0.00    +0.000 A 
BRANCH   6   9
ATOM      9  C   UNL     1      43.622   4.539  10.921  0.00  0.00    +0.000 C 
BRANCH   9  10
ATOM     10  O   UNL     1      43.983   4.098   9.617  0.00  0.00    +0.000 OA
BRANCH  10  11
ATOM     11  C   UNL     1      44.437   2.751   9.619  0.00  0.00    +0.000 C 
BRANCH  11  12
ATOM     12  C   UNL     1      45.465   2.607   8.531  0.00  0.00    +0.000 A 
ATOM     13  C   UNL     1      46.088   1.378   8.285  0.00  0.00    +0.000 A 
ATOM     14  C   UNL     1      47.031   1.256   7.264  0.00  0.00    +0.000 A 
ATOM     15  C   UNL     1      47.360   2.361   6.479  0.00  0.00    +0.000 A 
ATOM     16  C   UNL     1      46.749   3.589   6.715  0.00  0.00    +0.000 A 
ATOM     17  C   UNL     1      45.805   3.715   7.733  0.00  0.00    +0.000 A 
ENDBRANCH  11  12
ENDBRANCH  10  11
ENDBRANCH   9  10
ENDBRANCH   6   9
ENDBRANCH   2   3
BRANCH   2  18
ATOM     18  N   UNL     1      48.242   6.434  15.245  0.00  0.00    +0.000 NA
ATOM     19  H   UNL     1      48.590   5.476  15.228  0.00  0.00    +0.000 HD
BRANCH  18  20
ATOM     20  C   UNL     1      49.033   7.232  16.190  0.00  0.00    +0.000 C 
ATOM     21  C   UNL     1      50.501   6.830  16.017  0.00  0.00    +0.000 C 
BRANCH  20  22
ATOM     22  C   UNL     1      48.536   7.073  17.601  0.00  0.00    +0.000 A 
ATOM     23  C   UNL     1      48.103   8.099  18.421  0.00  0.00    +0.000 A 
ATOM     24  S   UNL     1      47.818   7.594  20.031  0.00  0.00    +0.000 S 
ATOM     25  C   UNL     1      48.297   5.998  19.675  0.00  0.00    +0.000 A 
ATOM     26  N   UNL     1      48.433   5.057  20.651  0.00  0.00    +0.000 NA
ATOM     27  C   UNL     1      48.848   3.910  20.220  0.00  0.00    +0.000 A 
ATOM     28  N   UNL     1      49.061   3.592  18.902  0.00  0.00    +0.000 N 
ATOM     29  C   UNL     1      48.806   4.472  17.871  0.00  0.00    +0.000 A 
ATOM     30  O   UNL     1      48.755   4.100  16.707  0.00  0.00    +0.000 OA
ATOM     31  C   UNL     1      48.526   5.822  18.326  0.00  0.00    +0.000 A 
ATOM     32  H   UNL     1      49.307   2.652  18.632  0.00  0.00    +0.000 HD
ENDBRANCH  20  22
ENDBRANCH  18  20
ENDBRANCH   2  18
TORSDOF 8
ENDMDL
MODEL 3
REMARK VINA RESULT:    -8.077      1.487      2.190
REMARK INTER + INTRA:         -13.009
REMARK INTER:                 -11.725
REMARK INTRA:                  -1.284
REMARK UNBOUND:                -1.155
REMARK  Name = 
REMARK  10 active torsions:
REMARK  status: ('A' for Active; 'I' for Inactive)
REMARK    1  A    between atoms: C_1  and  C_2
REMARK    2  A    between atoms: C_2  and  N_3
REMARK    3  A    between atoms: C_2  and  C_16
REMARK    4  A    between atoms: N_3  and  C_4
REMARK    5  A    between atoms: C_4  and  C_5
REMARK    6  A    between atoms: C_4  and  C_6
REMARK    7  A    between atoms: C_19  and  C_20
REMARK    8  A    between atoms: C_20  and  O_21
REMARK    9  A    between atoms: O_21  and  C_22
REMARK   10  A    between atoms: C_22  and  C_23
REMARK                            x       y       z     vdW  Elec       q    Type
REMARK                         _______ _______ _______ _____ _____    ______ ____
ROOT
ATOM      1  C   UNL     1      50.076   7.816  14.416  0.00  0.00    +0.000 C 
ATOM      2  C   UNL     1      48.950   6.913  14.951  0.00  0.00    +0.000 C 
ENDROOT
BRANCH   2   3
ATOM      3  C   UNL     1      48.054   6.422  13.816  0.00  0.00    +0.000 A 
ATOM      4  C   UNL     1      47.149   5.370  14.060  0.00  0.00    +0.000 A 
ATOM      5  C   UNL     1      46.172   5.022  13.124  0.00  0.00    +0.000 A 
ATOM      6  C   UNL     1      46.034   5.751  11.939  0.00  0.00    +0.000 A 
ATOM      7  C   UNL     1      46.975   6.738  11.652  0.00  0.00    +0.000 A 
ATOM      8  C   UNL     1      47.998   7.026  12.556  0.00  0.00    +0.000 A 
BRANCH   6   9
ATOM      9  C   UNL     1      44.883   5.502  11.008  0.00  0.00    +0.000 C 
BRANCH   9  10
ATOM     10  O   UNL     1      44.934   4.133  10.622  0.00  0.00    +0.000 OA
BRANCH  10  11
ATOM     11  C   UNL     1      44.392   3.927   9.324  0.00  0.00    +0.000 C 
BRANCH  11  12
ATOM     12  C   UNL     1      45.410   3.173   8.512  0.00  0.00    +0.000 A 
ATOM     13  C   UNL     1      45.581   1.793   8.672  0.00  0.00    +0.000 A 
ATOM     14  C   UNL     1      46.520   1.103   7.904  0.00  0.00    +0.000 A 
ATOM     15  C   UNL     1      47.296   1.787   6.969  0.00  0.00    +0.000 A 
ATOM     16  C   UNL     1      47.136   3.159   6.801  0.00  0.00    +0.000 A 
ATOM     17  C   UNL     1      46.198   3.851   7.566  0.00  0.00    +0.000 A 
ENDBRANCH  11  12
ENDBRANCH  10  11
ENDBRANCH   9  10
ENDBRANCH   6   9
ENDBRANCH   2   3
BRANCH   2  18
ATOM     18  N   UNL     1      48.313   7.673  16.042  0.00  0.00    +0.000 NA
ATOM     19  H   UNL     1      47.376   7.943  15.744  0.00  0.00    +0.000 HD
BRANCH  18  20
ATOM     20  C   UNL     1      48.258   7.097  17.391  0.00  0.00    +0.000 C 
ATOM     21  C   UNL     1      48.292   8.259  18.389  0.00  0.00    +0.000 C 
BRANCH  20  22
ATOM     22  C   UNL     1      49.355   6.093  17.611  0.00  0.00    +0.000 A 
ATOM     23  C   UNL     1      50.679   6.395  17.877  0.00  0.00    +0.000 A 
ATOM     24  S   UNL     1      51.696   5.018  17.852  0.00  0.00    +0.000 S 
ATOM     25  C   UNL     1      50.395   3.993  17.455  0.00  0.00    +0.000 A 
ATOM     26  N   UNL     1      50.586   2.682  17.139  0.00  0.00    +0.000 NA
ATOM     27  C   UNL     1      49.501   2.055  16.817  0.00  0.00    +0.000 A 
ATOM     28  N   UNL     1      48.239   2.590  16.860  0.00  0.00    +0.000 N 
ATOM     29  C   UNL     1      47.986   3.871  17.304  0.00  0.00    +0.000 A 
ATOM     30  O   UNL     1      46.852   4.244  17.576  0.00  0.00    +0.000 OA
ATOM     31  C   UNL     1      49.189   4.663  17.488  0.00  0.00    +0.000 A 
ATOM     32  H   UNL     1      47.430   2.017  16.673  0.00  0.00    +0.000 HD
ENDBRANCH  20  22
ENDBRANCH  18  20
ENDBRANCH   2  18
TORSDOF 8
ENDMDL
MODEL 4
REMARK VINA RESULT:    -7.456      2.564      3.004
REMARK INTER + INTRA:         -12.097
REMARK INTER:                 -10.788
REMARK INTRA:                  -1.310
REMARK UNBOUND:                -1.155
REMARK  Name = 
REMARK  10 active torsions:
REMARK  status: ('A' for Active; 'I' for Inactive)
REMARK    1  A    between atoms: C_1  and  C_2
REMARK    2  A    between atoms: C_2  and  N_3
REMARK    3  A    between atoms: C_2  and  C_16
REMARK    4  A    between atoms: N_3  and  C_4
REMARK    5  A    between atoms: C_4  and  C_5
REMARK    6  A    between atoms: C_4  and  C_6
REMARK    7  A    between atoms: C_19  and  C_20
REMARK    8  A    between atoms: C_20  and  O_21
REMARK    9  A    between atoms: O_21  and  C_22
REMARK   10  A    between atoms: C_22  and  C_23
REMARK                            x       y       z     vdW  Elec       q    Type
REMARK                         _______ _______ _______ _____ _____    ______ ____
ROOT
ATOM      1  C   UNL     1      48.374   8.147  13.387  0.00  0.00    +0.000 C 
ATOM      2  C   UNL     1      47.903   6.704  13.653  0.00  0.00    +0.000 C 
ENDROOT
BRANCH   2   3
ATOM      3  C   UNL     1      46.670   6.367  12.819  0.00  0.00    +0.000 A 
ATOM      4  C   UNL     1      46.773   6.350  11.414  0.00  0.00    +0.000 A 
ATOM      5  C   UNL     1      45.739   5.853  10.616  0.00  0.00    +0.000 A 
ATOM      6  C   UNL     1      44.593   5.307  11.201  0.00  0.00    +0.000 A 
ATOM      7  C   UNL     1      44.446   5.395  12.584  0.00  0.00    +0.000 A 
ATOM      8  C   UNL     1      45.448   5.966  13.369  0.00  0.00    +0.000 A 
BRANCH   6   9
ATOM      9  C   UNL     1      43.555   4.613  10.368  0.00  0.00    +0.000 C 
BRANCH   9  10
ATOM     10  O   UNL     1      44.181   4.211   9.154  0.00  0.00    +0.000 OA
BRANCH  10  11
ATOM     11  C   UNL     1      44.454   2.817   9.135  0.00  0.00    +0.000 C 
BRANCH  11  12
ATOM     12  C   UNL     1      45.571   2.577   8.155  0.00  0.00    +0.000 A 
ATOM     13  C   UNL     1      45.942   3.561   7.231  0.00  0.00    +0.000 A 
ATOM     14  C   UNL     1      46.987   3.331   6.335  0.00  0.00    +0.000 A 
ATOM     15  C   UNL     1      47.670   2.115   6.355  0.00  0.00    +0.000 A 
ATOM     16  C   UNL     1      47.309   1.128   7.268  0.00  0.00    +0.000 A 
ATOM     17  C   UNL     1      46.267   1.355   8.166  0.00  0.00    +0.000 A 
ENDBRANCH  11  12
ENDBRANCH  10  11
ENDBRANCH   9  10
ENDBRANCH   6   9
ENDBRANCH   2   3
BRANCH   2  18
ATOM     18  N   UNL     1      47.788   6.586  15.118  0.00  0.00    +0.000 NA
ATOM     19  H   UNL     1      46.809   6.699  15.376  0.00  0.00    +0.000 HD
BRANCH  18  20
ATOM     20  C   UNL     1      48.347   5.409  15.797  0.00  0.00    +0.000 C 
ATOM     21  C   UNL     1      47.317   4.281  15.684  0.00  0.00    +0.000 C 
BRANCH  20  22
ATOM     22  C   UNL     1      48.735   5.720  17.216  0.00  0.00    +0.000 A 
ATOM     23  C   UNL     1      48.149   5.179  18.346  0.00  0.00    +0.000 A 
ATOM     24  S   UNL     1      48.684   5.917  19.795  0.00  0.00    +0.000 S 
ATOM     25  C   UNL     1      49.687   6.997  18.942  0.00  0.00    +0.000 A 
ATOM     26  N   UNL     1      50.336   8.018  19.568  0.00  0.00    +0.000 NA
ATOM     27  C   UNL     1      51.019   8.773  18.771  0.00  0.00    +0.000 A 
ATOM     28  N   UNL     1      51.181   8.559  17.425  0.00  0.00    +0.000 N 
ATOM     29  C   UNL     1      50.653   7.462  16.776  0.00  0.00    +0.000 A 
ATOM     30  O   UNL     1      51.012   7.150  15.648  0.00  0.00    +0.000 OA
ATOM     31  C   UNL     1      49.726   6.702  17.594  0.00  0.00    +0.000 A 
ATOM     32  H   UNL     1      51.795   9.144  16.880  0.00  0.00    +0.000 HD
ENDBRANCH  20  22
ENDBRANCH  18  20
ENDBRANCH   2  18
TORSDOF 8
ENDMDL
MODEL 5
REMARK VINA RESULT:    -7.348      3.071      4.241
REMARK INTER + INTRA:         -11.940
REMARK INTER:                 -10.187
REMARK INTRA:                  -1.753
REMARK UNBOUND:                -1.155
REMARK  Name = 
REMARK  10 active torsions:
REMARK  status: ('A' for Active; 'I' for Inactive)
REMARK    1  A    between atoms: C_1  and  C_2
REMARK    2  A    between atoms: C_2  and  N_3
REMARK    3  A    between atoms: C_2  and  C_16
REMARK    4  A    between atoms: N_3  and  C_4
REMARK    5  A    between atoms: C_4  and  C_5
REMARK    6  A    between atoms: C_4  and  C_6
REMARK    7  A    between atoms: C_19  and  C_20
REMARK    8  A    between atoms: C_20  and  O_21
REMARK    9  A    between atoms: O_21  and  C_22
REMARK   10  A    between atoms: C_22  and  C_23
REMARK                            x       y       z     vdW  Elec       q    Type
REMARK                         _______ _______ _______ _____ _____    ______ ____
ROOT
ATOM      1  C   UNL     1      48.547   8.804  12.778  0.00  0.00    +0.000 C 
ATOM      2  C   UNL     1      48.580   7.266  12.703  0.00  0.00    +0.000 C 
ENDROOT
BRANCH   2   3
ATOM      3  C   UNL     1      47.179   6.679  12.859  0.00  0.00    +0.000 A 
ATOM      4  C   UNL     1      46.099   7.291  12.194  0.00  0.00    +0.000 A 
ATOM      5  C   UNL     1      44.842   6.682  12.137  0.00  0.00    +0.000 A 
ATOM      6  C   UNL     1      44.643   5.417  12.697  0.00  0.00    +0.000 A 
ATOM      7  C   UNL     1      45.680   4.841  13.428  0.00  0.00    +0.000 A 
ATOM      8  C   UNL     1      46.908   5.493  13.549  0.00  0.00    +0.000 A 
BRANCH   6   9
ATOM      9  C   UNL     1      43.353   4.676  12.494  0.00  0.00    +0.000 C 
BRANCH   9  10
ATOM     10  O   UNL     1      43.278   4.320  11.117  0.00  0.00    +0.000 OA
BRANCH  10  11
ATOM     11  C   UNL     1      43.829   3.034  10.871  0.00  0.00    +0.000 C 
BRANCH  11  12
ATOM     12  C   UNL     1      44.741   3.141   9.679  0.00  0.00    +0.000 A 
ATOM     13  C   UNL     1      45.108   4.389   9.162  0.00  0.00    +0.000 A 
ATOM     14  C   UNL     1      45.963   4.475   8.063  0.00  0.00    +0.000 A 
ATOM     15  C   UNL     1      46.460   3.313   7.472  0.00  0.00    +0.000 A 
ATOM     16  C   UNL     1      46.102   2.067   7.976  0.00  0.00    +0.000 A 
ATOM     17  C   UNL     1      45.248   1.977   9.075  0.00  0.00    +0.000 A 
ENDBRANCH  11  12
ENDBRANCH  10  11
ENDBRANCH   9  10
ENDBRANCH   6   9
ENDBRANCH   2   3
BRANCH   2  18
ATOM     18  N   UNL     1      49.608   6.842  13.671  0.00  0.00    +0.000 NA
ATOM     19  H   UNL     1      50.392   6.441  13.156  0.00  0.00    +0.000 HD
BRANCH  18  20
ATOM     20  C   UNL     1      50.107   7.800  14.666  0.00  0.00    +0.000 C 
ATOM     21  C   UNL     1      51.600   8.010  14.395  0.00  0.00    +0.000 C 
BRANCH  20  22
ATOM     22  C   UNL     1      49.817   7.344  16.069  0.00  0.00    +0.000 A 
ATOM     23  C   UNL     1      50.126   6.100  16.590  0.00  0.00    +0.000 A 
ATOM     24  S   UNL     1      49.457   5.842  18.145  0.00  0.00    +0.000 S 
ATOM     25  C   UNL     1      48.714   7.375  18.143  0.00  0.00    +0.000 A 
ATOM     26  N   UNL     1      47.850   7.753  19.126  0.00  0.00    +0.000 NA
ATOM     27  C   UNL     1      47.338   8.928  18.951  0.00  0.00    +0.000 A 
ATOM     28  N   UNL     1      47.667   9.790  17.936  0.00  0.00    +0.000 N 
ATOM     29  C   UNL     1      48.636   9.501  16.997  0.00  0.00    +0.000 A 
ATOM     30  O   UNL     1      49.096  10.365  16.262  0.00  0.00    +0.000 OA
ATOM     31  C   UNL     1      49.091   8.124  17.046  0.00  0.00    +0.000 A 
ATOM     32  H   UNL     1      47.287  10.724  17.909  0.00  0.00    +0.000 HD
ENDBRANCH  20  22
ENDBRANCH  18  20
ENDBRANCH   2  18
TORSDOF 8
ENDMDL
MODEL 6
REMARK VINA RESULT:    -7.224      4.533      5.802
REMARK INTER + INTRA:         -11.758
REMARK INTER:                 -10.411
REMARK INTRA:                  -1.347
REMARK UNBOUND:                -1.155
REMARK  Name = 
REMARK  10 active torsions:
REMARK  status: ('A' for Active; 'I' for Inactive)
REMARK    1  A    between atoms: C_1  and  C_2
REMARK    2  A    between atoms: C_2  and  N_3
REMARK    3  A    between atoms: C_2  and  C_16
REMARK    4  A    between atoms: N_3  and  C_4
REMARK    5  A    between atoms: C_4  and  C_5
REMARK    6  A    between atoms: C_4  and  C_6
REMARK    7  A    between atoms: C_19  and  C_20
REMARK    8  A    between atoms: C_20  and  O_21
REMARK    9  A    between atoms: O_21  and  C_22
REMARK   10  A    between atoms: C_22  and  C_23
REMARK                            x       y       z     vdW  Elec       q    Type
REMARK                         _______ _______ _______ _____ _____    ______ ____
ROOT
ATOM      1  C   UNL     1      47.919   7.337  13.958  0.00  0.00    +0.000 C 
ATOM      2  C   UNL     1      47.056   8.021  12.882  0.00  0.00    +0.000 C 
ENDROOT
BRANCH   2   3
ATOM      3  C   UNL     1      46.043   7.046  12.288  0.00  0.00    +0.000 A 
ATOM      4  C   UNL     1      46.300   6.469  11.028  0.00  0.00    +0.000 A 
ATOM      5  C   UNL     1      45.514   5.424  10.535  0.00  0.00    +0.000 A 
ATOM      6  C   UNL     1      44.482   4.888  11.309  0.00  0.00    +0.000 A 
ATOM      7  C   UNL     1      44.168   5.504  12.519  0.00  0.00    +0.000 A 
ATOM      8  C   UNL     1      44.906   6.599  12.969  0.00  0.00    +0.000 A 
BRANCH   6   9
ATOM      9  C   UNL     1      43.745   3.656  10.869  0.00  0.00    +0.000 C 
BRANCH   9  10
ATOM     10  O   UNL     1      44.088   3.416   9.508  0.00  0.00    +0.000 OA
BRANCH  10  11
ATOM     11  C   UNL     1      44.615   2.111   9.316  0.00  0.00    +0.000 C 
BRANCH  11  12
ATOM     12  C   UNL     1      45.650   2.185   8.227  0.00  0.00    +0.000 A 
ATOM     13  C   UNL     1      46.515   1.112   7.980  0.00  0.00    +0.000 A 
ATOM     14  C   UNL     1      47.463   1.189   6.959  0.00  0.00    +0.000 A 
ATOM     15  C   UNL     1      47.555   2.340   6.175  0.00  0.00    +0.000 A 
ATOM     16  C   UNL     1      46.701   3.413   6.412  0.00  0.00    +0.000 A 
ATOM     17  C   UNL     1      45.752   3.339   7.430  0.00  0.00    +0.000 A 
ENDBRANCH  11  12
ENDBRANCH  10  11
ENDBRANCH   9  10
ENDBRANCH   6   9
ENDBRANCH   2   3
BRANCH   2  18
ATOM     18  N   UNL     1      48.008   8.663  11.956  0.00  0.00    +0.000 NA
ATOM     19  H   UNL     1      47.590   8.685  11.026  0.00  0.00    +0.000 HD
BRANCH  18  20
ATOM     20  C   UNL     1      48.559   9.984  12.283  0.00  0.00    +0.000 C 
ATOM     21  C   UNL     1      47.414  10.997  12.185  0.00  0.00    +0.000 C 
BRANCH  20  22
ATOM     22  C   UNL     1      49.732  10.328  11.408  0.00  0.00    +0.000 A 
ATOM     23  C   UNL     1      49.776  11.364  10.493  0.00  0.00    +0.000 A 
ATOM     24  S   UNL     1      51.180  11.332   9.513  0.00  0.00    +0.000 S 
ATOM     25  C   UNL     1      51.745   9.914  10.270  0.00  0.00    +0.000 A 
ATOM     26  N   UNL     1      52.842   9.247   9.814  0.00  0.00    +0.000 NA
ATOM     27  C   UNL     1      53.110   8.165  10.471  0.00  0.00    +0.000 A 
ATOM     28  N   UNL     1      52.437   7.732  11.586  0.00  0.00    +0.000 N 
ATOM     29  C   UNL     1      51.407   8.447  12.161  0.00  0.00    +0.000 A 
ATOM     30  O   UNL     1      50.991   8.185  13.282  0.00  0.00    +0.000 OA
ATOM     31  C   UNL     1      50.955   9.559  11.345  0.00  0.00    +0.000 A 
ATOM     32  H   UNL     1      52.753   6.921  12.095  0.00  0.00    +0.000 HD
ENDBRANCH  20  22
ENDBRANCH  18  20
ENDBRANCH   2  18
TORSDOF 8
ENDMDL
MODEL 7
REMARK VINA RESULT:    -7.140      4.026      8.526
REMARK INTER + INTRA:         -11.635
REMARK INTER:                  -9.909
REMARK INTRA:                  -1.726
REMARK UNBOUND:                -1.155
REMARK  Name = 
REMARK  10 active torsions:
REMARK  status: ('A' for Active; 'I' for Inactive)
REMARK    1  A    between atoms: C_1  and  C_2
REMARK    2  A    between atoms: C_2  and  N_3
REMARK    3  A    between atoms: C_2  and  C_16
REMARK    4  A    between atoms: N_3  and  C_4
REMARK    5  A    between atoms: C_4  and  C_5
REMARK    6  A    between atoms: C_4  and  C_6
REMARK    7  A    between atoms: C_19  and  C_20
REMARK    8  A    between atoms: C_20  and  O_21
REMARK    9  A    between atoms: O_21  and  C_22
REMARK   10  A    between atoms: C_22  and  C_23
REMARK                            x       y       z     vdW  Elec       q    Type
REMARK                         _______ _______ _______ _____ _____    ______ ____
ROOT
ATOM      1  C   UNL     1      48.854   8.548  11.785  0.00  0.00    +0.000 C 
ATOM      2  C   UNL     1      47.753   8.129  12.777  0.00  0.00    +0.000 C 
ENDROOT
BRANCH   2   3
ATOM      3  C   UNL     1      48.304   8.023  14.197  0.00  0.00    +0.000 A 
ATOM      4  C   UNL     1      48.134   9.104  15.083  0.00  0.00    +0.000 A 
ATOM      5  C   UNL     1      48.435   8.983  16.442  0.00  0.00    +0.000 A 
ATOM      6  C   UNL     1      48.863   7.760  16.966  0.00  0.00    +0.000 A 
ATOM      7  C   UNL     1      49.113   6.709  16.085  0.00  0.00    +0.000 A 
ATOM      8  C   UNL     1      48.888   6.863  14.717  0.00  0.00    +0.000 A 
BRANCH   6   9
ATOM      9  C   UNL     1      49.022   7.565  18.446  0.00  0.00    +0.000 C 
BRANCH   9  10
ATOM     10  O   UNL     1      47.928   6.772  18.893  0.00  0.00    +0.000 OA
BRANCH  10  11
ATOM     11  C   UNL     1      48.363   5.611  19.587  0.00  0.00    +0.000 C 
BRANCH  11  12
ATOM     12  C   UNL     1      48.509   4.499  18.584  0.00  0.00    +0.000 A 
ATOM     13  C   UNL     1      47.421   4.077  17.812  0.00  0.00    +0.000 A 
ATOM     14  C   UNL     1      47.573   3.053  16.876  0.00  0.00    +0.000 A 
ATOM     15  C   UNL     1      48.816   2.443  16.704  0.00  0.00    +0.000 A 
ATOM     16  C   UNL     1      49.905   2.854  17.466  0.00  0.00    +0.000 A 
ATOM     17  C   UNL     1      49.757   3.877  18.401  0.00  0.00    +0.000 A 
ENDBRANCH  11  12
ENDBRANCH  10  11
ENDBRANCH   9  10
ENDBRANCH   6   9
ENDBRANCH   2   3
BRANCH   2  18
ATOM     18  N   UNL     1      47.131   6.925  12.196  0.00  0.00    +0.000 NA
ATOM     19  H   UNL     1      46.774   6.347  12.955  0.00  0.00    +0.000 HD
BRANCH  18  20
ATOM     20  C   UNL     1      46.102   7.070  11.157  0.00  0.00    +0.000 C 
ATOM     21  C   UNL     1      44.946   7.872  11.763  0.00  0.00    +0.000 C 
BRANCH  20  22
ATOM     22  C   UNL     1      45.676   5.736  10.609  0.00  0.00    +0.000 A 
ATOM     23  C   UNL     1      45.751   5.352   9.283  0.00  0.00    +0.000 A 
ATOM     24  S   UNL     1      44.978   3.855   8.975  0.00  0.00    +0.000 S 
ATOM     25  C   UNL     1      44.499   3.704  10.603  0.00  0.00    +0.000 A 
ATOM     26  N   UNL     1      43.665   2.708  11.014  0.00  0.00    +0.000 NA
ATOM     27  C   UNL     1      43.362   2.762  12.271  0.00  0.00    +0.000 A 
ATOM     28  N   UNL     1      43.876   3.664  13.169  0.00  0.00    +0.000 N 
ATOM     29  C   UNL     1      44.826   4.602  12.823  0.00  0.00    +0.000 A 
ATOM     30  O   UNL     1      45.455   5.221  13.671  0.00  0.00    +0.000 OA
ATOM     31  C   UNL     1      45.044   4.697  11.391  0.00  0.00    +0.000 A 
ATOM     32  H   UNL     1      43.656   3.595  14.151  0.00  0.00    +0.000 HD
ENDBRANCH  20  22
ENDBRANCH  18  20
ENDBRANCH   2  18
TORSDOF 8
ENDMDL
MODEL 8
REMARK VINA RESULT:    -7.079      3.680      8.594
REMARK INTER + INTRA:         -11.544
REMARK INTER:                  -9.677
REMARK INTRA:                  -1.867
REMARK UNBOUND:                -1.155
REMARK  Name = 
REMARK  10 active torsions:
REMARK  status: ('A' for Active; 'I' for Inactive)
REMARK    1  A    between atoms: C_1  and  C_2
REMARK    2  A    between atoms: C_2  and  N_3
REMARK    3  A    between atoms: C_2  and  C_16
REMARK    4  A    between atoms: N_3  and  C_4
REMARK    5  A    between atoms: C_4  and  C_5
REMARK    6  A    between atoms: C_4  and  C_6
REMARK    7  A    between atoms: C_19  and  C_20
REMARK    8  A    between atoms: C_20  and  O_21
REMARK    9  A    between atoms: O_21  and  C_22
REMARK   10  A    between atoms: C_22  and  C_23
REMARK                            x       y       z     vdW  Elec       q    Type
REMARK                         _______ _______ _______ _____ _____    ______ ____
ROOT
ATOM      1  C   UNL     1      49.280   7.653  11.583  0.00  0.00    +0.000 C 
ATOM      2  C   UNL     1      48.172   7.839  12.637  0.00  0.00    +0.000 C 
ENDROOT
BRANCH   2   3
ATOM      3  C   UNL     1      48.763   7.961  14.039  0.00  0.00    +0.000 A 
ATOM      4  C   UNL     1      48.113   8.771  14.992  0.00  0.00    +0.000 A 
ATOM      5  C   UNL     1      48.493   8.756  16.336  0.00  0.00    +0.000 A 
ATOM      6  C   UNL     1      49.497   7.891  16.779  0.00  0.00    +0.000 A 
ATOM      7  C   UNL     1      50.200   7.147  15.834  0.00  0.00    +0.000 A 
ATOM      8  C   UNL     1      49.869   7.227  14.481  0.00  0.00    +0.000 A 
BRANCH   6   9
ATOM      9  C   UNL     1      49.795   7.737  18.243  0.00  0.00    +0.000 C 
BRANCH   9  10
ATOM     10  O   UNL     1      48.743   6.967  18.815  0.00  0.00    +0.000 OA
BRANCH  10  11
ATOM     11  C   UNL     1      49.198   5.699  19.265  0.00  0.00    +0.000 C 
BRANCH  11  12
ATOM     12  C   UNL     1      48.814   4.675  18.232  0.00  0.00    +0.000 A 
ATOM     13  C   UNL     1      49.596   3.533  18.023  0.00  0.00    +0.000 A 
ATOM     14  C   UNL     1      49.222   2.585  17.069  0.00  0.00    +0.000 A 
ATOM     15  C   UNL     1      48.063   2.770  16.317  0.00  0.00    +0.000 A 
ATOM     16  C   UNL     1      47.277   3.902  16.515  0.00  0.00    +0.000 A 
ATOM     17  C   UNL     1      47.647   4.850  17.468  0.00  0.00    +0.000 A 
ENDBRANCH  11  12
ENDBRANCH  10  11
ENDBRANCH   9  10
ENDBRANCH   6   9
ENDBRANCH   2   3
BRANCH   2  18
ATOM     18  N   UNL     1      47.206   6.751  12.396  0.00  0.00    +0.000 NA
ATOM     19  H   UNL     1      46.920   6.367  13.296  0.00  0.00    +0.000 HD
BRANCH  18  20
ATOM     20  C   UNL     1      46.021   7.004  11.566  0.00  0.00    +0.000 C 
ATOM     21  C   UNL     1      45.519   8.413  11.897  0.00  0.00    +0.000 C 
BRANCH  20  22
ATOM     22  C   UNL     1      44.975   5.941  11.756  0.00  0.00    +0.000 A 
ATOM     23  C   UNL     1      44.141   5.821  12.853  0.00  0.00    +0.000 A 
ATOM     24  S   UNL     1      43.226   4.374  12.842  0.00  0.00    +0.000 S 
ATOM     25  C   UNL     1      43.947   3.861  11.386  0.00  0.00    +0.000 A 
ATOM     26  N   UNL     1      43.725   2.618  10.875  0.00  0.00    +0.000 NA
ATOM     27  C   UNL     1      44.383   2.371   9.789  0.00  0.00    +0.000 A 
ATOM     28  N   UNL     1      45.176   3.272   9.125  0.00  0.00    +0.000 N 
ATOM     29  C   UNL     1      45.321   4.581   9.533  0.00  0.00    +0.000 A 
ATOM     30  O   UNL     1      45.817   5.430   8.803  0.00  0.00    +0.000 OA
ATOM     31  C   UNL     1      44.756   4.840  10.845  0.00  0.00    +0.000 A 
ATOM     32  H   UNL     1      45.595   3.034   8.239  0.00  0.00    +0.000 HD
ENDBRANCH  20  22
ENDBRANCH  18  20
ENDBRANCH   2  18
TORSDOF 8
ENDMDL
MODEL 9
REMARK VINA RESULT:    -7.075      3.889      9.710
REMARK INTER + INTRA:         -11.539
REMARK INTER:                  -9.965
REMARK INTRA:                  -1.574
REMARK UNBOUND:                -1.155
REMARK  Name = 
REMARK  10 active torsions:
REMARK  status: ('A' for Active; 'I' for Inactive)
REMARK    1  A    between atoms: C_1  and  C_2
REMARK    2  A    between atoms: C_2  and  N_3
REMARK    3  A    between atoms: C_2  and  C_16
REMARK    4  A    between atoms: N_3  and  C_4
REMARK    5  A    between atoms: C_4  and  C_5
REMARK    6  A    between atoms: C_4  and  C_6
REMARK    7  A    between atoms: C_19  and  C_20
REMARK    8  A    between atoms: C_20  and  O_21
REMARK    9  A    between atoms: O_21  and  C_22
REMARK   10  A    between atoms: C_22  and  C_23
REMARK                            x       y       z     vdW  Elec       q    Type
REMARK                         _______ _______ _______ _____ _____    ______ ____
ROOT
ATOM      1  C   UNL     1      49.236   7.598  12.252  0.00  0.00    +0.000 C 
ATOM      2  C   UNL     1      47.889   7.100  12.810  0.00  0.00    +0.000 C 
ENDROOT
BRANCH   2   3
ATOM      3  C   UNL     1      48.090   6.287  14.087  0.00  0.00    +0.000 A 
ATOM      4  C   UNL     1      48.995   6.751  15.062  0.00  0.00    +0.000 A 
ATOM      5  C   UNL     1      49.065   6.160  16.326  0.00  0.00    +0.000 A 
ATOM      6  C   UNL     1      48.194   5.123  16.673  0.00  0.00    +0.000 A 
ATOM      7  C   UNL     1      47.354   4.604  15.690  0.00  0.00    +0.000 A 
ATOM      8  C   UNL     1      47.347   5.146  14.404  0.00  0.00    +0.000 A 
BRANCH   6   9
ATOM      9  C   UNL     1      48.138   4.598  18.078  0.00  0.00    +0.000 C 
BRANCH   9  10
ATOM     10  O   UNL     1      48.610   5.629  18.939  0.00  0.00    +0.000 OA
BRANCH  10  11
ATOM     11  C   UNL     1      47.853   5.706  20.139  0.00  0.00    +0.000 C 
BRANCH  11  12
ATOM     12  C   UNL     1      47.526   7.154  20.387  0.00  0.00    +0.000 A 
ATOM     13  C   UNL     1      47.328   7.635  21.686  0.00  0.00    +0.000 A 
ATOM     14  C   UNL     1      47.037   8.982  21.904  0.00  0.00    +0.000 A 
ATOM     15  C   UNL     1      46.943   9.861  20.825  0.00  0.00    +0.000 A 
ATOM     16  C   UNL     1      47.138   9.394  19.528  0.00  0.00    +0.000 A 
ATOM     17  C   UNL     1      47.430   8.048  19.307  0.00  0.00    +0.000 A 
ENDBRANCH  11  12
ENDBRANCH  10  11
ENDBRANCH   9  10
ENDBRANCH   6   9
ENDBRANCH   2   3
BRANCH   2  18
ATOM     18  N   UNL     1      47.210   6.438  11.681  0.00  0.00    +0.000 NA
ATOM     19  H   UNL     1      47.233   5.430  11.835  0.00  0.00    +0.000 HD
BRANCH  18  20
ATOM     20  C   UNL     1      45.852   6.851  11.308  0.00  0.00    +0.000 C 
ATOM     21  C   UNL     1      45.463   8.024  12.212  0.00  0.00    +0.000 C 
BRANCH  20  22
ATOM     22  C   UNL     1      44.884   5.703  11.376  0.00  0.00    +0.000 A 
ATOM     23  C   UNL     1      43.992   5.463  12.406  0.00  0.00    +0.000 A 
ATOM     24  S   UNL     1      43.199   3.952  12.266  0.00  0.00    +0.000 S 
ATOM     25  C   UNL     1      44.054   3.571  10.842  0.00  0.00    +0.000 A 
ATOM     26  N   UNL     1      43.966   2.342  10.262  0.00  0.00    +0.000 NA
ATOM     27  C   UNL     1      44.712   2.201   9.214  0.00  0.00    +0.000 A 
ATOM     28  N   UNL     1      45.472   3.193   8.648  0.00  0.00    +0.000 N 
ATOM     29  C   UNL     1      45.484   4.488   9.123  0.00  0.00    +0.000 A 
ATOM     30  O   UNL     1      45.956   5.408   8.469  0.00  0.00    +0.000 OA
ATOM     31  C   UNL     1      44.815   4.635  10.403  0.00  0.00    +0.000 A 
ATOM     32  H   UNL     1      45.966   3.033   7.783  0.00  0.00    +0.000 HD
ENDBRANCH  20  22
ENDBRANCH  18  20
ENDBRANCH   2  18
TORSDOF 8
ENDMDL
