MODEL 1
REMARK VINA RESULT:    -7.740      0.000      0.000
REMARK INTER + INTRA:          -8.926
REMARK INTER:                  -8.645
REMARK INTRA:                  -0.281
REMARK UNBOUND:                -0.281
REMARK  Name = 
REMARK  2 active torsions:
REMARK  status: ('A' for Active; 'I' for Inactive)
REMARK    1  A    between atoms: N_5  and  C_6
REMARK    2  A    between atoms: C_6  and  C_7
REMARK                            x       y       z     vdW  Elec       q    Type
REMARK                         _______ _______ _______ _____ _____    ______ ____
ROOT
ATOM      1  C   UNL     1      44.961   4.363  11.844  0.00  0.00    +0.000 A 
ATOM      2  C   UNL     1      45.465   3.280  12.540  0.00  0.00    +0.000 A 
ATOM      3  N   UNL     1      46.526   3.388  13.353  0.00  0.00    +0.000 NA
ATOM      4  N   UNL     1      47.133   4.615  13.515  0.00  0.00    +0.000 NA
ATOM      5  C   UNL     1      46.693   5.722  12.877  0.00  0.00    +0.000 A 
ATOM      6  N   UNL     1      47.322   6.930  13.079  0.00  0.00    +0.000 N 
ATOM      7  C   UNL     1      47.368   8.004  12.084  0.00  0.00    +0.000 C 
ATOM      8  C   UNL     1      48.825   8.361  11.746  0.00  0.00    +0.000 C 
ATOM      9  O   UNL     1      49.589   8.657  12.924  0.00  0.00    +0.000 OA
ATOM     10  C   UNL     1      49.619   7.511  13.791  0.00  0.00    +0.000 C 
ATOM     11  C   UNL     1      48.205   7.112  14.240  0.00  0.00    +0.000 C 
ATOM     12  C   UNL     1      45.585   5.601  12.042  0.00  0.00    +0.000 A 
ENDROOT
BRANCH   1  13
ATOM     13  C   UNL     1      43.796   4.206  10.910  0.00  0.00    +0.000 C 
BRANCH  13  18
ATOM     14  C   UNL     1      46.694   2.368   7.448  0.00  0.00    +0.000 A 
ATOM     15  C   UNL     1      45.802   1.835   8.340  0.00  0.00    +0.000 A 
ATOM     16  N   UNL     1      44.947   2.580   9.065  0.00  0.00    +0.000 NA
ATOM     17  C   UNL     1      44.985   3.910   8.886  0.00  0.00    +0.000 A 
ATOM     18  N   UNL     1      44.120   4.730   9.603  0.00  0.00    +0.000 N 
ATOM     19  N   UNL     1      45.830   4.524   8.048  0.00  0.00    +0.000 NA
ATOM     20  C   UNL     1      46.665   3.735   7.340  0.00  0.00    +0.000 A 
ATOM     21  H   UNL     1      44.520   5.660   9.578  0.00  0.00    +0.000 HD
ENDBRANCH  13  18
ENDBRANCH   1  13
TORSDOF 2
ENDMDL
MODEL 2
REMARK VINA RESULT:    -7.673      1.849      2.731
REMARK INTER + INTRA:          -8.852
REMARK INTER:                  -8.470
REMARK INTRA:                  -0.382
REMARK UNBOUND:                -0.281
REMARK  Name = 
REMARK  2 active torsions:
REMARK  status: ('A' for Active; 'I' for Inactive)
REMARK    1  A    between atoms: N_5  and  C_6
REMARK    2  A    between atoms: C_6  and  C_7
REMARK                            x       y       z     vdW  Elec       q    Type
REMARK                         _______ _______ _______ _____ _____    ______ ____
ROOT
ATOM      1  C   UNL     1      44.565   5.314  11.434  0.00  0.00    +0.000 A 
ATOM      2  C   UNL     1      44.359   6.681  11.424  0.00  0.00    +0.000 A 
ATOM      3  N   UNL     1      45.072   7.514  12.196  0.00  0.00    +0.000 NA
ATOM      4  N   UNL     1      46.052   7.002  13.020  0.00  0.00    +0.000 NA
ATOM      5  C   UNL     1      46.319   5.679  13.078  0.00  0.00    +0.000 A 
ATOM      6  N   UNL     1      47.316   5.214  13.907  0.00  0.00    +0.000 N 
ATOM      7  C   UNL     1      47.320   3.879  14.509  0.00  0.00    +0.000 C 
ATOM      8  C   UNL     1      47.378   3.981  16.043  0.00  0.00    +0.000 C 
ATOM      9  O   UNL     1      48.474   4.797  16.482  0.00  0.00    +0.000 OA
ATOM     10  C   UNL     1      48.329   6.132  15.968  0.00  0.00    +0.000 C 
ATOM     11  C   UNL     1      48.327   6.143  14.432  0.00  0.00    +0.000 C 
ATOM     12  C   UNL     1      45.579   4.823  12.266  0.00  0.00    +0.000 A 
ENDROOT
BRANCH   1  13
ATOM     13  C   UNL     1      43.726   4.400  10.589  0.00  0.00    +0.000 C 
BRANCH  13  18
ATOM     14  C   UNL     1      46.690   2.043   7.521  0.00  0.00    +0.000 A 
ATOM     15  C   UNL     1      45.864   1.662   8.545  0.00  0.00    +0.000 A 
ATOM     16  N   UNL     1      44.966   2.487   9.116  0.00  0.00    +0.000 NA
ATOM     17  C   UNL     1      44.891   3.740   8.639  0.00  0.00    +0.000 A 
ATOM     18  N   UNL     1      43.977   4.634   9.186  0.00  0.00    +0.000 N 
ATOM     19  N   UNL     1      45.665   4.207   7.652  0.00  0.00    +0.000 NA
ATOM     20  C   UNL     1      46.546   3.342   7.107  0.00  0.00    +0.000 A 
ATOM     21  H   UNL     1      44.299   5.562   8.935  0.00  0.00    +0.000 HD
ENDBRANCH  13  18
ENDBRANCH   1  13
TORSDOF 2
ENDMDL
MODEL 3
REMARK VINA RESULT:    -6.939      1.047      1.241
REMARK INTER + INTRA:          -8.032
REMARK INTER:                  -7.638
REMARK INTRA:                  -0.394
REMARK UNBOUND:                -0.281
REMARK  Name = 
REMARK  2 active torsions:
REMARK  status: ('A' for Active; 'I' for Inactive)
REMARK    1  A    between atoms: N_5  and  C_6
REMARK    2  A    between atoms: C_6  and  C_7
REMARK                            x       y       z     vdW  Elec       q    Type
REMARK                         _______ _______ _______ _____ _____    ______ ____
ROOT
ATOM      1  C   UNL     1      45.788   5.337  12.419  0.00  0.00    +0.000 A 
ATOM      2  C   UNL     1      46.286   4.297  13.181  0.00  0.00    +0.000 A 
ATOM      3  N   UNL     1      47.424   4.411  13.883  0.00  0.00    +0.000 NA
ATOM      4  N   UNL     1      48.117   5.603  13.860  0.00  0.00    +0.000 NA
ATOM      5  C   UNL     1      47.688   6.668  13.147  0.00  0.00    +0.000 A 
ATOM      6  N   UNL     1      48.406   7.843  13.164  0.00  0.00    +0.000 N 
ATOM      7  C   UNL     1      48.425   8.804  12.059  0.00  0.00    +0.000 C 
ATOM      8  C   UNL     1      49.864   9.022  11.561  0.00  0.00    +0.000 C 
ATOM      9  O   UNL     1      50.750   9.380  12.630  0.00  0.00    +0.000 OA
ATOM     10  C   UNL     1      50.790   8.328  13.610  0.00  0.00    +0.000 C 
ATOM     11  C   UNL     1      49.403   8.078  14.219  0.00  0.00    +0.000 C 
ATOM     12  C   UNL     1      46.502   6.542  12.428  0.00  0.00    +0.000 A 
ENDROOT
BRANCH   1  13
ATOM     13  C   UNL     1      44.533   5.169  11.611  0.00  0.00    +0.000 C 
BRANCH  13  18
ATOM     14  C   UNL     1      46.049   2.564   7.780  0.00  0.00    +0.000 A 
ATOM     15  C   UNL     1      45.219   2.321   8.841  0.00  0.00    +0.000 A 
ATOM     16  N   UNL     1      44.778   3.286   9.671  0.00  0.00    +0.000 NA
ATOM     17  C   UNL     1      45.181   4.542   9.423  0.00  0.00    +0.000 A 
ATOM     18  N   UNL     1      44.752   5.581  10.244  0.00  0.00    +0.000 N 
ATOM     19  N   UNL     1      46.002   4.876   8.420  0.00  0.00    +0.000 NA
ATOM     20  C   UNL     1      46.413   3.876   7.612  0.00  0.00    +0.000 A 
ATOM     21  H   UNL     1      45.403   6.345  10.102  0.00  0.00    +0.000 HD
ENDBRANCH  13  18
ENDBRANCH   1  13
TORSDOF 2
ENDMDL
MODEL 4
REMARK VINA RESULT:    -6.653      2.678      3.226
REMARK INTER + INTRA:          -7.712
REMARK INTER:                  -7.377
REMARK INTRA:                  -0.335
REMARK UNBOUND:                -0.281
REMARK  Name = 
REMARK  2 active torsions:
REMARK  status: ('A' for Active; 'I' for Inactive)
REMARK    1  A    between atoms: N_5  and  C_6
REMARK    2  A    between atoms: C_6  and  C_7
REMARK                            x       y       z     vdW  Elec       q    Type
REMARK                         _______ _______ _______ _____ _____    ______ ____
ROOT
ATOM      1  C   UNL     1      44.692   5.347  10.914  0.00  0.00    +0.000 A 
ATOM      2  C   UNL     1      45.892   5.143  11.569  0.00  0.00    +0.000 A 
ATOM      3  N   UNL     1      46.565   6.147  12.151  0.00  0.00    +0.000 NA
ATOM      4  N   UNL     1      46.046   7.423  12.109  0.00  0.00    +0.000 NA
ATOM      5  C   UNL     1      44.874   7.700  11.496  0.00  0.00    +0.000 A 
ATOM      6  N   UNL     1      44.387   8.988  11.492  0.00  0.00    +0.000 N 
ATOM      7  C   UNL     1      43.529   9.533  10.437  0.00  0.00    +0.000 C 
ATOM      8  C   UNL     1      44.181  10.771   9.798  0.00  0.00    +0.000 C 
ATOM      9  O   UNL     1      44.547  11.748  10.782  0.00  0.00    +0.000 OA
ATOM     10  C   UNL     1      45.500  11.188  11.702  0.00  0.00    +0.000 C 
ATOM     11  C   UNL     1      44.916   9.976  12.443  0.00  0.00    +0.000 C 
ATOM     12  C   UNL     1      44.179   6.649  10.903  0.00  0.00    +0.000 A 
ENDROOT
BRANCH   1  13
ATOM     13  C   UNL     1      43.980   4.212  10.238  0.00  0.00    +0.000 C 
BRANCH  13  18
ATOM     14  C   UNL     1      46.906   1.805   7.171  0.00  0.00    +0.000 A 
ATOM     15  C   UNL     1      46.198   1.464   8.293  0.00  0.00    +0.000 A 
ATOM     16  N   UNL     1      45.275   2.267   8.855  0.00  0.00    +0.000 NA
ATOM     17  C   UNL     1      45.049   3.453   8.268  0.00  0.00    +0.000 A 
ATOM     18  N   UNL     1      44.102   4.320   8.802  0.00  0.00    +0.000 N 
ATOM     19  N   UNL     1      45.700   3.879   7.179  0.00  0.00    +0.000 NA
ATOM     20  C   UNL     1      46.613   3.039   6.648  0.00  0.00    +0.000 A 
ATOM     21  H   UNL     1      44.318   5.240   8.437  0.00  0.00    +0.000 HD
ENDBRANCH  13  18
ENDBRANCH   1  13
TORSDOF 2
ENDMDL
MODEL 5
REMARK VINA RESULT:    -6.433      3.093      3.965
REMARK INTER + INTRA:          -7.466
REMARK INTER:                  -7.214
REMARK INTRA:                  -0.251
REMARK UNBOUND:                -0.281
REMARK  Name = 
REMARK  2 active torsions:
REMARK  status: ('A' for Active; 'I' for Inactive)
REMARK    1  A    between atoms: N_5  and  C_6
REMARK    2  A    between atoms: C_6  and  C_7
REMARK                            x       y       z     vdW  Elec       q    Type
REMARK                         _______ _______ _______ _____ _____    ______ ____
ROOT
ATOM      1  C   UNL     1      46.653   5.030  13.641  0.00  0.00    +0.000 A 
ATOM      2  C   UNL     1      47.514   5.885  12.978  0.00  0.00    +0.000 A 
ATOM      3  N   UNL     1      48.569   6.445  13.587  0.00  0.00    +0.000 NA
ATOM      4  N   UNL     1      48.818   6.155  14.913  0.00  0.00    +0.000 NA
ATOM      5  C   UNL     1      48.028   5.322  15.624  0.00  0.00    +0.000 A 
ATOM      6  N   UNL     1      48.323   5.051  16.942  0.00  0.00    +0.000 N 
ATOM      7  C   UNL     1      47.317   4.700  17.948  0.00  0.00    +0.000 C 
ATOM      8  C   UNL     1      47.354   5.700  19.116  0.00  0.00    +0.000 C 
ATOM      9  O   UNL     1      48.673   5.830  19.665  0.00  0.00    +0.000 OA
ATOM     10  C   UNL     1      49.579   6.314  18.658  0.00  0.00    +0.000 C 
ATOM     11  C   UNL     1      49.663   5.345  17.469  0.00  0.00    +0.000 C 
ATOM     12  C   UNL     1      46.939   4.739  14.980  0.00  0.00    +0.000 A 
ENDROOT
BRANCH   1  13
ATOM     13  C   UNL     1      45.456   4.449  12.945  0.00  0.00    +0.000 C 
BRANCH  13  18
ATOM     14  C   UNL     1      44.955   2.930   8.340  0.00  0.00    +0.000 A 
ATOM     15  C   UNL     1      44.607   2.423   9.565  0.00  0.00    +0.000 A 
ATOM     16  N   UNL     1      44.661   3.140  10.703  0.00  0.00    +0.000 NA
ATOM     17  C   UNL     1      45.076   4.414  10.610  0.00  0.00    +0.000 A 
ATOM     18  N   UNL     1      45.146   5.204  11.753  0.00  0.00    +0.000 N 
ATOM     19  N   UNL     1      45.450   4.991   9.462  0.00  0.00    +0.000 NA
ATOM     20  C   UNL     1      45.374   4.235   8.347  0.00  0.00    +0.000 A 
ATOM     21  H   UNL     1      45.769   5.972  11.531  0.00  0.00    +0.000 HD
ENDBRANCH  13  18
ENDBRANCH   1  13
TORSDOF 2
ENDMDL
MODEL 6
REMARK VINA RESULT:    -6.324      3.431      7.093
REMARK INTER + INTRA:          -7.344
REMARK INTER:                  -6.999
REMARK INTRA:                  -0.345
REMARK UNBOUND:                -0.281
REMARK  Name = 
REMARK  2 active torsions:
REMARK  status: ('A' for Active; 'I' for Inactive)
REMARK    1  A    between atoms: N_5  and  C_6
REMARK    2  A    between atoms: C_6  and  C_7
REMARK                            x       y       z     vdW  Elec       q    Type
REMARK                         _______ _______ _______ _____ _____    ______ ____
ROOT
ATOM      1  C   UNL     1      48.124   6.692  13.743  0.00  0.00    +0.000 A 
ATOM      2  C   UNL     1      48.666   7.279  12.615  0.00  0.00    +0.000 A 
ATOM      3  N   UNL     1      48.037   7.261  11.431  0.00  0.00    +0.000 NA
ATOM      4  N   UNL     1      46.805   6.650  11.328  0.00  0.00    +0.000 NA
ATOM      5  C   UNL     1      46.206   6.064  12.388  0.00  0.00    +0.000 A 
ATOM      6  N   UNL     1      44.968   5.478  12.242  0.00  0.00    +0.000 N 
ATOM      7  C   UNL     1      44.496   4.354  13.054  0.00  0.00    +0.000 C 
ATOM      8  C   UNL     1      44.135   3.157  12.158  0.00  0.00    +0.000 C 
ATOM      9  O   UNL     1      43.212   3.526  11.122  0.00  0.00    +0.000 OA
ATOM     10  C   UNL     1      43.797   4.532  10.278  0.00  0.00    +0.000 C 
ATOM     11  C   UNL     1      44.136   5.802  11.074  0.00  0.00    +0.000 C 
ATOM     12  C   UNL     1      46.864   6.095  13.615  0.00  0.00    +0.000 A 
ENDROOT
BRANCH   1  13
ATOM     13  C   UNL     1      48.869   6.692  15.047  0.00  0.00    +0.000 C 
BRANCH  13  18
ATOM     14  C   UNL     1      49.163   2.804  17.972  0.00  0.00    +0.000 A 
ATOM     15  C   UNL     1      50.074   3.671  17.428  0.00  0.00    +0.000 A 
ATOM     16  N   UNL     1      49.726   4.817  16.813  0.00  0.00    +0.000 NA
ATOM     17  C   UNL     1      48.417   5.107  16.745  0.00  0.00    +0.000 A 
ATOM     18  N   UNL     1      48.001   6.282  16.126  0.00  0.00    +0.000 N 
ATOM     19  N   UNL     1      47.454   4.317  17.235  0.00  0.00    +0.000 NA
ATOM     20  C   UNL     1      47.851   3.182  17.846  0.00  0.00    +0.000 A 
ATOM     21  H   UNL     1      47.023   6.151  15.893  0.00  0.00    +0.000 HD
ENDBRANCH  13  18
ENDBRANCH   1  13
TORSDOF 2
ENDMDL
MODEL 7
REMARK VINA RESULT:    -5.735      4.474      5.857
REMARK INTER + INTRA:          -6.687
REMARK INTER:                  -6.479
REMARK INTRA:                  -0.208
REMARK UNBOUND:                -0.281
REMARK  Name = 
REMARK  2 active torsions:
REMARK  status: ('A' for Active; 'I' for Inactive)
REMARK    1  A    between atoms: N_5  and  C_6
REMARK    2  A    between atoms: C_6  and  C_7
REMARK                            x       y       z     vdW  Elec       q    Type
REMARK                         _______ _______ _______ _____ _____    ______ ____
ROOT
ATOM      1  C   UNL     1      47.479   4.112  15.801  0.00  0.00    +0.000 A 
ATOM      2  C   UNL     1      48.015   2.838  15.836  0.00  0.00    +0.000 A 
ATOM      3  N   UNL     1      48.615   2.348  16.930  0.00  0.00    +0.000 NA
ATOM      4  N   UNL     1      48.695   3.127  18.065  0.00  0.00    +0.000 NA
ATOM      5  C   UNL     1      48.185   4.378  18.112  0.00  0.00    +0.000 A 
ATOM      6  N   UNL     1      48.276   5.115  19.272  0.00  0.00    +0.000 N 
ATOM      7  C   UNL     1      48.333   6.578  19.307  0.00  0.00    +0.000 C 
ATOM      8  C   UNL     1      49.617   7.049  20.012  0.00  0.00    +0.000 C 
ATOM      9  O   UNL     1      49.764   6.453  21.308  0.00  0.00    +0.000 OA
ATOM     10  C   UNL     1      49.843   5.022  21.184  0.00  0.00    +0.000 C 
ATOM     11  C   UNL     1      48.570   4.444  20.547  0.00  0.00    +0.000 C 
ATOM     12  C   UNL     1      47.557   4.874  16.973  0.00  0.00    +0.000 A 
ENDROOT
BRANCH   1  13
ATOM     13  C   UNL     1      46.848   4.650  14.550  0.00  0.00    +0.000 C 
BRANCH  13  18
ATOM     14  C   UNL     1      43.301   4.581  11.207  0.00  0.00    +0.000 A 
ATOM     15  C   UNL     1      44.249   5.493  11.586  0.00  0.00    +0.000 A 
ATOM     16  N   UNL     1      45.275   5.196  12.405  0.00  0.00    +0.000 NA
ATOM     17  C   UNL     1      45.356   3.935  12.858  0.00  0.00    +0.000 A 
ATOM     18  N   UNL     1      46.399   3.569  13.703  0.00  0.00    +0.000 N 
ATOM     19  N   UNL     1      44.470   2.978  12.556  0.00  0.00    +0.000 NA
ATOM     20  C   UNL     1      43.462   3.322  11.727  0.00  0.00    +0.000 A 
ATOM     21  H   UNL     1      46.101   2.722  14.174  0.00  0.00    +0.000 HD
ENDBRANCH  13  18
ENDBRANCH   1  13
TORSDOF 2
ENDMDL
MODEL 8
REMARK VINA RESULT:    -5.694      3.305      7.538
REMARK INTER + INTRA:          -6.640
REMARK INTER:                  -6.433
REMARK INTRA:                  -0.207
REMARK UNBOUND:                -0.281
REMARK  Name = 
REMARK  2 active torsions:
REMARK  status: ('A' for Active; 'I' for Inactive)
REMARK    1  A    between atoms: N_5  and  C_6
REMARK    2  A    between atoms: C_6  and  C_7
REMARK                            x       y       z     vdW  Elec       q    Type
REMARK                         _______ _______ _______ _____ _____    ______ ____
ROOT
ATOM      1  C   UNL     1      47.586   7.317  13.583  0.00  0.00    +0.000 A 
ATOM      2  C   UNL     1      46.979   8.529  13.310  0.00  0.00    +0.000 A 
ATOM      3  N   UNL     1      45.706   8.610  12.896  0.00  0.00    +0.000 NA
ATOM      4  N   UNL     1      44.968   7.455  12.747  0.00  0.00    +0.000 NA
ATOM      5  C   UNL     1      45.488   6.234  13.004  0.00  0.00    +0.000 A 
ATOM      6  N   UNL     1      44.709   5.108  12.854  0.00  0.00    +0.000 N 
ATOM      7  C   UNL     1      45.242   3.787  12.515  0.00  0.00    +0.000 C 
ATOM      8  C   UNL     1      44.601   3.265  11.217  0.00  0.00    +0.000 C 
ATOM      9  O   UNL     1      43.168   3.292  11.281  0.00  0.00    +0.000 OA
ATOM     10  C   UNL     1      42.710   4.641  11.474  0.00  0.00    +0.000 C 
ATOM     11  C   UNL     1      43.246   5.232  12.787  0.00  0.00    +0.000 C 
ATOM     12  C   UNL     1      46.808   6.162  13.442  0.00  0.00    +0.000 A 
ENDROOT
BRANCH   1  13
ATOM     13  C   UNL     1      49.025   7.253  14.007  0.00  0.00    +0.000 C 
BRANCH  13  18
ATOM     14  C   UNL     1      52.993   6.360  16.694  0.00  0.00    +0.000 A 
ATOM     15  C   UNL     1      52.653   7.305  15.763  0.00  0.00    +0.000 A 
ATOM     16  N   UNL     1      51.398   7.476  15.307  0.00  0.00    +0.000 NA
ATOM     17  C   UNL     1      50.447   6.671  15.807  0.00  0.00    +0.000 A 
ATOM     18  N   UNL     1      49.131   6.806  15.377  0.00  0.00    +0.000 N 
ATOM     19  N   UNL     1      50.684   5.710  16.708  0.00  0.00    +0.000 NA
ATOM     20  C   UNL     1      51.956   5.580  17.138  0.00  0.00    +0.000 A 
ATOM     21  H   UNL     1      48.665   5.934  15.603  0.00  0.00    +0.000 HD
ENDBRANCH  13  18
ENDBRANCH   1  13
TORSDOF 2
ENDMDL
MODEL 9
REMARK VINA RESULT:    -5.676      3.438      5.290
REMARK INTER + INTRA:          -6.621
REMARK INTER:                  -6.284
REMARK INTRA:                  -0.336
REMARK UNBOUND:                -0.281
REMARK  Name = 
REMARK  2 active torsions:
REMARK  status: ('A' for Active; 'I' for Inactive)
REMARK    1  A    between atoms: N_5  and  C_6
REMARK    2  A    between atoms: C_6  and  C_7
REMARK                            x       y       z     vdW  Elec       q    Type
REMARK                         _______ _______ _______ _____ _____    ______ ____
ROOT
ATOM      1  C   UNL     1      48.109   6.501  13.784  0.00  0.00    +0.000 A 
ATOM      2  C   UNL     1      49.298   7.188  13.621  0.00  0.00    +0.000 A 
ATOM      3  N   UNL     1      50.224   7.247  14.590  0.00  0.00    +0.000 NA
ATOM      4  N   UNL     1      49.997   6.597  15.784  0.00  0.00    +0.000 NA
ATOM      5  C   UNL     1      48.864   5.897  16.015  0.00  0.00    +0.000 A 
ATOM      6  N   UNL     1      48.687   5.252  17.218  0.00  0.00    +0.000 N 
ATOM      7  C   UNL     1      47.376   4.995  17.821  0.00  0.00    +0.000 C 
ATOM      8  C   UNL     1      47.291   5.636  19.216  0.00  0.00    +0.000 C 
ATOM      9  O   UNL     1      48.382   5.234  20.056  0.00  0.00    +0.000 OA
ATOM     10  C   UNL     1      49.630   5.644  19.471  0.00  0.00    +0.000 C 
ATOM     11  C   UNL     1      49.841   4.999  18.093  0.00  0.00    +0.000 C 
ATOM     12  C   UNL     1      47.913   5.834  15.000  0.00  0.00    +0.000 A 
ENDROOT
BRANCH   1  13
ATOM     13  C   UNL     1      47.073   6.484  12.698  0.00  0.00    +0.000 C 
BRANCH  13  18
ATOM     14  C   UNL     1      43.355   3.468  11.778  0.00  0.00    +0.000 A 
ATOM     15  C   UNL     1      44.712   3.317  11.892  0.00  0.00    +0.000 A 
ATOM     16  N   UNL     1      45.524   4.278  12.372  0.00  0.00    +0.000 NA
ATOM     17  C   UNL     1      44.955   5.431  12.756  0.00  0.00    +0.000 A 
ATOM     18  N   UNL     1      45.744   6.457  13.265  0.00  0.00    +0.000 N 
ATOM     19  N   UNL     1      43.642   5.676  12.669  0.00  0.00    +0.000 NA
ATOM     20  C   UNL     1      42.867   4.682  12.187  0.00  0.00    +0.000 A 
ATOM     21  H   UNL     1      45.200   7.307  13.177  0.00  0.00    +0.000 HD
ENDBRANCH  13  18
ENDBRANCH   1  13
TORSDOF 2
ENDMDL
