MODEL 1
REMARK VINA RESULT:    -8.581      0.000      0.000
REMARK INTER + INTRA:         -12.829
REMARK INTER:                 -12.093
REMARK INTRA:                  -0.736
REMARK UNBOUND:                -0.736
REMARK  Name = 
REMARK  8 active torsions:
REMARK  status: ('A' for Active; 'I' for Inactive)
REMARK    1  A    between atoms: C_1  and  C_2
REMARK    2  A    between atoms: C_2  and  C_3
REMARK    3  A    between atoms: C_3  and  C_5
REMARK    4  A    between atoms: C_8  and  C_9
REMARK    5  A    between atoms: C_9  and  C_10
REMARK    6  A    between atoms: C_13  and  C_14
REMARK    7  A    between atoms: C_14  and  N_15
REMARK    8  A    between atoms: C_16  and  C_18
REMARK                            x       y       z     vdW  Elec       q    Type
REMARK                         _______ _______ _______ _____ _____    ______ ____
ROOT
ATOM      1  C   UNL     1      44.604   5.885  11.424  0.00  0.00    +0.000 A 
ATOM      2  C   UNL     1      44.448   7.277  11.396  0.00  0.00    +0.000 A 
ATOM      3  C   UNL     1      45.309   8.106  12.120  0.00  0.00    +0.000 A 
ATOM      4  C   UNL     1      46.351   7.560  12.879  0.00  0.00    +0.000 A 
ATOM      5  C   UNL     1      46.465   6.166  12.960  0.00  0.00    +0.000 A 
ATOM      6  C   UNL     1      45.607   5.337  12.233  0.00  0.00    +0.000 A 
ENDROOT
BRANCH   1   7
ATOM      7  C   UNL     1      43.746   4.993  10.556  0.00  0.00    +0.000 C 
BRANCH   7  11
ATOM      8  C   UNL     1      46.111   2.413   8.129  0.00  0.00    +0.000 A 
ATOM      9  C   UNL     1      45.193   1.829   8.993  0.00  0.00    +0.000 A 
ATOM     10  C   UNL     1      44.404   2.662   9.787  0.00  0.00    +0.000 A 
ATOM     11  C   UNL     1      44.551   4.049   9.697  0.00  0.00    +0.000 A 
ATOM     12  C   UNL     1      45.505   4.532   8.805  0.00  0.00    +0.000 A 
ATOM     13  N   UNL     1      46.281   3.754   8.018  0.00  0.00    +0.000 NA
BRANCH   8  14
ATOM     14  C   UNL     1      46.975   1.553   7.265  0.00  0.00    +0.000 C 
ATOM     15  O   UNL     1      46.952   0.332   7.392  0.00  0.00    +0.000 OA
BRANCH  14  17
ATOM     16  C   UNL     1      47.064   2.804   5.070  0.00  0.00    +0.000 C 
ATOM     17  C   UNL     1      47.854   2.266   6.250  0.00  0.00    +0.000 C 
ENDBRANCH  14  17
ENDBRANCH   8  14
ENDBRANCH   7  11
ENDBRANCH   1   7
BRANCH   4  18
ATOM     18  C   UNL     1      47.316   8.447  13.625  0.00  0.00    +0.000 C 
BRANCH  18  19
ATOM     19  N   UNL     1      47.705   7.842  14.870  0.00  0.00    +0.000 N 
ATOM     20  C   UNL     1      48.851   7.102  14.993  0.00  0.00    +0.000 C 
ATOM     21  O   UNL     1      49.642   6.955  14.066  0.00  0.00    +0.000 OA
ATOM     22  H   UNL     1      46.970   7.735  15.561  0.00  0.00    +0.000 HD
BRANCH  20  23
ATOM     23  C   UNL     1      49.113   6.552  16.330  0.00  0.00    +0.000 A 
ATOM     24  C   UNL     1      49.823   7.299  17.261  0.00  0.00    +0.000 A 
ATOM     25  S   UNL     1      49.940   6.547  18.789  0.00  0.00    +0.000 S 
ATOM     26  C   UNL     1      49.099   5.174  18.241  0.00  0.00    +0.000 A 
ATOM     27  N   UNL     1      48.853   4.123  19.071  0.00  0.00    +0.000 NA
ATOM     28  C   UNL     1      48.236   3.137  18.515  0.00  0.00    +0.000 A 
ATOM     29  N   UNL     1      47.842   3.101  17.202  0.00  0.00    +0.000 N 
ATOM     30  C   UNL     1      48.053   4.143  16.331  0.00  0.00    +0.000 A 
ATOM     31  O   UNL     1      47.674   4.083  15.167  0.00  0.00    +0.000 OA
ATOM     32  C   UNL     1      48.737   5.284  16.911  0.00  0.00    +0.000 A 
ATOM     33  H   UNL     1      47.364   2.296  16.824  0.00  0.00    +0.000 HD
ENDBRANCH  20  23
ENDBRANCH  18  19
ENDBRANCH   4  18
TORSDOF 7
ENDMDL
MODEL 2
REMARK VINA RESULT:    -7.484      1.754      2.505
REMARK INTER + INTRA:         -11.283
REMARK INTER:                 -10.605
REMARK INTRA:                  -0.678
REMARK UNBOUND:                -0.736
REMARK  Name = 
REMARK  8 active torsions:
REMARK  status: ('A' for Active; 'I' for Inactive)
REMARK    1  A    between atoms: C_1  and  C_2
REMARK    2  A    between atoms: C_2  and  C_3
REMARK    3  A    between atoms: C_3  and  C_5
REMARK    4  A    between atoms: C_8  and  C_9
REMARK    5  A    between atoms: C_9  and  C_10
REMARK    6  A    between atoms: C_13  and  C_14
REMARK    7  A    between atoms: C_14  and  N_15
REMARK    8  A    between atoms: C_16  and  C_18
REMARK                            x       y       z     vdW  Elec       q    Type
REMARK                         _______ _______ _______ _____ _____    ______ ____
ROOT
ATOM      1  C   UNL     1      45.178   6.047  11.373  0.00  0.00    +0.000 A 
ATOM      2  C   UNL     1      46.376   5.566  11.919  0.00  0.00    +0.000 A 
ATOM      3  C   UNL     1      47.166   6.380  12.736  0.00  0.00    +0.000 A 
ATOM      4  C   UNL     1      46.768   7.689  13.033  0.00  0.00    +0.000 A 
ATOM      5  C   UNL     1      45.605   8.191  12.434  0.00  0.00    +0.000 A 
ATOM      6  C   UNL     1      44.813   7.377  11.621  0.00  0.00    +0.000 A 
ENDROOT
BRANCH   1   7
ATOM      7  C   UNL     1      44.268   5.137  10.582  0.00  0.00    +0.000 C 
BRANCH   7  11
ATOM      8  C   UNL     1      46.289   2.418   8.000  0.00  0.00    +0.000 A 
ATOM      9  C   UNL     1      46.459   3.778   7.771  0.00  0.00    +0.000 A 
ATOM     10  C   UNL     1      45.811   4.681   8.615  0.00  0.00    +0.000 A 
ATOM     11  C   UNL     1      45.016   4.204   9.661  0.00  0.00    +0.000 A 
ATOM     12  C   UNL     1      44.906   2.823   9.800  0.00  0.00    +0.000 A 
ATOM     13  N   UNL     1      45.524   1.922   9.003  0.00  0.00    +0.000 NA
BRANCH   8  14
ATOM     14  C   UNL     1      46.965   1.422   7.116  0.00  0.00    +0.000 C 
ATOM     15  O   UNL     1      46.803   0.219   7.307  0.00  0.00    +0.000 OA
BRANCH  14  17
ATOM     16  C   UNL     1      47.048   2.809   5.004  0.00  0.00    +0.000 C 
ATOM     17  C   UNL     1      47.836   1.976   6.000  0.00  0.00    +0.000 C 
ENDBRANCH  14  17
ENDBRANCH   8  14
ENDBRANCH   7  11
ENDBRANCH   1   7
BRANCH   4  18
ATOM     18  C   UNL     1      47.587   8.559  13.953  0.00  0.00    +0.000 C 
BRANCH  18  19
ATOM     19  N   UNL     1      47.812   7.900  15.211  0.00  0.00    +0.000 N 
ATOM     20  C   UNL     1      49.050   7.453  15.588  0.00  0.00    +0.000 C 
ATOM     21  O   UNL     1      50.052   7.635  14.902  0.00  0.00    +0.000 OA
ATOM     22  H   UNL     1      46.989   7.522  15.667  0.00  0.00    +0.000 HD
BRANCH  20  23
ATOM     23  C   UNL     1      49.119   6.802  16.903  0.00  0.00    +0.000 A 
ATOM     24  C   UNL     1      49.697   5.546  17.027  0.00  0.00    +0.000 A 
ATOM     25  S   UNL     1      49.784   4.994  18.640  0.00  0.00    +0.000 S 
ATOM     26  C   UNL     1      48.999   6.387  19.220  0.00  0.00    +0.000 A 
ATOM     27  N   UNL     1      48.750   6.551  20.547  0.00  0.00    +0.000 NA
ATOM     28  C   UNL     1      48.121   7.638  20.842  0.00  0.00    +0.000 A 
ATOM     29  N   UNL     1      47.713   8.577  19.930  0.00  0.00    +0.000 N 
ATOM     30  C   UNL     1      47.955   8.463  18.582  0.00  0.00    +0.000 A 
ATOM     31  O   UNL     1      47.588   9.329  17.796  0.00  0.00    +0.000 OA
ATOM     32  C   UNL     1      48.671   7.260  18.198  0.00  0.00    +0.000 A 
ATOM     33  H   UNL     1      47.219   9.407  20.223  0.00  0.00    +0.000 HD
ENDBRANCH  20  23
ENDBRANCH  18  19
ENDBRANCH   4  18
TORSDOF 7
ENDMDL
MODEL 3
REMARK VINA RESULT:    -6.967      2.187      2.808
REMARK INTER + INTRA:         -10.554
REMARK INTER:                  -9.810
REMARK INTRA:                  -0.744
REMARK UNBOUND:                -0.736
REMARK  Name = 
REMARK  8 active torsions:
REMARK  status: ('A' for Active; 'I' for Inactive)
REMARK    1  A    between atoms: C_1  and  C_2
REMARK    2  A    between atoms: C_2  and  C_3
REMARK    3  A    between atoms: C_3  and  C_5
REMARK    4  A    between atoms: C_8  and  C_9
REMARK    5  A    between atoms: C_9  and  C_10
REMARK    6  A    between atoms: C_13  and  C_14
REMARK    7  A    between atoms: C_14  and  N_15
REMARK    8  A    between atoms: C_16  and  C_18
REMARK                            x       y       z     vdW  Elec       q    Type
REMARK                         _______ _______ _______ _____ _____    ______ ____
ROOT
ATOM      1  C   UNL     1      45.031   5.337  11.879  0.00  0.00    +0.000 A 
ATOM      2  C   UNL     1      45.253   6.720  11.940  0.00  0.00    +0.000 A 
ATOM      3  C   UNL     1      46.137   7.260  12.878  0.00  0.00    +0.000 A 
ATOM      4  C   UNL     1      46.827   6.428  13.767  0.00  0.00    +0.000 A 
ATOM      5  C   UNL     1      46.556   5.053  13.750  0.00  0.00    +0.000 A 
ATOM      6  C   UNL     1      45.675   4.512  12.810  0.00  0.00    +0.000 A 
ENDROOT
BRANCH   1   7
ATOM      7  C   UNL     1      44.163   4.740  10.796  0.00  0.00    +0.000 C 
BRANCH   7  11
ATOM      8  C   UNL     1      46.278   2.335   7.989  0.00  0.00    +0.000 A 
ATOM      9  C   UNL     1      46.317   3.713   7.821  0.00  0.00    +0.000 A 
ATOM     10  C   UNL     1      45.637   4.515   8.738  0.00  0.00    +0.000 A 
ATOM     11  C   UNL     1      44.941   3.921   9.795  0.00  0.00    +0.000 A 
ATOM     12  C   UNL     1      44.959   2.531   9.870  0.00  0.00    +0.000 A 
ATOM     13  N   UNL     1      45.612   1.726   9.001  0.00  0.00    +0.000 NA
BRANCH   8  14
ATOM     14  C   UNL     1      46.993   1.444   7.025  0.00  0.00    +0.000 C 
ATOM     15  O   UNL     1      46.864   0.225   7.102  0.00  0.00    +0.000 OA
BRANCH  14  17
ATOM     16  C   UNL     1      47.039   2.821   4.905  0.00  0.00    +0.000 C 
ATOM     17  C   UNL     1      47.859   2.124   5.978  0.00  0.00    +0.000 C 
ENDBRANCH  14  17
ENDBRANCH   8  14
ENDBRANCH   7  11
ENDBRANCH   1   7
BRANCH   4  18
ATOM     18  C   UNL     1      47.820   6.995  14.750  0.00  0.00    +0.000 C 
BRANCH  18  19
ATOM     19  N   UNL     1      48.649   5.954  15.294  0.00  0.00    +0.000 N 
ATOM     20  C   UNL     1      48.604   5.603  16.617  0.00  0.00    +0.000 C 
ATOM     21  O   UNL     1      47.816   6.116  17.407  0.00  0.00    +0.000 OA
ATOM     22  H   UNL     1      49.460   5.698  14.742  0.00  0.00    +0.000 HD
BRANCH  20  23
ATOM     23  C   UNL     1      49.509   4.518  17.020  0.00  0.00    +0.000 A 
ATOM     24  C   UNL     1      49.053   3.208  17.050  0.00  0.00    +0.000 A 
ATOM     25  S   UNL     1      50.267   2.073  17.438  0.00  0.00    +0.000 S 
ATOM     26  C   UNL     1      51.429   3.299  17.637  0.00  0.00    +0.000 A 
ATOM     27  N   UNL     1      52.711   3.002  17.982  0.00  0.00    +0.000 NA
ATOM     28  C   UNL     1      53.476   4.030  18.131  0.00  0.00    +0.000 A 
ATOM     29  N   UNL     1      53.076   5.332  17.969  0.00  0.00    +0.000 N 
ATOM     30  C   UNL     1      51.798   5.680  17.605  0.00  0.00    +0.000 A 
ATOM     31  O   UNL     1      51.478   6.854  17.454  0.00  0.00    +0.000 OA
ATOM     32  C   UNL     1      50.898   4.557  17.415  0.00  0.00    +0.000 A 
ATOM     33  H   UNL     1      53.723   6.096  18.103  0.00  0.00    +0.000 HD
ENDBRANCH  20  23
ENDBRANCH  18  19
ENDBRANCH   4  18
TORSDOF 7
ENDMDL
MODEL 4
REMARK VINA RESULT:    -6.947      4.086      8.872
REMARK INTER + INTRA:         -10.526
REMARK INTER:                  -9.275
REMARK INTRA:                  -1.251
REMARK UNBOUND:                -0.736
REMARK  Name = 
REMARK  8 active torsions:
REMARK  status: ('A' for Active; 'I' for Inactive)
REMARK    1  A    between atoms: C_1  and  C_2
REMARK    2  A    between atoms: C_2  and  C_3
REMARK    3  A    between atoms: C_3  and  C_5
REMARK    4  A    between atoms: C_8  and  C_9
REMARK    5  A    between atoms: C_9  and  C_10
REMARK    6  A    between atoms: C_13  and  C_14
REMARK    7  A    between atoms: C_14  and  N_15
REMARK    8  A    between atoms: C_16  and  C_18
REMARK                            x       y       z     vdW  Elec       q    Type
REMARK                         _______ _______ _______ _____ _____    ______ ____
ROOT
ATOM      1  C   UNL     1      49.051   5.111  17.093  0.00  0.00    +0.000 A 
ATOM      2  C   UNL     1      47.968   4.655  16.329  0.00  0.00    +0.000 A 
ATOM      3  C   UNL     1      47.647   5.263  15.112  0.00  0.00    +0.000 A 
ATOM      4  C   UNL     1      48.411   6.332  14.628  0.00  0.00    +0.000 A 
ATOM      5  C   UNL     1      49.453   6.828  15.422  0.00  0.00    +0.000 A 
ATOM      6  C   UNL     1      49.776   6.219  16.637  0.00  0.00    +0.000 A 
ENDROOT
BRANCH   1   7
ATOM      7  C   UNL     1      49.468   4.387  18.352  0.00  0.00    +0.000 C 
BRANCH   7  11
ATOM      8  C   UNL     1      52.577   1.569  17.620  0.00  0.00    +0.000 A 
ATOM      9  C   UNL     1      52.916   2.758  18.253  0.00  0.00    +0.000 A 
ATOM     10  C   UNL     1      51.906   3.687  18.508  0.00  0.00    +0.000 A 
ATOM     11  C   UNL     1      50.591   3.404  18.129  0.00  0.00    +0.000 A 
ATOM     12  C   UNL     1      50.359   2.186  17.495  0.00  0.00    +0.000 A 
ATOM     13  N   UNL     1      51.312   1.263  17.237  0.00  0.00    +0.000 NA
BRANCH   8  14
ATOM     14  C   UNL     1      53.631   0.552  17.328  0.00  0.00    +0.000 C 
ATOM     15  O   UNL     1      53.723   0.066  16.203  0.00  0.00    +0.000 OA
BRANCH  14  17
ATOM     16  C   UNL     1      54.460  -1.302  18.833  0.00  0.00    +0.000 C 
ATOM     17  C   UNL     1      54.553   0.171  18.475  0.00  0.00    +0.000 C 
ENDBRANCH  14  17
ENDBRANCH   8  14
ENDBRANCH   7  11
ENDBRANCH   1   7
BRANCH   4  18
ATOM     18  C   UNL     1      48.105   6.962  13.293  0.00  0.00    +0.000 C 
BRANCH  18  19
ATOM     19  N   UNL     1      47.349   6.061  12.466  0.00  0.00    +0.000 N 
ATOM     20  C   UNL     1      46.316   6.491  11.675  0.00  0.00    +0.000 C 
ATOM     21  O   UNL     1      46.008   7.676  11.582  0.00  0.00    +0.000 OA
ATOM     22  H   UNL     1      47.411   5.079  12.708  0.00  0.00    +0.000 HD
BRANCH  20  23
ATOM     23  C   UNL     1      45.643   5.451  10.886  0.00  0.00    +0.000 A 
ATOM     24  C   UNL     1      45.724   5.469   9.501  0.00  0.00    +0.000 A 
ATOM     25  S   UNL     1      44.973   4.129   8.757  0.00  0.00    +0.000 S 
ATOM     26  C   UNL     1      44.462   3.511  10.258  0.00  0.00    +0.000 A 
ATOM     27  N   UNL     1      43.747   2.356  10.335  0.00  0.00    +0.000 NA
ATOM     28  C   UNL     1      43.398   2.022  11.531  0.00  0.00    +0.000 A 
ATOM     29  N   UNL     1      43.696   2.740  12.661  0.00  0.00    +0.000 N 
ATOM     30  C   UNL     1      44.429   3.902  12.635  0.00  0.00    +0.000 A 
ATOM     31  O   UNL     1      44.689   4.511  13.667  0.00  0.00    +0.000 OA
ATOM     32  C   UNL     1      44.855   4.317  11.311  0.00  0.00    +0.000 A 
ATOM     33  H   UNL     1      43.391   2.428  13.571  0.00  0.00    +0.000 HD
ENDBRANCH  20  23
ENDBRANCH  18  19
ENDBRANCH   4  18
TORSDOF 7
ENDMDL
MODEL 5
REMARK VINA RESULT:    -6.944      3.326      8.711
REMARK INTER + INTRA:         -10.522
REMARK INTER:                  -9.289
REMARK INTRA:                  -1.233
REMARK UNBOUND:                -0.736
REMARK  Name = 
REMARK  8 active torsions:
REMARK  status: ('A' for Active; 'I' for Inactive)
REMARK    1  A    between atoms: C_1  and  C_2
REMARK    2  A    between atoms: C_2  and  C_3
REMARK    3  A    between atoms: C_3  and  C_5
REMARK    4  A    between atoms: C_8  and  C_9
REMARK    5  A    between atoms: C_9  and  C_10
REMARK    6  A    between atoms: C_13  and  C_14
REMARK    7  A    between atoms: C_14  and  N_15
REMARK    8  A    between atoms: C_16  and  C_18
REMARK                            x       y       z     vdW  Elec       q    Type
REMARK                         _______ _______ _______ _____ _____    ______ ____
ROOT
ATOM      1  C   UNL     1      49.597   7.836  15.634  0.00  0.00    +0.000 A 
ATOM      2  C   UNL     1      48.380   8.531  15.592  0.00  0.00    +0.000 A 
ATOM      3  C   UNL     1      47.654   8.627  14.402  0.00  0.00    +0.000 A 
ATOM      4  C   UNL     1      48.124   8.021  13.231  0.00  0.00    +0.000 A 
ATOM      5  C   UNL     1      49.372   7.383  13.257  0.00  0.00    +0.000 A 
ATOM      6  C   UNL     1      50.096   7.283  14.448  0.00  0.00    +0.000 A 
ENDROOT
BRANCH   1   7
ATOM      7  C   UNL     1      50.328   7.635  16.941  0.00  0.00    +0.000 C 
BRANCH   7  11
ATOM      8  C   UNL     1      51.469   3.570  17.503  0.00  0.00    +0.000 A 
ATOM      9  C   UNL     1      52.477   4.525  17.445  0.00  0.00    +0.000 A 
ATOM     10  C   UNL     1      52.118   5.861  17.271  0.00  0.00    +0.000 A 
ATOM     11  C   UNL     1      50.769   6.208  17.162  0.00  0.00    +0.000 A 
ATOM     12  C   UNL     1      49.837   5.176  17.226  0.00  0.00    +0.000 A 
ATOM     13  N   UNL     1      50.151   3.872  17.399  0.00  0.00    +0.000 NA
BRANCH   8  14
ATOM     14  C   UNL     1      51.815   2.129  17.686  0.00  0.00    +0.000 C 
ATOM     15  O   UNL     1      51.000   1.258  17.391  0.00  0.00    +0.000 OA
BRANCH  14  17
ATOM     16  C   UNL     1      53.813   0.583  17.612  0.00  0.00    +0.000 C 
ATOM     17  C   UNL     1      53.196   1.820  18.240  0.00  0.00    +0.000 C 
ENDBRANCH  14  17
ENDBRANCH   8  14
ENDBRANCH   7  11
ENDBRANCH   1   7
BRANCH   4  18
ATOM     18  C   UNL     1      47.325   8.076  11.953  0.00  0.00    +0.000 C 
BRANCH  18  19
ATOM     19  N   UNL     1      46.684   6.814  11.698  0.00  0.00    +0.000 N 
ATOM     20  C   UNL     1      45.364   6.596  11.989  0.00  0.00    +0.000 C 
ATOM     21  O   UNL     1      44.633   7.477  12.432  0.00  0.00    +0.000 OA
ATOM     22  H   UNL     1      47.302   6.020  11.576  0.00  0.00    +0.000 HD
BRANCH  20  23
ATOM     23  C   UNL     1      44.854   5.256  11.668  0.00  0.00    +0.000 A 
ATOM     24  C   UNL     1      44.167   4.526  12.628  0.00  0.00    +0.000 A 
ATOM     25  S   UNL     1      43.560   3.040  12.047  0.00  0.00    +0.000 S 
ATOM     26  C   UNL     1      44.244   3.296  10.511  0.00  0.00    +0.000 A 
ATOM     27  N   UNL     1      44.098   2.379   9.516  0.00  0.00    +0.000 NA
ATOM     28  C   UNL     1      44.696   2.686   8.416  0.00  0.00    +0.000 A 
ATOM     29  N   UNL     1      45.431   3.826   8.217  0.00  0.00    +0.000 N 
ATOM     30  C   UNL     1      45.593   4.788   9.185  0.00  0.00    +0.000 A 
ATOM     31  O   UNL     1      46.246   5.803   8.968  0.00  0.00    +0.000 OA
ATOM     32  C   UNL     1      44.930   4.495  10.442  0.00  0.00    +0.000 A 
ATOM     33  H   UNL     1      45.880   4.009   7.331  0.00  0.00    +0.000 HD
ENDBRANCH  20  23
ENDBRANCH  18  19
ENDBRANCH   4  18
TORSDOF 7
ENDMDL
MODEL 6
REMARK VINA RESULT:    -6.920      3.793      5.166
REMARK INTER + INTRA:         -10.488
REMARK INTER:                  -9.039
REMARK INTRA:                  -1.449
REMARK UNBOUND:                -0.736
REMARK  Name = 
REMARK  8 active torsions:
REMARK  status: ('A' for Active; 'I' for Inactive)
REMARK    1  A    between atoms: C_1  and  C_2
REMARK    2  A    between atoms: C_2  and  C_3
REMARK    3  A    between atoms: C_3  and  C_5
REMARK    4  A    between atoms: C_8  and  C_9
REMARK    5  A    between atoms: C_9  and  C_10
REMARK    6  A    between atoms: C_13  and  C_14
REMARK    7  A    between atoms: C_14  and  N_15
REMARK    8  A    between atoms: C_16  and  C_18
REMARK                            x       y       z     vdW  Elec       q    Type
REMARK                         _______ _______ _______ _____ _____    ______ ____
ROOT
ATOM      1  C   UNL     1      45.391   6.731  12.420  0.00  0.00    +0.000 A 
ATOM      2  C   UNL     1      46.518   6.150  13.019  0.00  0.00    +0.000 A 
ATOM      3  C   UNL     1      47.496   6.947  13.622  0.00  0.00    +0.000 A 
ATOM      4  C   UNL     1      47.360   8.340  13.649  0.00  0.00    +0.000 A 
ATOM      5  C   UNL     1      46.268   8.923  12.993  0.00  0.00    +0.000 A 
ATOM      6  C   UNL     1      45.288   8.128  12.394  0.00  0.00    +0.000 A 
ENDROOT
BRANCH   1   7
ATOM      7  C   UNL     1      44.280   5.869  11.867  0.00  0.00    +0.000 C 
BRANCH   7  11
ATOM      8  C   UNL     1      45.681   3.278   8.791  0.00  0.00    +0.000 A 
ATOM      9  C   UNL     1      45.062   2.701   9.893  0.00  0.00    +0.000 A 
ATOM     10  C   UNL     1      44.590   3.538  10.904  0.00  0.00    +0.000 A 
ATOM     11  C   UNL     1      44.744   4.922  10.787  0.00  0.00    +0.000 A 
ATOM     12  C   UNL     1      45.383   5.398   9.646  0.00  0.00    +0.000 A 
ATOM     13  N   UNL     1      45.848   4.616   8.646  0.00  0.00    +0.000 NA
BRANCH   8  14
ATOM     14  C   UNL     1      46.202   2.413   7.690  0.00  0.00    +0.000 C 
ATOM     15  O   UNL     1      46.373   1.212   7.879  0.00  0.00    +0.000 OA
BRANCH  14  17
ATOM     16  C   UNL     1      47.614   2.417   5.593  0.00  0.00    +0.000 C 
ATOM     17  C   UNL     1      46.494   3.095   6.363  0.00  0.00    +0.000 C 
ENDBRANCH  14  17
ENDBRANCH   8  14
ENDBRANCH   7  11
ENDBRANCH   1   7
BRANCH   4  18
ATOM     18  C   UNL     1      48.384   9.206  14.340  0.00  0.00    +0.000 C 
BRANCH  18  19
ATOM     19  N   UNL     1      49.600   9.264  13.575  0.00  0.00    +0.000 N 
ATOM     20  C   UNL     1      49.828  10.240  12.641  0.00  0.00    +0.000 C 
ATOM     21  O   UNL     1      49.033  11.154  12.438  0.00  0.00    +0.000 OA
ATOM     22  H   UNL     1      50.144   8.409  13.540  0.00  0.00    +0.000 HD
BRANCH  20  23
ATOM     23  C   UNL     1      51.120  10.166  11.945  0.00  0.00    +0.000 A 
ATOM     24  C   UNL     1      51.940  11.285  11.884  0.00  0.00    +0.000 A 
ATOM     25  S   UNL     1      53.442  10.986  11.131  0.00  0.00    +0.000 S 
ATOM     26  C   UNL     1      53.023   9.370  10.808  0.00  0.00    +0.000 A 
ATOM     27  N   UNL     1      53.885   8.536  10.165  0.00  0.00    +0.000 NA
ATOM     28  C   UNL     1      53.426   7.349   9.958  0.00  0.00    +0.000 A 
ATOM     29  N   UNL     1      52.179   6.916  10.332  0.00  0.00    +0.000 N 
ATOM     30  C   UNL     1      51.281   7.716  10.997  0.00  0.00    +0.000 A 
ATOM     31  O   UNL     1      50.180   7.292  11.330  0.00  0.00    +0.000 OA
ATOM     32  C   UNL     1      51.755   9.062  11.265  0.00  0.00    +0.000 A 
ATOM     33  H   UNL     1      51.875   5.974  10.138  0.00  0.00    +0.000 HD
ENDBRANCH  20  23
ENDBRANCH  18  19
ENDBRANCH   4  18
TORSDOF 7
ENDMDL
MODEL 7
REMARK VINA RESULT:    -6.864      5.504      7.670
REMARK INTER + INTRA:         -10.409
REMARK INTER:                  -9.144
REMARK INTRA:                  -1.265
REMARK UNBOUND:                -0.736
REMARK  Name = 
REMARK  8 active torsions:
REMARK  status: ('A' for Active; 'I' for Inactive)
REMARK    1  A    between atoms: C_1  and  C_2
REMARK    2  A    between atoms: C_2  and  C_3
REMARK    3  A    between atoms: C_3  and  C_5
REMARK    4  A    between atoms: C_8  and  C_9
REMARK    5  A    between atoms: C_9  and  C_10
REMARK    6  A    between atoms: C_13  and  C_14
REMARK    7  A    between atoms: C_14  and  N_15
REMARK    8  A    between atoms: C_16  and  C_18
REMARK                            x       y       z     vdW  Elec       q    Type
REMARK                         _______ _______ _______ _____ _____    ______ ____
ROOT
ATOM      1  C   UNL     1      47.874   8.135  12.934  0.00  0.00    +0.000 A 
ATOM      2  C   UNL     1      48.286   8.028  11.599  0.00  0.00    +0.000 A 
ATOM      3  C   UNL     1      49.640   8.119  11.261  0.00  0.00    +0.000 A 
ATOM      4  C   UNL     1      50.609   8.308  12.253  0.00  0.00    +0.000 A 
ATOM      5  C   UNL     1      50.191   8.480  13.579  0.00  0.00    +0.000 A 
ATOM      6  C   UNL     1      48.839   8.385  13.918  0.00  0.00    +0.000 A 
ENDROOT
BRANCH   1   7
ATOM      7  C   UNL     1      46.427   7.926  13.316  0.00  0.00    +0.000 C 
BRANCH   7  11
ATOM      8  C   UNL     1      44.741   4.434  11.554  0.00  0.00    +0.000 A 
ATOM      9  C   UNL     1      45.641   4.263  12.598  0.00  0.00    +0.000 A 
ATOM     10  C   UNL     1      46.195   5.398  13.191  0.00  0.00    +0.000 A 
ATOM     11  C   UNL     1      45.834   6.667  12.730  0.00  0.00    +0.000 A 
ATOM     12  C   UNL     1      44.928   6.729  11.675  0.00  0.00    +0.000 A 
ATOM     13  N   UNL     1      44.370   5.650  11.081  0.00  0.00    +0.000 NA
BRANCH   8  14
ATOM     14  C   UNL     1      44.130   3.242  10.892  0.00  0.00    +0.000 C 
ATOM     15  O   UNL     1      43.037   2.823  11.266  0.00  0.00    +0.000 OA
BRANCH  14  17
ATOM     16  C   UNL     1      44.708   3.306   8.432  0.00  0.00    +0.000 C 
ATOM     17  C   UNL     1      44.922   2.604   9.763  0.00  0.00    +0.000 C 
ENDBRANCH  14  17
ENDBRANCH   8  14
ENDBRANCH   7  11
ENDBRANCH   1   7
BRANCH   4  18
ATOM     18  C   UNL     1      52.076   8.359  11.905  0.00  0.00    +0.000 C 
BRANCH  18  19
ATOM     19  N   UNL     1      52.286   7.982  10.533  0.00  0.00    +0.000 N 
ATOM     20  C   UNL     1      53.248   8.571   9.755  0.00  0.00    +0.000 C 
ATOM     21  O   UNL     1      54.024   9.414  10.196  0.00  0.00    +0.000 OA
ATOM     22  H   UNL     1      51.522   7.490  10.085  0.00  0.00    +0.000 HD
BRANCH  20  23
ATOM     23  C   UNL     1      53.343   8.076   8.375  0.00  0.00    +0.000 A 
ATOM     24  C   UNL     1      53.213   8.958   7.311  0.00  0.00    +0.000 A 
ATOM     25  S   UNL     1      53.455   8.227   5.788  0.00  0.00    +0.000 S 
ATOM     26  C   UNL     1      53.682   6.697   6.496  0.00  0.00    +0.000 A 
ATOM     27  N   UNL     1      53.933   5.600   5.731  0.00  0.00    +0.000 NA
ATOM     28  C   UNL     1      54.052   4.501   6.395  0.00  0.00    +0.000 A 
ATOM     29  N   UNL     1      53.940   4.395   7.758  0.00  0.00    +0.000 N 
ATOM     30  C   UNL     1      53.703   5.476   8.573  0.00  0.00    +0.000 A 
ATOM     31  O   UNL     1      53.623   5.348   9.789  0.00  0.00    +0.000 OA
ATOM     32  C   UNL     1      53.571   6.741   7.874  0.00  0.00    +0.000 A 
ATOM     33  H   UNL     1      54.039   3.504   8.221  0.00  0.00    +0.000 HD
ENDBRANCH  20  23
ENDBRANCH  18  19
ENDBRANCH   4  18
TORSDOF 7
ENDMDL
MODEL 8
REMARK VINA RESULT:    -6.864      4.406     10.840
REMARK INTER + INTRA:         -10.408
REMARK INTER:                  -9.318
REMARK INTRA:                  -1.090
REMARK UNBOUND:                -0.736
REMARK  Name = 
REMARK  8 active torsions:
REMARK  status: ('A' for Active; 'I' for Inactive)
REMARK    1  A    between atoms: C_1  and  C_2
REMARK    2  A    between atoms: C_2  and  C_3
REMARK    3  A    between atoms: C_3  and  C_5
REMARK    4  A    between atoms: C_8  and  C_9
REMARK    5  A    between atoms: C_9  and  C_10
REMARK    6  A    between atoms: C_13  and  C_14
REMARK    7  A    between atoms: C_14  and  N_15
REMARK    8  A    between atoms: C_16  and  C_18
REMARK                            x       y       z     vdW  Elec       q    Type
REMARK                         _______ _______ _______ _____ _____    ______ ____
ROOT
ATOM      1  C   UNL     1      49.465   5.733  19.750  0.00  0.00    +0.000 A 
ATOM      2  C   UNL     1      49.468   6.309  18.473  0.00  0.00    +0.000 A 
ATOM      3  C   UNL     1      48.915   5.631  17.383  0.00  0.00    +0.000 A 
ATOM      4  C   UNL     1      48.338   4.366  17.551  0.00  0.00    +0.000 A 
ATOM      5  C   UNL     1      48.395   3.763  18.814  0.00  0.00    +0.000 A 
ATOM      6  C   UNL     1      48.944   4.442  19.905  0.00  0.00    +0.000 A 
ENDROOT
BRANCH   1   7
ATOM      7  C   UNL     1      49.961   6.508  20.949  0.00  0.00    +0.000 C 
BRANCH   7  11
ATOM      8  C   UNL     1      47.626   9.968  21.795  0.00  0.00    +0.000 A 
ATOM      9  C   UNL     1      46.988   8.734  21.819  0.00  0.00    +0.000 A 
ATOM     10  C   UNL     1      47.742   7.590  21.553  0.00  0.00    +0.000 A 
ATOM     11  C   UNL     1      49.107   7.709  21.274  0.00  0.00    +0.000 A 
ATOM     12  C   UNL     1      49.647   8.992  21.269  0.00  0.00    +0.000 A 
ATOM     13  N   UNL     1      48.946  10.119  21.526  0.00  0.00    +0.000 NA
BRANCH   8  14
ATOM     14  C   UNL     1      46.850  11.214  22.072  0.00  0.00    +0.000 C 
ATOM     15  O   UNL     1      47.439  12.272  22.283  0.00  0.00    +0.000 OA
BRANCH  14  17
ATOM     16  C   UNL     1      44.737  11.244  20.685  0.00  0.00    +0.000 C 
ATOM     17  C   UNL     1      45.335  11.093  22.073  0.00  0.00    +0.000 C 
ENDBRANCH  14  17
ENDBRANCH   8  14
ENDBRANCH   7  11
ENDBRANCH   1   7
BRANCH   4  18
ATOM     18  C   UNL     1      47.695   3.647  16.392  0.00  0.00    +0.000 C 
BRANCH  18  19
ATOM     19  N   UNL     1      47.074   4.582  15.494  0.00  0.00    +0.000 N 
ATOM     20  C   UNL     1      46.770   4.256  14.199  0.00  0.00    +0.000 C 
ATOM     21  O   UNL     1      46.957   3.132  13.742  0.00  0.00    +0.000 OA
ATOM     22  H   UNL     1      47.139   5.559  15.756  0.00  0.00    +0.000 HD
BRANCH  20  23
ATOM     23  C   UNL     1      46.135   5.319  13.407  0.00  0.00    +0.000 A 
ATOM     24  C   UNL     1      46.830   6.489  13.132  0.00  0.00    +0.000 A 
ATOM     25  S   UNL     1      45.978   7.562  12.115  0.00  0.00    +0.000 S 
ATOM     26  C   UNL     1      44.630   6.527  12.055  0.00  0.00    +0.000 A 
ATOM     27  N   UNL     1      43.521   6.858  11.339  0.00  0.00    +0.000 NA
ATOM     28  C   UNL     1      42.564   5.996  11.408  0.00  0.00    +0.000 A 
ATOM     29  N   UNL     1      42.610   4.833  12.132  0.00  0.00    +0.000 N 
ATOM     30  C   UNL     1      43.712   4.448  12.857  0.00  0.00    +0.000 A 
ATOM     31  O   UNL     1      43.725   3.393  13.481  0.00  0.00    +0.000 OA
ATOM     32  C   UNL     1      44.824   5.380  12.803  0.00  0.00    +0.000 A 
ATOM     33  H   UNL     1      41.824   4.199  12.150  0.00  0.00    +0.000 HD
ENDBRANCH  20  23
ENDBRANCH  18  19
ENDBRANCH   4  18
TORSDOF 7
ENDMDL
MODEL 9
REMARK VINA RESULT:    -6.831      5.197      7.663
REMARK INTER + INTRA:         -10.363
REMARK INTER:                  -9.236
REMARK INTRA:                  -1.127
REMARK UNBOUND:                -0.736
REMARK  Name = 
REMARK  8 active torsions:
REMARK  status: ('A' for Active; 'I' for Inactive)
REMARK    1  A    between atoms: C_1  and  C_2
REMARK    2  A    between atoms: C_2  and  C_3
REMARK    3  A    between atoms: C_3  and  C_5
REMARK    4  A    between atoms: C_8  and  C_9
REMARK    5  A    between atoms: C_9  and  C_10
REMARK    6  A    between atoms: C_13  and  C_14
REMARK    7  A    between atoms: C_14  and  N_15
REMARK    8  A    between atoms: C_16  and  C_18
REMARK                            x       y       z     vdW  Elec       q    Type
REMARK                         _______ _______ _______ _____ _____    ______ ____
ROOT
ATOM      1  C   UNL     1      50.713   8.528  12.375  0.00  0.00    +0.000 A 
ATOM      2  C   UNL     1      50.235   7.742  13.432  0.00  0.00    +0.000 A 
ATOM      3  C   UNL     1      48.869   7.699  13.729  0.00  0.00    +0.000 A 
ATOM      4  C   UNL     1      47.953   8.433  12.966  0.00  0.00    +0.000 A 
ATOM      5  C   UNL     1      48.438   9.269  11.951  0.00  0.00    +0.000 A 
ATOM      6  C   UNL     1      49.802   9.309  11.652  0.00  0.00    +0.000 A 
ENDROOT
BRANCH   1   7
ATOM      7  C   UNL     1      52.172   8.490  11.981  0.00  0.00    +0.000 C 
BRANCH   7  11
ATOM      8  C   UNL     1      52.850   8.104   7.794  0.00  0.00    +0.000 A 
ATOM      9  C   UNL     1      52.460   6.969   8.496  0.00  0.00    +0.000 A 
ATOM     10  C   UNL     1      52.225   7.083   9.866  0.00  0.00    +0.000 A 
ATOM     11  C   UNL     1      52.382   8.320  10.496  0.00  0.00    +0.000 A 
ATOM     12  C   UNL     1      52.782   9.393   9.704  0.00  0.00    +0.000 A 
ATOM     13  N   UNL     1      53.013   9.319   8.375  0.00  0.00    +0.000 NA
BRANCH   8  14
ATOM     14  C   UNL     1      53.113   8.021   6.326  0.00  0.00    +0.000 C 
ATOM     15  O   UNL     1      53.291   6.928   5.793  0.00  0.00    +0.000 OA
BRANCH  14  17
ATOM     16  C   UNL     1      51.755   9.808   5.163  0.00  0.00    +0.000 C 
ATOM     17  C   UNL     1      53.143   9.333   5.560  0.00  0.00    +0.000 C 
ENDBRANCH  14  17
ENDBRANCH   8  14
ENDBRANCH   7  11
ENDBRANCH   1   7
BRANCH   4  18
ATOM     18  C   UNL     1      46.473   8.355  13.246  0.00  0.00    +0.000 C 
BRANCH  18  19
ATOM     19  N   UNL     1      45.968   7.041  12.952  0.00  0.00    +0.000 N 
ATOM     20  C   UNL     1      45.102   6.808  11.917  0.00  0.00    +0.000 C 
ATOM     21  O   UNL     1      44.748   7.694  11.143  0.00  0.00    +0.000 OA
ATOM     22  H   UNL     1      46.038   6.361  13.701  0.00  0.00    +0.000 HD
BRANCH  20  23
ATOM     23  C   UNL     1      44.678   5.412  11.743  0.00  0.00    +0.000 A 
ATOM     24  C   UNL     1      44.013   4.756  12.769  0.00  0.00    +0.000 A 
ATOM     25  S   UNL     1      43.506   3.180  12.352  0.00  0.00    +0.000 S 
ATOM     26  C   UNL     1      44.209   3.301  10.809  0.00  0.00    +0.000 A 
ATOM     27  N   UNL     1      44.139   2.270   9.923  0.00  0.00    +0.000 NA
ATOM     28  C   UNL     1      44.743   2.486   8.804  0.00  0.00    +0.000 A 
ATOM     29  N   UNL     1      45.415   3.638   8.487  0.00  0.00    +0.000 N 
ATOM     30  C   UNL     1      45.500   4.711   9.342  0.00  0.00    +0.000 A 
ATOM     31  O   UNL     1      46.097   5.733   9.021  0.00  0.00    +0.000 OA
ATOM     32  C   UNL     1      44.826   4.523  10.614  0.00  0.00    +0.000 A 
ATOM     33  H   UNL     1      45.873   3.746   7.594  0.00  0.00    +0.000 HD
ENDBRANCH  20  23
ENDBRANCH  18  19
ENDBRANCH   4  18
TORSDOF 7
ENDMDL
