MODEL 1
REMARK VINA RESULT:    -7.051      0.000      0.000
REMARK INTER + INTRA:         -10.571
REMARK INTER:                  -9.318
REMARK INTRA:                  -1.253
REMARK UNBOUND:                -1.253
REMARK  Name = 
REMARK  6 active torsions:
REMARK  status: ('A' for Active; 'I' for Inactive)
REMARK    1  A    between atoms: C_2  and  C_19
REMARK    2  A    between atoms: N_3  and  C_4
REMARK    3  A    between atoms: C_4  and  C_5
REMARK    4  A    between atoms: C_8  and  C_9
REMARK    5  A    between atoms: C_9  and  N_10
REMARK    6  A    between atoms: C_13  and  O_14
REMARK                            x       y       z     vdW  Elec       q    Type
REMARK                         _______ _______ _______ _____ _____    ______ ____
ROOT
ATOM      1  N   UNL     1      48.220   8.700  16.674  0.00  0.00    +0.000 NA
ATOM      2  C   UNL     1      48.844   7.652  16.259  0.00  0.00    +0.000 C 
ATOM      3  N   UNL     1      49.407   7.474  15.031  0.00  0.00    +0.000 N 
ATOM      4  H   UNL     1      48.170   9.399  15.938  0.00  0.00    +0.000 HD
ATOM      5  H   UNL     1      49.519   6.510  14.714  0.00  0.00    +0.000 HD
ENDROOT
BRANCH   2   6
ATOM      6  C   UNL     1      48.999   6.559  17.219  0.00  0.00    +0.000 A 
ATOM      7  C   UNL     1      49.676   6.764  18.416  0.00  0.00    +0.000 A 
ATOM      8  S   UNL     1      49.716   5.395  19.430  0.00  0.00    +0.000 S 
ATOM      9  C   UNL     1      48.801   4.485  18.322  0.00  0.00    +0.000 A 
ATOM     10  N   UNL     1      48.426   3.210  18.608  0.00  0.00    +0.000 NA
ATOM     11  C   UNL     1      47.702   2.651  17.695  0.00  0.00    +0.000 A 
ATOM     12  N   UNL     1      47.339   3.243  16.514  0.00  0.00    +0.000 N 
ATOM     13  C   UNL     1      47.730   4.515  16.164  0.00  0.00    +0.000 A 
ATOM     14  O   UNL     1      47.446   4.992  15.068  0.00  0.00    +0.000 OA
ATOM     15  C   UNL     1      48.508   5.203  17.175  0.00  0.00    +0.000 A 
ATOM     16  H   UNL     1      46.794   2.741  15.830  0.00  0.00    +0.000 HD
ENDBRANCH   2   6
BRANCH   3  17
ATOM     17  C   UNL     1      49.252   8.411  13.944  0.00  0.00    +0.000 C 
BRANCH  17  18
ATOM     18  C   UNL     1      47.997   8.145  13.157  0.00  0.00    +0.000 A 
ATOM     19  C   UNL     1      47.977   7.148  12.169  0.00  0.00    +0.000 A 
ATOM     20  C   UNL     1      46.792   6.828  11.497  0.00  0.00    +0.000 A 
ATOM     21  C   UNL     1      45.601   7.506  11.786  0.00  0.00    +0.000 A 
ATOM     22  C   UNL     1      45.637   8.546  12.727  0.00  0.00    +0.000 A 
ATOM     23  C   UNL     1      46.820   8.862  13.406  0.00  0.00    +0.000 A 
BRANCH  21  24
ATOM     24  C   UNL     1      44.295   7.122  11.107  0.00  0.00    +0.000 C 
BRANCH  24  25
ATOM     25  N   UNL     1      43.732   5.797  11.450  0.00  0.00    +0.000 NA
ATOM     26  C   UNL     1      43.883   5.468  12.870  0.00  0.00    +0.000 C 
ATOM     27  C   UNL     1      43.281   4.113  13.240  0.00  0.00    +0.000 C 
ATOM     28  C   UNL     1      43.799   3.002  12.337  0.00  0.00    +0.000 C 
ATOM     29  C   UNL     1      43.584   3.368  10.874  0.00  0.00    +0.000 C 
ATOM     30  C   UNL     1      44.170   4.742  10.534  0.00  0.00    +0.000 C 
BRANCH  28  31
ATOM     31  O   UNL     1      45.178   2.736  12.595  0.00  0.00    +0.000 OA
ATOM     32  H   UNL     1      45.300   1.776  12.684  0.00  0.00    +0.000 HD
ENDBRANCH  28  31
ENDBRANCH  24  25
ENDBRANCH  21  24
ENDBRANCH  17  18
ENDBRANCH   3  17
TORSDOF 6
ENDMDL
MODEL 2
REMARK VINA RESULT:    -6.914      3.080      4.191
REMARK INTER + INTRA:         -10.391
REMARK INTER:                 -10.890
REMARK INTRA:                   0.499
REMARK UNBOUND:                -1.253
REMARK  Name = 
REMARK  6 active torsions:
REMARK  status: ('A' for Active; 'I' for Inactive)
REMARK    1  A    between atoms: C_2  and  C_19
REMARK    2  A    between atoms: N_3  and  C_4
REMARK    3  A    between atoms: C_4  and  C_5
REMARK    4  A    between atoms: C_8  and  C_9
REMARK    5  A    between atoms: C_9  and  N_10
REMARK    6  A    between atoms: C_13  and  O_14
REMARK                            x       y       z     vdW  Elec       q    Type
REMARK                         _______ _______ _______ _____ _____    ______ ____
ROOT
ATOM      1  N   UNL     1      49.038   7.040  13.131  0.00  0.00    +0.000 NA
ATOM      2  C   UNL     1      48.090   6.690  13.931  0.00  0.00    +0.000 C 
ATOM      3  N   UNL     1      46.767   6.582  13.626  0.00  0.00    +0.000 N 
ATOM      4  H   UNL     1      48.664   7.261  12.212  0.00  0.00    +0.000 HD
ATOM      5  H   UNL     1      46.109   6.674  14.402  0.00  0.00    +0.000 HD
ENDROOT
BRANCH   2   6
ATOM      6  C   UNL     1      48.484   6.334  15.295  0.00  0.00    +0.000 A 
ATOM      7  C   UNL     1      49.258   7.205  16.053  0.00  0.00    +0.000 A 
ATOM      8  S   UNL     1      49.578   6.646  17.632  0.00  0.00    +0.000 S 
ATOM      9  C   UNL     1      48.666   5.235  17.372  0.00  0.00    +0.000 A 
ATOM     10  N   UNL     1      48.485   4.329  18.369  0.00  0.00    +0.000 NA
ATOM     11  C   UNL     1      47.739   3.323  18.045  0.00  0.00    +0.000 A 
ATOM     12  N   UNL     1      47.178   3.133  16.810  0.00  0.00    +0.000 N 
ATOM     13  C   UNL     1      47.369   4.002  15.760  0.00  0.00    +0.000 A 
ATOM     14  O   UNL     1      46.909   3.767  14.645  0.00  0.00    +0.000 OA
ATOM     15  C   UNL     1      48.161   5.170  16.084  0.00  0.00    +0.000 A 
ATOM     16  H   UNL     1      46.628   2.312  16.613  0.00  0.00    +0.000 HD
ENDBRANCH   2   6
BRANCH   3  17
ATOM     17  C   UNL     1      46.208   6.995  12.361  0.00  0.00    +0.000 C 
BRANCH  17  18
ATOM     18  C   UNL     1      45.735   5.815  11.554  0.00  0.00    +0.000 A 
ATOM     19  C   UNL     1      45.808   5.839  10.153  0.00  0.00    +0.000 A 
ATOM     20  C   UNL     1      45.459   4.713   9.397  0.00  0.00    +0.000 A 
ATOM     21  C   UNL     1      45.014   3.542  10.023  0.00  0.00    +0.000 A 
ATOM     22  C   UNL     1      44.880   3.542  11.420  0.00  0.00    +0.000 A 
ATOM     23  C   UNL     1      45.237   4.664  12.177  0.00  0.00    +0.000 A 
BRANCH  21  24
ATOM     24  C   UNL     1      44.694   2.294   9.215  0.00  0.00    +0.000 C 
BRANCH  24  25
ATOM     25  N   UNL     1      45.400   2.139   7.924  0.00  0.00    +0.000 NA
ATOM     26  C   UNL     1      46.496   1.169   7.991  0.00  0.00    +0.000 C 
ATOM     27  C   UNL     1      47.216   0.981   6.655  0.00  0.00    +0.000 C 
ATOM     28  C   UNL     1      47.665   2.312   6.067  0.00  0.00    +0.000 C 
ATOM     29  C   UNL     1      46.488   3.274   5.978  0.00  0.00    +0.000 C 
ATOM     30  C   UNL     1      45.765   3.423   7.321  0.00  0.00    +0.000 C 
BRANCH  28  31
ATOM     31  O   UNL     1      48.724   2.879   6.839  0.00  0.00    +0.000 OA
ATOM     32  H   UNL     1      49.567   2.709   6.385  0.00  0.00    +0.000 HD
ENDBRANCH  28  31
ENDBRANCH  24  25
ENDBRANCH  21  24
ENDBRANCH  17  18
ENDBRANCH   3  17
TORSDOF 6
ENDMDL
MODEL 3
REMARK VINA RESULT:    -6.617      3.313      4.292
REMARK INTER + INTRA:          -9.998
REMARK INTER:                  -9.318
REMARK INTRA:                  -0.681
REMARK UNBOUND:                -1.253
REMARK  Name = 
REMARK  6 active torsions:
REMARK  status: ('A' for Active; 'I' for Inactive)
REMARK    1  A    between atoms: C_2  and  C_19
REMARK    2  A    between atoms: N_3  and  C_4
REMARK    3  A    between atoms: C_4  and  C_5
REMARK    4  A    between atoms: C_8  and  C_9
REMARK    5  A    between atoms: C_9  and  N_10
REMARK    6  A    between atoms: C_13  and  O_14
REMARK                            x       y       z     vdW  Elec       q    Type
REMARK                         _______ _______ _______ _____ _____    ______ ____
ROOT
ATOM      1  N   UNL     1      51.354   6.234  18.064  0.00  0.00    +0.000 NA
ATOM      2  C   UNL     1      51.043   5.006  18.298  0.00  0.00    +0.000 C 
ATOM      3  N   UNL     1      49.797   4.459  18.247  0.00  0.00    +0.000 N 
ATOM      4  H   UNL     1      50.521   6.778  17.851  0.00  0.00    +0.000 HD
ATOM      5  H   UNL     1      49.642   3.618  18.805  0.00  0.00    +0.000 HD
ENDROOT
BRANCH   2   6
ATOM      6  C   UNL     1      52.149   4.100  18.614  0.00  0.00    +0.000 A 
ATOM      7  C   UNL     1      53.177   4.511  19.454  0.00  0.00    +0.000 A 
ATOM      8  S   UNL     1      54.351   3.310  19.747  0.00  0.00    +0.000 S 
ATOM      9  C   UNL     1      53.511   2.185  18.786  0.00  0.00    +0.000 A 
ATOM     10  N   UNL     1      53.960   0.908  18.657  0.00  0.00    +0.000 NA
ATOM     11  C   UNL     1      53.205   0.151  17.929  0.00  0.00    +0.000 A 
ATOM     12  N   UNL     1      52.056   0.561  17.305  0.00  0.00    +0.000 N 
ATOM     13  C   UNL     1      51.588   1.853  17.375  0.00  0.00    +0.000 A 
ATOM     14  O   UNL     1      50.593   2.206  16.747  0.00  0.00    +0.000 OA
ATOM     15  C   UNL     1      52.375   2.732  18.215  0.00  0.00    +0.000 A 
ATOM     16  H   UNL     1      51.526  -0.074  16.729  0.00  0.00    +0.000 HD
ENDBRANCH   2   6
BRANCH   3  17
ATOM     17  C   UNL     1      48.596   5.236  18.052  0.00  0.00    +0.000 C 
BRANCH  17  18
ATOM     18  C   UNL     1      48.218   5.317  16.597  0.00  0.00    +0.000 A 
ATOM     19  C   UNL     1      47.458   4.298  16.004  0.00  0.00    +0.000 A 
ATOM     20  C   UNL     1      47.022   4.407  14.679  0.00  0.00    +0.000 A 
ATOM     21  C   UNL     1      47.348   5.531  13.909  0.00  0.00    +0.000 A 
ATOM     22  C   UNL     1      48.162   6.519  14.484  0.00  0.00    +0.000 A 
ATOM     23  C   UNL     1      48.592   6.415  15.812  0.00  0.00    +0.000 A 
BRANCH  21  24
ATOM     24  C   UNL     1      46.825   5.688  12.490  0.00  0.00    +0.000 C 
BRANCH  24  25
ATOM     25  N   UNL     1      45.457   5.189  12.226  0.00  0.00    +0.000 NA
ATOM     26  C   UNL     1      45.097   5.248  10.807  0.00  0.00    +0.000 C 
ATOM     27  C   UNL     1      43.695   4.710  10.520  0.00  0.00    +0.000 C 
ATOM     28  C   UNL     1      42.647   5.372  11.404  0.00  0.00    +0.000 C 
ATOM     29  C   UNL     1      43.041   5.251  12.870  0.00  0.00    +0.000 C 
ATOM     30  C   UNL     1      44.459   5.769  13.128  0.00  0.00    +0.000 C 
BRANCH  28  31
ATOM     31  O   UNL     1      42.464   6.740  11.040  0.00  0.00    +0.000 OA
ATOM     32  H   UNL     1      41.516   6.950  11.082  0.00  0.00    +0.000 HD
ENDBRANCH  28  31
ENDBRANCH  24  25
ENDBRANCH  21  24
ENDBRANCH  17  18
ENDBRANCH   3  17
TORSDOF 6
ENDMDL
MODEL 4
REMARK VINA RESULT:    -6.556      2.888      7.272
REMARK INTER + INTRA:          -9.917
REMARK INTER:                  -9.029
REMARK INTRA:                  -0.888
REMARK UNBOUND:                -1.253
REMARK  Name = 
REMARK  6 active torsions:
REMARK  status: ('A' for Active; 'I' for Inactive)
REMARK    1  A    between atoms: C_2  and  C_19
REMARK    2  A    between atoms: N_3  and  C_4
REMARK    3  A    between atoms: C_4  and  C_5
REMARK    4  A    between atoms: C_8  and  C_9
REMARK    5  A    between atoms: C_9  and  N_10
REMARK    6  A    between atoms: C_13  and  O_14
REMARK                            x       y       z     vdW  Elec       q    Type
REMARK                         _______ _______ _______ _____ _____    ______ ____
ROOT
ATOM      1  N   UNL     1      44.646   7.457  12.527  0.00  0.00    +0.000 NA
ATOM      2  C   UNL     1      45.484   6.563  12.129  0.00  0.00    +0.000 C 
ATOM      3  N   UNL     1      46.829   6.716  11.983  0.00  0.00    +0.000 N 
ATOM      4  H   UNL     1      45.124   8.338  12.702  0.00  0.00    +0.000 HD
ATOM      5  H   UNL     1      47.293   6.089  11.324  0.00  0.00    +0.000 HD
ENDROOT
BRANCH   2   6
ATOM      6  C   UNL     1      44.937   5.235  11.844  0.00  0.00    +0.000 A 
ATOM      7  C   UNL     1      44.243   4.536  12.824  0.00  0.00    +0.000 A 
ATOM      8  S   UNL     1      43.638   3.031  12.300  0.00  0.00    +0.000 S 
ATOM      9  C   UNL     1      44.254   3.273  10.733  0.00  0.00    +0.000 A 
ATOM     10  N   UNL     1      44.032   2.361   9.749  0.00  0.00    +0.000 NA
ATOM     11  C   UNL     1      44.524   2.690   8.599  0.00  0.00    +0.000 A 
ATOM     12  N   UNL     1      45.233   3.836   8.351  0.00  0.00    +0.000 N 
ATOM     13  C   UNL     1      45.516   4.766   9.325  0.00  0.00    +0.000 A 
ATOM     14  O   UNL     1      46.213   5.748   9.087  0.00  0.00    +0.000 OA
ATOM     15  C   UNL     1      44.949   4.465  10.625  0.00  0.00    +0.000 A 
ATOM     16  H   UNL     1      45.613   4.021   7.436  0.00  0.00    +0.000 HD
ENDBRANCH   2   6
BRANCH   3  17
ATOM     17  C   UNL     1      47.503   7.985  12.124  0.00  0.00    +0.000 C 
BRANCH  17  18
ATOM     18  C   UNL     1      48.244   8.076  13.431  0.00  0.00    +0.000 A 
ATOM     19  C   UNL     1      47.764   8.897  14.463  0.00  0.00    +0.000 A 
ATOM     20  C   UNL     1      48.392   8.918  15.714  0.00  0.00    +0.000 A 
ATOM     21  C   UNL     1      49.523   8.130  15.959  0.00  0.00    +0.000 A 
ATOM     22  C   UNL     1      50.039   7.359  14.907  0.00  0.00    +0.000 A 
ATOM     23  C   UNL     1      49.408   7.330  13.658  0.00  0.00    +0.000 A 
BRANCH  21  24
ATOM     24  C   UNL     1      50.173   8.098  17.334  0.00  0.00    +0.000 C 
BRANCH  24  25
ATOM     25  N   UNL     1      49.559   7.201  18.339  0.00  0.00    +0.000 NA
ATOM     26  C   UNL     1      49.363   5.839  17.838  0.00  0.00    +0.000 C 
ATOM     27  C   UNL     1      48.753   4.898  18.878  0.00  0.00    +0.000 C 
ATOM     28  C   UNL     1      47.479   5.475  19.479  0.00  0.00    +0.000 C 
ATOM     29  C   UNL     1      47.738   6.873  20.023  0.00  0.00    +0.000 C 
ATOM     30  C   UNL     1      48.375   7.789  18.973  0.00  0.00    +0.000 C 
BRANCH  28  31
ATOM     31  O   UNL     1      46.424   5.493  18.516  0.00  0.00    +0.000 OA
ATOM     32  H   UNL     1      46.033   6.383  18.500  0.00  0.00    +0.000 HD
ENDBRANCH  28  31
ENDBRANCH  24  25
ENDBRANCH  21  24
ENDBRANCH  17  18
ENDBRANCH   3  17
TORSDOF 6
ENDMDL
MODEL 5
REMARK VINA RESULT:    -6.522      4.041      8.087
REMARK INTER + INTRA:          -9.872
REMARK INTER:                  -8.972
REMARK INTRA:                  -0.900
REMARK UNBOUND:                -1.253
REMARK  Name = 
REMARK  6 active torsions:
REMARK  status: ('A' for Active; 'I' for Inactive)
REMARK    1  A    between atoms: C_2  and  C_19
REMARK    2  A    between atoms: N_3  and  C_4
REMARK    3  A    between atoms: C_4  and  C_5
REMARK    4  A    between atoms: C_8  and  C_9
REMARK    5  A    between atoms: C_9  and  N_10
REMARK    6  A    between atoms: C_13  and  O_14
REMARK                            x       y       z     vdW  Elec       q    Type
REMARK                         _______ _______ _______ _____ _____    ______ ____
ROOT
ATOM      1  N   UNL     1      49.157   6.461  12.886  0.00  0.00    +0.000 NA
ATOM      2  C   UNL     1      48.105   6.804  13.545  0.00  0.00    +0.000 C 
ATOM      3  N   UNL     1      48.069   7.463  14.736  0.00  0.00    +0.000 N 
ATOM      4  H   UNL     1      49.997   6.728  13.394  0.00  0.00    +0.000 HD
ATOM      5  H   UNL     1      47.233   7.332  15.308  0.00  0.00    +0.000 HD
ENDROOT
BRANCH   2   6
ATOM      6  C   UNL     1      46.815   6.487  12.928  0.00  0.00    +0.000 A 
ATOM      7  C   UNL     1      46.054   7.488  12.336  0.00  0.00    +0.000 A 
ATOM      8  S   UNL     1      44.608   6.928  11.629  0.00  0.00    +0.000 S 
ATOM      9  C   UNL     1      44.961   5.321  12.059  0.00  0.00    +0.000 A 
ATOM     10  N   UNL     1      44.135   4.304  11.694  0.00  0.00    +0.000 NA
ATOM     11  C   UNL     1      44.544   3.132  12.054  0.00  0.00    +0.000 A 
ATOM     12  N   UNL     1      45.692   2.888  12.762  0.00  0.00    +0.000 N 
ATOM     13  C   UNL     1      46.535   3.888  13.187  0.00  0.00    +0.000 A 
ATOM     14  O   UNL     1      47.519   3.643  13.880  0.00  0.00    +0.000 OA
ATOM     15  C   UNL     1      46.144   5.220  12.771  0.00  0.00    +0.000 A 
ATOM     16  H   UNL     1      45.941   1.950  13.035  0.00  0.00    +0.000 HD
ENDBRANCH   2   6
BRANCH   3  17
ATOM     17  C   UNL     1      49.248   7.753  15.518  0.00  0.00    +0.000 C 
BRANCH  17  18
ATOM     18  C   UNL     1      49.704   6.549  16.298  0.00  0.00    +0.000 A 
ATOM     19  C   UNL     1      48.769   5.627  16.793  0.00  0.00    +0.000 A 
ATOM     20  C   UNL     1      49.186   4.457  17.438  0.00  0.00    +0.000 A 
ATOM     21  C   UNL     1      50.549   4.187  17.616  0.00  0.00    +0.000 A 
ATOM     22  C   UNL     1      51.481   5.141  17.179  0.00  0.00    +0.000 A 
ATOM     23  C   UNL     1      51.065   6.307  16.527  0.00  0.00    +0.000 A 
BRANCH  21  24
ATOM     24  C   UNL     1      51.013   2.889  18.259  0.00  0.00    +0.000 C 
BRANCH  24  25
ATOM     25  N   UNL     1      52.410   2.477  17.993  0.00  0.00    +0.000 NA
ATOM     26  C   UNL     1      52.517   1.079  17.568  0.00  0.00    +0.000 C 
ATOM     27  C   UNL     1      53.953   0.652  17.266  0.00  0.00    +0.000 C 
ATOM     28  C   UNL     1      54.891   0.972  18.423  0.00  0.00    +0.000 C 
ATOM     29  C   UNL     1      54.776   2.442  18.803  0.00  0.00    +0.000 C 
ATOM     30  C   UNL     1      53.325   2.854  19.073  0.00  0.00    +0.000 C 
BRANCH  28  31
ATOM     31  O   UNL     1      54.617   0.135  19.547  0.00  0.00    +0.000 OA
ATOM     32  H   UNL     1      53.881   0.522  20.052  0.00  0.00    +0.000 HD
ENDBRANCH  28  31
ENDBRANCH  24  25
ENDBRANCH  21  24
ENDBRANCH  17  18
ENDBRANCH   3  17
TORSDOF 6
ENDMDL
MODEL 6
REMARK VINA RESULT:    -6.474      4.275      7.863
REMARK INTER + INTRA:          -9.809
REMARK INTER:                  -9.265
REMARK INTRA:                  -0.544
REMARK UNBOUND:                -1.253
REMARK  Name = 
REMARK  6 active torsions:
REMARK  status: ('A' for Active; 'I' for Inactive)
REMARK    1  A    between atoms: C_2  and  C_19
REMARK    2  A    between atoms: N_3  and  C_4
REMARK    3  A    between atoms: C_4  and  C_5
REMARK    4  A    between atoms: C_8  and  C_9
REMARK    5  A    between atoms: C_9  and  N_10
REMARK    6  A    between atoms: C_13  and  O_14
REMARK                            x       y       z     vdW  Elec       q    Type
REMARK                         _______ _______ _______ _____ _____    ______ ____
ROOT
ATOM      1  N   UNL     1      43.716   7.424  11.152  0.00  0.00    +0.000 NA
ATOM      2  C   UNL     1      44.583   6.598  11.627  0.00  0.00    +0.000 C 
ATOM      3  N   UNL     1      45.676   6.909  12.377  0.00  0.00    +0.000 N 
ATOM      4  H   UNL     1      43.968   8.380  11.389  0.00  0.00    +0.000 HD
ATOM      5  H   UNL     1      46.450   6.242  12.358  0.00  0.00    +0.000 HD
ENDROOT
BRANCH   2   6
ATOM      6  C   UNL     1      44.344   5.177  11.368  0.00  0.00    +0.000 A 
ATOM      7  C   UNL     1      43.566   4.424  12.240  0.00  0.00    +0.000 A 
ATOM      8  S   UNL     1      43.357   2.804  11.754  0.00  0.00    +0.000 S 
ATOM      9  C   UNL     1      44.271   3.056  10.342  0.00  0.00    +0.000 A 
ATOM     10  N   UNL     1      44.438   2.060   9.432  0.00  0.00    +0.000 NA
ATOM     11  C   UNL     1      45.122   2.401   8.389  0.00  0.00    +0.000 A 
ATOM     12  N   UNL     1      45.670   3.640   8.186  0.00  0.00    +0.000 N 
ATOM     13  C   UNL     1      45.562   4.665   9.097  0.00  0.00    +0.000 A 
ATOM     14  O   UNL     1      46.123   5.743   8.917  0.00  0.00    +0.000 OA
ATOM     15  C   UNL     1      44.766   4.347  10.266  0.00  0.00    +0.000 A 
ATOM     16  H   UNL     1      46.217   3.835   7.361  0.00  0.00    +0.000 HD
ENDBRANCH   2   6
BRANCH   3  17
ATOM     17  C   UNL     1      46.105   8.263  12.631  0.00  0.00    +0.000 C 
BRANCH  17  18
ATOM     18  C   UNL     1      47.598   8.406  12.497  0.00  0.00    +0.000 A 
ATOM     19  C   UNL     1      48.145   9.454  11.741  0.00  0.00    +0.000 A 
ATOM     20  C   UNL     1      49.530   9.651  11.685  0.00  0.00    +0.000 A 
ATOM     21  C   UNL     1      50.402   8.797  12.372  0.00  0.00    +0.000 A 
ATOM     22  C   UNL     1      49.856   7.712  13.074  0.00  0.00    +0.000 A 
ATOM     23  C   UNL     1      48.471   7.518  13.138  0.00  0.00    +0.000 A 
BRANCH  21  24
ATOM     24  C   UNL     1      51.903   9.042  12.370  0.00  0.00    +0.000 C 
BRANCH  24  25
ATOM     25  N   UNL     1      52.678   8.410  11.278  0.00  0.00    +0.000 NA
ATOM     26  C   UNL     1      51.864   7.516  10.450  0.00  0.00    +0.000 C 
ATOM     27  C   UNL     1      52.649   6.878   9.304  0.00  0.00    +0.000 C 
ATOM     28  C   UNL     1      53.918   6.199   9.802  0.00  0.00    +0.000 C 
ATOM     29  C   UNL     1      54.751   7.175  10.622  0.00  0.00    +0.000 C 
ATOM     30  C   UNL     1      53.936   7.823  11.746  0.00  0.00    +0.000 C 
BRANCH  28  31
ATOM     31  O   UNL     1      53.606   5.033  10.565  0.00  0.00    +0.000 OA
ATOM     32  H   UNL     1      52.850   4.583  10.152  0.00  0.00    +0.000 HD
ENDBRANCH  28  31
ENDBRANCH  24  25
ENDBRANCH  21  24
ENDBRANCH  17  18
ENDBRANCH   3  17
TORSDOF 6
ENDMDL
MODEL 7
REMARK VINA RESULT:    -6.333      4.492      7.877
REMARK INTER + INTRA:          -9.623
REMARK INTER:                  -8.843
REMARK INTRA:                  -0.780
REMARK UNBOUND:                -1.253
REMARK  Name = 
REMARK  6 active torsions:
REMARK  status: ('A' for Active; 'I' for Inactive)
REMARK    1  A    between atoms: C_2  and  C_19
REMARK    2  A    between atoms: N_3  and  C_4
REMARK    3  A    between atoms: C_4  and  C_5
REMARK    4  A    between atoms: C_8  and  C_9
REMARK    5  A    between atoms: C_9  and  N_10
REMARK    6  A    between atoms: C_13  and  O_14
REMARK                            x       y       z     vdW  Elec       q    Type
REMARK                         _______ _______ _______ _____ _____    ______ ____
ROOT
ATOM      1  N   UNL     1      43.561   7.396  11.055  0.00  0.00    +0.000 NA
ATOM      2  C   UNL     1      44.352   6.599  11.685  0.00  0.00    +0.000 C 
ATOM      3  N   UNL     1      45.292   6.948  12.608  0.00  0.00    +0.000 N 
ATOM      4  H   UNL     1      43.744   8.361  11.318  0.00  0.00    +0.000 HD
ATOM      5  H   UNL     1      46.074   6.303  12.732  0.00  0.00    +0.000 HD
ENDROOT
BRANCH   2   6
ATOM      6  C   UNL     1      44.198   5.170  11.410  0.00  0.00    +0.000 A 
ATOM      7  C   UNL     1      43.429   4.371  12.249  0.00  0.00    +0.000 A 
ATOM      8  S   UNL     1      43.323   2.746  11.747  0.00  0.00    +0.000 S 
ATOM      9  C   UNL     1      44.274   3.055  10.372  0.00  0.00    +0.000 A 
ATOM     10  N   UNL     1      44.527   2.075   9.464  0.00  0.00    +0.000 NA
ATOM     11  C   UNL     1      45.231   2.459   8.449  0.00  0.00    +0.000 A 
ATOM     12  N   UNL     1      45.720   3.726   8.272  0.00  0.00    +0.000 N 
ATOM     13  C   UNL     1      45.524   4.738   9.184  0.00  0.00    +0.000 A 
ATOM     14  O   UNL     1      46.035   5.844   9.030  0.00  0.00    +0.000 OA
ATOM     15  C   UNL     1      44.703   4.371  10.320  0.00  0.00    +0.000 A 
ATOM     16  H   UNL     1      46.286   3.954   7.470  0.00  0.00    +0.000 HD
ENDBRANCH   2   6
BRANCH   3  17
ATOM     17  C   UNL     1      45.636   8.316  12.911  0.00  0.00    +0.000 C 
BRANCH  17  18
ATOM     18  C   UNL     1      46.988   8.683  12.358  0.00  0.00    +0.000 A 
ATOM     19  C   UNL     1      47.328  10.029  12.151  0.00  0.00    +0.000 A 
ATOM     20  C   UNL     1      48.613  10.386  11.727  0.00  0.00    +0.000 A 
ATOM     21  C   UNL     1      49.584   9.407  11.485  0.00  0.00    +0.000 A 
ATOM     22  C   UNL     1      49.222   8.059  11.629  0.00  0.00    +0.000 A 
ATOM     23  C   UNL     1      47.940   7.700  12.062  0.00  0.00    +0.000 A 
BRANCH  21  24
ATOM     24  C   UNL     1      51.001   9.789  11.085  0.00  0.00    +0.000 C 
BRANCH  24  25
ATOM     25  N   UNL     1      52.048   9.636  12.119  0.00  0.00    +0.000 NA
ATOM     26  C   UNL     1      52.783   8.375  11.999  0.00  0.00    +0.000 C 
ATOM     27  C   UNL     1      53.885   8.218  13.047  0.00  0.00    +0.000 C 
ATOM     28  C   UNL     1      53.355   8.439  14.457  0.00  0.00    +0.000 C 
ATOM     29  C   UNL     1      52.635   9.778  14.547  0.00  0.00    +0.000 C 
ATOM     30  C   UNL     1      51.556   9.923  13.469  0.00  0.00    +0.000 C 
BRANCH  28  31
ATOM     31  O   UNL     1      52.490   7.372  14.849  0.00  0.00    +0.000 OA
ATOM     32  H   UNL     1      52.260   6.852  14.061  0.00  0.00    +0.000 HD
ENDBRANCH  28  31
ENDBRANCH  24  25
ENDBRANCH  21  24
ENDBRANCH  17  18
ENDBRANCH   3  17
TORSDOF 6
ENDMDL
MODEL 8
REMARK VINA RESULT:    -6.333      2.735      6.637
REMARK INTER + INTRA:          -9.623
REMARK INTER:                  -8.563
REMARK INTRA:                  -1.060
REMARK UNBOUND:                -1.253
REMARK  Name = 
REMARK  6 active torsions:
REMARK  status: ('A' for Active; 'I' for Inactive)
REMARK    1  A    between atoms: C_2  and  C_19
REMARK    2  A    between atoms: N_3  and  C_4
REMARK    3  A    between atoms: C_4  and  C_5
REMARK    4  A    between atoms: C_8  and  C_9
REMARK    5  A    between atoms: C_9  and  N_10
REMARK    6  A    between atoms: C_13  and  O_14
REMARK                            x       y       z     vdW  Elec       q    Type
REMARK                         _______ _______ _______ _____ _____    ______ ____
ROOT
ATOM      1  N   UNL     1      47.766   7.178  11.771  0.00  0.00    +0.000 NA
ATOM      2  C   UNL     1      46.748   7.441  12.514  0.00  0.00    +0.000 C 
ATOM      3  N   UNL     1      46.687   8.368  13.511  0.00  0.00    +0.000 N 
ATOM      4  H   UNL     1      48.562   7.748  12.043  0.00  0.00    +0.000 HD
ATOM      5  H   UNL     1      45.989   8.211  14.240  0.00  0.00    +0.000 HD
ENDROOT
BRANCH   2   6
ATOM      6  C   UNL     1      45.520   6.696  12.232  0.00  0.00    +0.000 A 
ATOM      7  C   UNL     1      44.420   7.338  11.676  0.00  0.00    +0.000 A 
ATOM      8  S   UNL     1      43.099   6.305  11.372  0.00  0.00    +0.000 S 
ATOM      9  C   UNL     1      43.960   4.954  11.941  0.00  0.00    +0.000 A 
ATOM     10  N   UNL     1      43.410   3.711  11.904  0.00  0.00    +0.000 NA
ATOM     11  C   UNL     1      44.189   2.772  12.333  0.00  0.00    +0.000 A 
ATOM     12  N   UNL     1      45.457   2.967  12.813  0.00  0.00    +0.000 N 
ATOM     13  C   UNL     1      46.038   4.211  12.908  0.00  0.00    +0.000 A 
ATOM     14  O   UNL     1      47.150   4.361  13.407  0.00  0.00    +0.000 OA
ATOM     15  C   UNL     1      45.222   5.294  12.398  0.00  0.00    +0.000 A 
ATOM     16  H   UNL     1      46.004   2.194  13.158  0.00  0.00    +0.000 HD
ENDBRANCH   2   6
BRANCH   3  17
ATOM     17  C   UNL     1      47.835   9.107  13.979  0.00  0.00    +0.000 C 
BRANCH  17  18
ATOM     18  C   UNL     1      48.527   8.397  15.111  0.00  0.00    +0.000 A 
ATOM     19  C   UNL     1      48.185   8.682  16.442  0.00  0.00    +0.000 A 
ATOM     20  C   UNL     1      48.754   7.962  17.499  0.00  0.00    +0.000 A 
ATOM     21  C   UNL     1      49.690   6.949  17.252  0.00  0.00    +0.000 A 
ATOM     22  C   UNL     1      50.079   6.710  15.925  0.00  0.00    +0.000 A 
ATOM     23  C   UNL     1      49.504   7.424  14.867  0.00  0.00    +0.000 A 
BRANCH  21  24
ATOM     24  C   UNL     1      50.265   6.119  18.389  0.00  0.00    +0.000 C 
BRANCH  24  25
ATOM     25  N   UNL     1      49.986   4.666  18.359  0.00  0.00    +0.000 NA
ATOM     26  C   UNL     1      50.892   3.934  17.471  0.00  0.00    +0.000 C 
ATOM     27  C   UNL     1      50.629   2.428  17.453  0.00  0.00    +0.000 C 
ATOM     28  C   UNL     1      49.167   2.116  17.162  0.00  0.00    +0.000 C 
ATOM     29  C   UNL     1      48.265   2.865  18.133  0.00  0.00    +0.000 C 
ATOM     30  C   UNL     1      48.566   4.367  18.155  0.00  0.00    +0.000 C 
BRANCH  28  31
ATOM     31  O   UNL     1      48.837   2.439  15.811  0.00  0.00    +0.000 OA
ATOM     32  H   UNL     1      48.032   1.954  15.562  0.00  0.00    +0.000 HD
ENDBRANCH  28  31
ENDBRANCH  24  25
ENDBRANCH  21  24
ENDBRANCH  17  18
ENDBRANCH   3  17
TORSDOF 6
ENDMDL
MODEL 9
REMARK VINA RESULT:    -6.160      2.024      2.862
REMARK INTER + INTRA:          -9.394
REMARK INTER:                  -8.696
REMARK INTRA:                  -0.698
REMARK UNBOUND:                -1.253
REMARK  Name = 
REMARK  6 active torsions:
REMARK  status: ('A' for Active; 'I' for Inactive)
REMARK    1  A    between atoms: C_2  and  C_19
REMARK    2  A    between atoms: N_3  and  C_4
REMARK    3  A    between atoms: C_4  and  C_5
REMARK    4  A    between atoms: C_8  and  C_9
REMARK    5  A    between atoms: C_9  and  N_10
REMARK    6  A    between atoms: C_13  and  O_14
REMARK                            x       y       z     vdW  Elec       q    Type
REMARK                         _______ _______ _______ _____ _____    ______ ____
ROOT
ATOM      1  N   UNL     1      48.613   5.044  16.207  0.00  0.00    +0.000 NA
ATOM      2  C   UNL     1      48.852   6.153  16.817  0.00  0.00    +0.000 C 
ATOM      3  N   UNL     1      49.304   7.309  16.256  0.00  0.00    +0.000 N 
ATOM      4  H   UNL     1      48.834   5.127  15.218  0.00  0.00    +0.000 HD
ATOM      5  H   UNL     1      49.799   7.955  16.873  0.00  0.00    +0.000 HD
ENDROOT
BRANCH   2   6
ATOM      6  C   UNL     1      48.573   6.183  18.254  0.00  0.00    +0.000 A 
ATOM      7  C   UNL     1      48.851   5.077  19.048  0.00  0.00    +0.000 A 
ATOM      8  S   UNL     1      48.506   5.309  20.701  0.00  0.00    +0.000 S 
ATOM      9  C   UNL     1      48.002   6.909  20.422  0.00  0.00    +0.000 A 
ATOM     10  N   UNL     1      47.621   7.709  21.453  0.00  0.00    +0.000 NA
ATOM     11  C   UNL     1      47.299   8.912  21.102  0.00  0.00    +0.000 A 
ATOM     12  N   UNL     1      47.304   9.377  19.814  0.00  0.00    +0.000 N 
ATOM     13  C   UNL     1      47.643   8.592  18.736  0.00  0.00    +0.000 A 
ATOM     14  O   UNL     1      47.570   9.019  17.587  0.00  0.00    +0.000 OA
ATOM     15  C   UNL     1      48.055   7.246  19.080  0.00  0.00    +0.000 A 
ATOM     16  H   UNL     1      47.016  10.320  19.604  0.00  0.00    +0.000 HD
ENDBRANCH   2   6
BRANCH   3  17
ATOM     17  C   UNL     1      49.723   7.412  14.878  0.00  0.00    +0.000 C 
BRANCH  17  18
ATOM     18  C   UNL     1      48.544   7.446  13.943  0.00  0.00    +0.000 A 
ATOM     19  C   UNL     1      48.434   6.509  12.904  0.00  0.00    +0.000 A 
ATOM     20  C   UNL     1      47.299   6.473  12.087  0.00  0.00    +0.000 A 
ATOM     21  C   UNL     1      46.251   7.382  12.279  0.00  0.00    +0.000 A 
ATOM     22  C   UNL     1      46.392   8.360  13.275  0.00  0.00    +0.000 A 
ATOM     23  C   UNL     1      47.523   8.393  14.098  0.00  0.00    +0.000 A 
BRANCH  21  24
ATOM     24  C   UNL     1      44.986   7.310  11.438  0.00  0.00    +0.000 C 
BRANCH  24  25
ATOM     25  N   UNL     1      44.179   6.075  11.555  0.00  0.00    +0.000 NA
ATOM     26  C   UNL     1      44.036   5.622  12.941  0.00  0.00    +0.000 C 
ATOM     27  C   UNL     1      43.182   4.361  13.076  0.00  0.00    +0.000 C 
ATOM     28  C   UNL     1      43.673   3.249  12.159  0.00  0.00    +0.000 C 
ATOM     29  C   UNL     1      43.767   3.751  10.724  0.00  0.00    +0.000 C 
ATOM     30  C   UNL     1      44.604   5.031  10.618  0.00  0.00    +0.000 C 
BRANCH  28  31
ATOM     31  O   UNL     1      44.932   2.741  12.601  0.00  0.00    +0.000 OA
ATOM     32  H   UNL     1      45.608   3.427  12.468  0.00  0.00    +0.000 HD
ENDBRANCH  28  31
ENDBRANCH  24  25
ENDBRANCH  21  24
ENDBRANCH  17  18
ENDBRANCH   3  17
TORSDOF 6
ENDMDL
