MODEL 1
REMARK VINA RESULT:    -8.175      0.000      0.000
REMARK INTER + INTRA:         -12.247
REMARK INTER:                 -11.042
REMARK INTRA:                  -1.205
REMARK UNBOUND:                -1.205
REMARK  Name = 
REMARK  8 active torsions:
REMARK  status: ('A' for Active; 'I' for Inactive)
REMARK    1  A    between atoms: C_1  and  C_2
REMARK    2  A    between atoms: N_4  and  C_5
REMARK    3  A    between atoms: C_7  and  C_8
REMARK    4  A    between atoms: C_8  and  C_9
REMARK    5  A    between atoms: C_9  and  N_10
REMARK    6  A    between atoms: C_14  and  C_15
REMARK    7  A    between atoms: C_21  and  C_22
REMARK    8  A    between atoms: C_28  and  C_29
REMARK                            x       y       z     vdW  Elec       q    Type
REMARK                         _______ _______ _______ _____ _____    ______ ____
ROOT
ATOM      1  C   UNL     1      46.899   7.013  12.644  0.00  0.00    +0.000 A 
ATOM      2  C   UNL     1      45.594   6.744  12.199  0.00  0.00    +0.000 A 
ATOM      3  C   UNL     1      44.810   5.704  12.734  0.00  0.00    +0.000 A 
ATOM      4  C   UNL     1      45.341   4.906  13.751  0.00  0.00    +0.000 A 
ATOM      5  C   UNL     1      46.635   5.137  14.223  0.00  0.00    +0.000 A 
ATOM      6  C   UNL     1      47.388   6.187  13.667  0.00  0.00    +0.000 A 
ENDROOT
BRANCH   1  10
ATOM      7  C   UNL     1      48.536  10.167  14.326  0.00  0.00    +0.000 C 
ATOM      8  C   UNL     1      48.487  10.275  12.798  0.00  0.00    +0.000 C 
ATOM      9  C   UNL     1      47.306   9.448  12.212  0.00  0.00    +0.000 C 
ATOM     10  N   UNL     1      47.665   8.026  12.107  0.00  0.00    +0.000 N 
ATOM     11  C   UNL     1      48.911   7.779  11.364  0.00  0.00    +0.000 C 
ATOM     12  C   UNL     1      50.093   8.569  11.982  0.00  0.00    +0.000 C 
ATOM     13  C   UNL     1      50.627   7.906  13.253  0.00  0.00    +0.000 C 
ATOM     14  N   UNL     1      49.810  10.014  12.175  0.00  0.00    +0.000 NA
ATOM     15  H   UNL     1      49.777  10.429  11.242  0.00  0.00    +0.000 HD
ENDBRANCH   1  10
BRANCH   5  16
ATOM     16  C   UNL     1      47.250   4.277  15.297  0.00  0.00    +0.000 C 
ATOM     17  F   UNL     1      46.409   4.014  16.336  0.00  0.00    +0.000 F 
ATOM     18  F   UNL     1      47.646   3.062  14.823  0.00  0.00    +0.000 F 
ATOM     19  F   UNL     1      48.360   4.840  15.849  0.00  0.00    +0.000 F 
ENDBRANCH   5  16
BRANCH   3  20
ATOM     20  C   UNL     1      43.448   5.389  12.157  0.00  0.00    +0.000 C 
BRANCH  20  21
ATOM     21  C   UNL     1      43.558   5.019  10.674  0.00  0.00    +0.000 C 
BRANCH  21  22
ATOM     22  N   UNL     1      43.900   3.601  10.505  0.00  0.00    +0.000 N 
ATOM     23  C   UNL     1      44.763   3.381   9.409  0.00  0.00    +0.000 A 
ATOM     24  C   UNL     1      45.169   2.080   9.125  0.00  0.00    +0.000 A 
ATOM     25  C   UNL     1      46.028   1.844   8.051  0.00  0.00    +0.000 A 
ATOM     26  C   UNL     1      46.447   2.929   7.304  0.00  0.00    +0.000 A 
ATOM     27  N   UNL     1      46.057   4.190   7.587  0.00  0.00    +0.000 NA
ATOM     28  N   UNL     1      45.222   4.407   8.655  0.00  0.00    +0.000 NA
ATOM     29  H   UNL     1      43.077   3.013  10.395  0.00  0.00    +0.000 HD
BRANCH  26  30
ATOM     30  C   UNL     1      47.339   2.761   6.121  0.00  0.00    +0.000 C 
ATOM     31  N   UNL     1      48.665   2.558   6.394  0.00  0.00    +0.000 N 
ATOM     32  O   UNL     1      46.915   2.806   4.974  0.00  0.00    +0.000 OA
ATOM     33  H   UNL     1      49.002   2.517   7.349  0.00  0.00    +0.000 HD
ATOM     34  H   UNL     1      49.314   2.437   5.627  0.00  0.00    +0.000 HD
ENDBRANCH  26  30
ENDBRANCH  21  22
ENDBRANCH  20  21
ENDBRANCH   3  20
TORSDOF 6
ENDMDL
MODEL 2
REMARK VINA RESULT:    -7.980      2.926      3.620
REMARK INTER + INTRA:         -11.983
REMARK INTER:                 -10.860
REMARK INTRA:                  -1.123
REMARK UNBOUND:                -1.205
REMARK  Name = 
REMARK  8 active torsions:
REMARK  status: ('A' for Active; 'I' for Inactive)
REMARK    1  A    between atoms: C_1  and  C_2
REMARK    2  A    between atoms: N_4  and  C_5
REMARK    3  A    between atoms: C_7  and  C_8
REMARK    4  A    between atoms: C_8  and  C_9
REMARK    5  A    between atoms: C_9  and  N_10
REMARK    6  A    between atoms: C_14  and  C_15
REMARK    7  A    between atoms: C_21  and  C_22
REMARK    8  A    between atoms: C_28  and  C_29
REMARK                            x       y       z     vdW  Elec       q    Type
REMARK                         _______ _______ _______ _____ _____    ______ ____
ROOT
ATOM      1  C   UNL     1      47.138   7.421  12.474  0.00  0.00    +0.000 A 
ATOM      2  C   UNL     1      46.203   6.374  12.405  0.00  0.00    +0.000 A 
ATOM      3  C   UNL     1      44.856   6.582  12.052  0.00  0.00    +0.000 A 
ATOM      4  C   UNL     1      44.424   7.875  11.750  0.00  0.00    +0.000 A 
ATOM      5  C   UNL     1      45.318   8.947  11.807  0.00  0.00    +0.000 A 
ATOM      6  C   UNL     1      46.657   8.702  12.161  0.00  0.00    +0.000 A 
ENDROOT
BRANCH   1  10
ATOM      7  C   UNL     1      50.283   9.762  12.191  0.00  0.00    +0.000 C 
ATOM      8  C   UNL     1      50.661   8.298  12.440  0.00  0.00    +0.000 C 
ATOM      9  C   UNL     1      49.572   7.333  11.887  0.00  0.00    +0.000 C 
ATOM     10  N   UNL     1      48.452   7.212  12.833  0.00  0.00    +0.000 N 
ATOM     11  C   UNL     1      48.859   6.834  14.195  0.00  0.00    +0.000 C 
ATOM     12  C   UNL     1      49.908   7.826  14.757  0.00  0.00    +0.000 C 
ATOM     13  C   UNL     1      49.269   9.135  15.227  0.00  0.00    +0.000 C 
ATOM     14  N   UNL     1      51.061   8.054  13.850  0.00  0.00    +0.000 NA
ATOM     15  H   UNL     1      51.605   7.190  13.851  0.00  0.00    +0.000 HD
ENDBRANCH   1  10
BRANCH   5  16
ATOM     16  C   UNL     1      44.878  10.359  11.519  0.00  0.00    +0.000 C 
ATOM     17  F   UNL     1      44.801  10.648  10.190  0.00  0.00    +0.000 F 
ATOM     18  F   UNL     1      43.644  10.633  12.031  0.00  0.00    +0.000 F 
ATOM     19  F   UNL     1      45.716  11.290  12.054  0.00  0.00    +0.000 F 
ENDBRANCH   5  16
BRANCH   3  20
ATOM     20  C   UNL     1      43.864   5.440  12.086  0.00  0.00    +0.000 C 
BRANCH  20  21
ATOM     21  C   UNL     1      43.537   4.963  10.666  0.00  0.00    +0.000 C 
BRANCH  21  22
ATOM     22  N   UNL     1      43.893   3.549  10.487  0.00  0.00    +0.000 N 
ATOM     23  C   UNL     1      44.766   3.348   9.395  0.00  0.00    +0.000 A 
ATOM     24  C   UNL     1      45.187   2.054   9.102  0.00  0.00    +0.000 A 
ATOM     25  C   UNL     1      46.056   1.836   8.033  0.00  0.00    +0.000 A 
ATOM     26  C   UNL     1      46.469   2.931   7.298  0.00  0.00    +0.000 A 
ATOM     27  N   UNL     1      46.064   4.187   7.590  0.00  0.00    +0.000 NA
ATOM     28  N   UNL     1      45.221   4.385   8.654  0.00  0.00    +0.000 NA
ATOM     29  H   UNL     1      43.077   2.955  10.367  0.00  0.00    +0.000 HD
BRANCH  26  30
ATOM     30  C   UNL     1      47.371   2.784   6.120  0.00  0.00    +0.000 C 
ATOM     31  N   UNL     1      48.692   2.556   6.400  0.00  0.00    +0.000 N 
ATOM     32  O   UNL     1      46.959   2.863   4.970  0.00  0.00    +0.000 OA
ATOM     33  H   UNL     1      49.018   2.487   7.357  0.00  0.00    +0.000 HD
ATOM     34  H   UNL     1      49.347   2.447   5.638  0.00  0.00    +0.000 HD
ENDBRANCH  26  30
ENDBRANCH  21  22
ENDBRANCH  20  21
ENDBRANCH   3  20
TORSDOF 6
ENDMDL
MODEL 3
REMARK VINA RESULT:    -7.395      4.592      8.012
REMARK INTER + INTRA:         -11.193
REMARK INTER:                  -9.857
REMARK INTRA:                  -1.336
REMARK UNBOUND:                -1.205
REMARK  Name = 
REMARK  8 active torsions:
REMARK  status: ('A' for Active; 'I' for Inactive)
REMARK    1  A    between atoms: C_1  and  C_2
REMARK    2  A    between atoms: N_4  and  C_5
REMARK    3  A    between atoms: C_7  and  C_8
REMARK    4  A    between atoms: C_8  and  C_9
REMARK    5  A    between atoms: C_9  and  N_10
REMARK    6  A    between atoms: C_14  and  C_15
REMARK    7  A    between atoms: C_21  and  C_22
REMARK    8  A    between atoms: C_28  and  C_29
REMARK                            x       y       z     vdW  Elec       q    Type
REMARK                         _______ _______ _______ _____ _____    ______ ____
ROOT
ATOM      1  C   UNL     1      45.103   7.321  11.407  0.00  0.00    +0.000 A 
ATOM      2  C   UNL     1      46.382   7.462  11.975  0.00  0.00    +0.000 A 
ATOM      3  C   UNL     1      46.911   8.713  12.348  0.00  0.00    +0.000 A 
ATOM      4  C   UNL     1      46.140   9.862  12.156  0.00  0.00    +0.000 A 
ATOM      5  C   UNL     1      44.865   9.769  11.595  0.00  0.00    +0.000 A 
ATOM      6  C   UNL     1      44.367   8.503  11.236  0.00  0.00    +0.000 A 
ENDROOT
BRANCH   1  10
ATOM      7  C   UNL     1      45.920   3.699  12.698  0.00  0.00    +0.000 C 
ATOM      8  C   UNL     1      45.164   3.691  11.366  0.00  0.00    +0.000 C 
ATOM      9  C   UNL     1      45.439   4.989  10.553  0.00  0.00    +0.000 C 
ATOM     10  N   UNL     1      44.597   6.095  11.033  0.00  0.00    +0.000 N 
ATOM     11  C   UNL     1      43.160   5.780  11.066  0.00  0.00    +0.000 C 
ATOM     12  C   UNL     1      42.888   4.512  11.915  0.00  0.00    +0.000 C 
ATOM     13  C   UNL     1      42.938   4.804  13.417  0.00  0.00    +0.000 C 
ATOM     14  N   UNL     1      43.728   3.348  11.539  0.00  0.00    +0.000 NA
ATOM     15  H   UNL     1      43.394   3.034  10.626  0.00  0.00    +0.000 HD
ENDBRANCH   1  10
BRANCH   5  16
ATOM     16  C   UNL     1      44.020  10.992  11.345  0.00  0.00    +0.000 C 
ATOM     17  F   UNL     1      42.783  10.927  11.911  0.00  0.00    +0.000 F 
ATOM     18  F   UNL     1      44.594  12.127  11.834  0.00  0.00    +0.000 F 
ATOM     19  F   UNL     1      43.811  11.223  10.019  0.00  0.00    +0.000 F 
ENDBRANCH   5  16
BRANCH   3  20
ATOM     20  C   UNL     1      48.328   8.828  12.864  0.00  0.00    +0.000 C 
BRANCH  20  21
ATOM     21  C   UNL     1      48.927   7.440  13.119  0.00  0.00    +0.000 C 
BRANCH  21  22
ATOM     22  N   UNL     1      49.644   7.400  14.401  0.00  0.00    +0.000 N 
ATOM     23  C   UNL     1      49.143   6.402  15.266  0.00  0.00    +0.000 A 
ATOM     24  C   UNL     1      49.725   6.249  16.521  0.00  0.00    +0.000 A 
ATOM     25  C   UNL     1      49.250   5.263  17.387  0.00  0.00    +0.000 A 
ATOM     26  C   UNL     1      48.208   4.466  16.954  0.00  0.00    +0.000 A 
ATOM     27  N   UNL     1      47.651   4.612  15.732  0.00  0.00    +0.000 NA
ATOM     28  N   UNL     1      48.139   5.578  14.887  0.00  0.00    +0.000 NA
ATOM     29  H   UNL     1      49.622   8.293  14.887  0.00  0.00    +0.000 HD
BRANCH  26  30
ATOM     30  C   UNL     1      47.620   3.411  17.827  0.00  0.00    +0.000 C 
ATOM     31  N   UNL     1      48.298   3.144  18.987  0.00  0.00    +0.000 N 
ATOM     32  O   UNL     1      46.594   2.814  17.528  0.00  0.00    +0.000 OA
ATOM     33  H   UNL     1      49.144   3.650  19.224  0.00  0.00    +0.000 HD
ATOM     34  H   UNL     1      47.942   2.438  19.617  0.00  0.00    +0.000 HD
ENDBRANCH  26  30
ENDBRANCH  21  22
ENDBRANCH  20  21
ENDBRANCH   3  20
TORSDOF 6
ENDMDL
MODEL 4
REMARK VINA RESULT:    -6.928      3.071      6.588
REMARK INTER + INTRA:         -10.562
REMARK INTER:                  -9.271
REMARK INTRA:                  -1.291
REMARK UNBOUND:                -1.205
REMARK  Name = 
REMARK  8 active torsions:
REMARK  status: ('A' for Active; 'I' for Inactive)
REMARK    1  A    between atoms: C_1  and  C_2
REMARK    2  A    between atoms: N_4  and  C_5
REMARK    3  A    between atoms: C_7  and  C_8
REMARK    4  A    between atoms: C_8  and  C_9
REMARK    5  A    between atoms: C_9  and  N_10
REMARK    6  A    between atoms: C_14  and  C_15
REMARK    7  A    between atoms: C_21  and  C_22
REMARK    8  A    between atoms: C_28  and  C_29
REMARK                            x       y       z     vdW  Elec       q    Type
REMARK                         _______ _______ _______ _____ _____    ______ ____
ROOT
ATOM      1  C   UNL     1      46.091   4.705  13.412  0.00  0.00    +0.000 A 
ATOM      2  C   UNL     1      46.722   5.876  12.957  0.00  0.00    +0.000 A 
ATOM      3  C   UNL     1      47.716   6.540  13.702  0.00  0.00    +0.000 A 
ATOM      4  C   UNL     1      48.102   6.017  14.939  0.00  0.00    +0.000 A 
ATOM      5  C   UNL     1      47.501   4.855  15.430  0.00  0.00    +0.000 A 
ATOM      6  C   UNL     1      46.513   4.218  14.658  0.00  0.00    +0.000 A 
ENDROOT
BRANCH   1  10
ATOM      7  C   UNL     1      43.027   6.147  11.417  0.00  0.00    +0.000 C 
ATOM      8  C   UNL     1      42.905   4.641  11.672  0.00  0.00    +0.000 C 
ATOM      9  C   UNL     1      43.674   4.224  12.959  0.00  0.00    +0.000 C 
ATOM     10  N   UNL     1      45.110   4.068  12.682  0.00  0.00    +0.000 N 
ATOM     11  C   UNL     1      45.407   3.160  11.564  0.00  0.00    +0.000 C 
ATOM     12  C   UNL     1      44.675   3.608  10.274  0.00  0.00    +0.000 C 
ATOM     13  C   UNL     1      45.371   4.792   9.599  0.00  0.00    +0.000 C 
ATOM     14  N   UNL     1      43.221   3.840  10.461  0.00  0.00    +0.000 NA
ATOM     15  H   UNL     1      42.798   2.921  10.604  0.00  0.00    +0.000 HD
ENDBRANCH   1  10
BRANCH   5  16
ATOM     16  C   UNL     1      47.871   4.282  16.774  0.00  0.00    +0.000 C 
ATOM     17  F   UNL     1      47.318   3.061  17.019  0.00  0.00    +0.000 F 
ATOM     18  F   UNL     1      49.216   4.116  16.915  0.00  0.00    +0.000 F 
ATOM     19  F   UNL     1      47.485   5.080  17.809  0.00  0.00    +0.000 F 
ENDBRANCH   5  16
BRANCH   3  20
ATOM     20  C   UNL     1      48.297   7.850  13.220  0.00  0.00    +0.000 C 
BRANCH  20  21
ATOM     21  C   UNL     1      47.519   9.036  13.801  0.00  0.00    +0.000 C 
BRANCH  21  22
ATOM     22  N   UNL     1      47.585  10.201  12.910  0.00  0.00    +0.000 N 
ATOM     23  C   UNL     1      46.451  10.303  12.073  0.00  0.00    +0.000 A 
ATOM     24  C   UNL     1      46.376  11.360  11.170  0.00  0.00    +0.000 A 
ATOM     25  C   UNL     1      45.261  11.483  10.342  0.00  0.00    +0.000 A 
ATOM     26  C   UNL     1      44.260  10.537  10.455  0.00  0.00    +0.000 A 
ATOM     27  N   UNL     1      44.332   9.517  11.338  0.00  0.00    +0.000 NA
ATOM     28  N   UNL     1      45.430   9.419  12.155  0.00  0.00    +0.000 NA
ATOM     29  H   UNL     1      48.419  10.200  12.329  0.00  0.00    +0.000 HD
BRANCH  26  30
ATOM     30  C   UNL     1      43.050  10.576   9.586  0.00  0.00    +0.000 C 
ATOM     31  N   UNL     1      43.281  10.594   8.236  0.00  0.00    +0.000 N 
ATOM     32  O   UNL     1      41.916  10.594  10.047  0.00  0.00    +0.000 OA
ATOM     33  H   UNL     1      44.224  10.573   7.868  0.00  0.00    +0.000 HD
ATOM     34  H   UNL     1      42.494  10.619   7.601  0.00  0.00    +0.000 HD
ENDBRANCH  26  30
ENDBRANCH  21  22
ENDBRANCH  20  21
ENDBRANCH   3  20
TORSDOF 6
ENDMDL
MODEL 5
REMARK VINA RESULT:    -6.867      4.716      7.381
REMARK INTER + INTRA:         -10.481
REMARK INTER:                  -9.164
REMARK INTRA:                  -1.317
REMARK UNBOUND:                -1.205
REMARK  Name = 
REMARK  8 active torsions:
REMARK  status: ('A' for Active; 'I' for Inactive)
REMARK    1  A    between atoms: C_1  and  C_2
REMARK    2  A    between atoms: N_4  and  C_5
REMARK    3  A    between atoms: C_7  and  C_8
REMARK    4  A    between atoms: C_8  and  C_9
REMARK    5  A    between atoms: C_9  and  N_10
REMARK    6  A    between atoms: C_14  and  C_15
REMARK    7  A    between atoms: C_21  and  C_22
REMARK    8  A    between atoms: C_28  and  C_29
REMARK                            x       y       z     vdW  Elec       q    Type
REMARK                         _______ _______ _______ _____ _____    ______ ____
ROOT
ATOM      1  C   UNL     1      48.101   7.220  18.287  0.00  0.00    +0.000 A 
ATOM      2  C   UNL     1      48.879   7.354  17.124  0.00  0.00    +0.000 A 
ATOM      3  C   UNL     1      49.170   8.605  16.547  0.00  0.00    +0.000 A 
ATOM      4  C   UNL     1      48.674   9.764  17.150  0.00  0.00    +0.000 A 
ATOM      5  C   UNL     1      47.895   9.678  18.306  0.00  0.00    +0.000 A 
ATOM      6  C   UNL     1      47.627   8.412  18.856  0.00  0.00    +0.000 A 
ENDROOT
BRANCH   1  10
ATOM      7  C   UNL     1      49.796   3.710  17.784  0.00  0.00    +0.000 C 
ATOM      8  C   UNL     1      48.418   3.606  18.444  0.00  0.00    +0.000 C 
ATOM      9  C   UNL     1      47.506   4.799  18.034  0.00  0.00    +0.000 C 
ATOM     10  N   UNL     1      47.810   5.991  18.840  0.00  0.00    +0.000 N 
ATOM     11  C   UNL     1      47.764   5.758  20.291  0.00  0.00    +0.000 C 
ATOM     12  C   UNL     1      48.710   4.600  20.699  0.00  0.00    +0.000 C 
ATOM     13  C   UNL     1      50.175   5.040  20.737  0.00  0.00    +0.000 C 
ATOM     14  N   UNL     1      48.514   3.360  19.906  0.00  0.00    +0.000 NA
ATOM     15  H   UNL     1      47.613   2.973  20.194  0.00  0.00    +0.000 HD
ENDBRANCH   1  10
BRANCH   5  16
ATOM     16  C   UNL     1      47.319  10.905  18.963  0.00  0.00    +0.000 C 
ATOM     17  F   UNL     1      46.180  10.664  19.670  0.00  0.00    +0.000 F 
ATOM     18  F   UNL     1      48.188  11.479  19.843  0.00  0.00    +0.000 F 
ATOM     19  F   UNL     1      47.001  11.881  18.067  0.00  0.00    +0.000 F 
ENDBRANCH   5  16
BRANCH   3  20
ATOM     20  C   UNL     1      49.929   8.695  15.242  0.00  0.00    +0.000 C 
BRANCH  20  21
ATOM     21  C   UNL     1      49.791   7.394  14.443  0.00  0.00    +0.000 C 
BRANCH  21  22
ATOM     22  N   UNL     1      49.022   7.608  13.210  0.00  0.00    +0.000 N 
ATOM     23  C   UNL     1      47.958   6.689  13.073  0.00  0.00    +0.000 A 
ATOM     24  C   UNL     1      47.142   6.770  11.948  0.00  0.00    +0.000 A 
ATOM     25  C   UNL     1      46.081   5.876  11.799  0.00  0.00    +0.000 A 
ATOM     26  C   UNL     1      45.881   4.934  12.791  0.00  0.00    +0.000 A 
ATOM     27  N   UNL     1      46.671   4.864  13.885  0.00  0.00    +0.000 NA
ATOM     28  N   UNL     1      47.701   5.759  14.022  0.00  0.00    +0.000 NA
ATOM     29  H   UNL     1      49.602   7.563  12.376  0.00  0.00    +0.000 HD
BRANCH  26  30
ATOM     30  C   UNL     1      44.792   3.922  12.694  0.00  0.00    +0.000 C 
ATOM     31  N   UNL     1      45.191   2.630  12.474  0.00  0.00    +0.000 N 
ATOM     32  O   UNL     1      43.610   4.223  12.801  0.00  0.00    +0.000 OA
ATOM     33  H   UNL     1      46.173   2.394  12.392  0.00  0.00    +0.000 HD
ATOM     34  H   UNL     1      44.492   1.903  12.401  0.00  0.00    +0.000 HD
ENDBRANCH  26  30
ENDBRANCH  21  22
ENDBRANCH  20  21
ENDBRANCH   3  20
TORSDOF 6
ENDMDL
MODEL 6
REMARK VINA RESULT:    -6.716      4.602      6.628
REMARK INTER + INTRA:         -10.277
REMARK INTER:                  -9.030
REMARK INTRA:                  -1.247
REMARK UNBOUND:                -1.205
REMARK  Name = 
REMARK  8 active torsions:
REMARK  status: ('A' for Active; 'I' for Inactive)
REMARK    1  A    between atoms: C_1  and  C_2
REMARK    2  A    between atoms: N_4  and  C_5
REMARK    3  A    between atoms: C_7  and  C_8
REMARK    4  A    between atoms: C_8  and  C_9
REMARK    5  A    between atoms: C_9  and  N_10
REMARK    6  A    between atoms: C_14  and  C_15
REMARK    7  A    between atoms: C_21  and  C_22
REMARK    8  A    between atoms: C_28  and  C_29
REMARK                            x       y       z     vdW  Elec       q    Type
REMARK                         _______ _______ _______ _____ _____    ______ ____
ROOT
ATOM      1  C   UNL     1      48.560   6.275  18.878  0.00  0.00    +0.000 A 
ATOM      2  C   UNL     1      48.756   7.144  17.791  0.00  0.00    +0.000 A 
ATOM      3  C   UNL     1      48.729   6.703  16.454  0.00  0.00    +0.000 A 
ATOM      4  C   UNL     1      48.493   5.352  16.188  0.00  0.00    +0.000 A 
ATOM      5  C   UNL     1      48.294   4.452  17.238  0.00  0.00    +0.000 A 
ATOM      6  C   UNL     1      48.325   4.928  18.561  0.00  0.00    +0.000 A 
ENDROOT
BRANCH   1  10
ATOM      7  C   UNL     1      50.249   9.443  20.480  0.00  0.00    +0.000 C 
ATOM      8  C   UNL     1      49.862   8.392  21.525  0.00  0.00    +0.000 C 
ATOM      9  C   UNL     1      49.854   6.962  20.911  0.00  0.00    +0.000 C 
ATOM     10  N   UNL     1      48.600   6.712  20.186  0.00  0.00    +0.000 N 
ATOM     11  C   UNL     1      47.389   6.957  20.984  0.00  0.00    +0.000 C 
ATOM     12  C   UNL     1      47.380   8.398  21.553  0.00  0.00    +0.000 C 
ATOM     13  C   UNL     1      46.987   9.433  20.496  0.00  0.00    +0.000 C 
ATOM     14  N   UNL     1      48.629   8.766  22.266  0.00  0.00    +0.000 NA
ATOM     15  H   UNL     1      48.637   8.226  23.133  0.00  0.00    +0.000 HD
ENDBRANCH   1  10
BRANCH   5  16
ATOM     16  C   UNL     1      48.069   2.983  16.988  0.00  0.00    +0.000 C 
ATOM     17  F   UNL     1      49.132   2.201  17.324  0.00  0.00    +0.000 F 
ATOM     18  F   UNL     1      47.010   2.494  17.693  0.00  0.00    +0.000 F 
ATOM     19  F   UNL     1      47.802   2.708  15.680  0.00  0.00    +0.000 F 
ENDBRANCH   5  16
BRANCH   3  20
ATOM     20  C   UNL     1      49.042   7.654  15.321  0.00  0.00    +0.000 C 
BRANCH  20  21
ATOM     21  C   UNL     1      48.588   7.068  13.979  0.00  0.00    +0.000 C 
BRANCH  21  22
ATOM     22  N   UNL     1      47.282   7.609  13.580  0.00  0.00    +0.000 N 
ATOM     23  C   UNL     1      46.385   6.598  13.168  0.00  0.00    +0.000 A 
ATOM     24  C   UNL     1      45.106   6.964  12.757  0.00  0.00    +0.000 A 
ATOM     25  C   UNL     1      44.202   5.980  12.355  0.00  0.00    +0.000 A 
ATOM     26  C   UNL     1      44.621   4.663  12.383  0.00  0.00    +0.000 A 
ATOM     27  N   UNL     1      45.860   4.312  12.790  0.00  0.00    +0.000 NA
ATOM     28  N   UNL     1      46.732   5.291  13.195  0.00  0.00    +0.000 NA
ATOM     29  H   UNL     1      47.357   8.300  12.838  0.00  0.00    +0.000 HD
BRANCH  26  30
ATOM     30  C   UNL     1      43.730   3.554  11.939  0.00  0.00    +0.000 C 
ATOM     31  N   UNL     1      43.911   2.351  12.569  0.00  0.00    +0.000 N 
ATOM     32  O   UNL     1      42.889   3.703  11.062  0.00  0.00    +0.000 OA
ATOM     33  H   UNL     1      44.607   2.242  13.297  0.00  0.00    +0.000 HD
ATOM     34  H   UNL     1      43.332   1.564  12.307  0.00  0.00    +0.000 HD
ENDBRANCH  26  30
ENDBRANCH  21  22
ENDBRANCH  20  21
ENDBRANCH   3  20
TORSDOF 6
ENDMDL
MODEL 7
REMARK VINA RESULT:    -6.692      4.791      8.530
REMARK INTER + INTRA:         -10.244
REMARK INTER:                  -9.099
REMARK INTRA:                  -1.145
REMARK UNBOUND:                -1.205
REMARK  Name = 
REMARK  8 active torsions:
REMARK  status: ('A' for Active; 'I' for Inactive)
REMARK    1  A    between atoms: C_1  and  C_2
REMARK    2  A    between atoms: N_4  and  C_5
REMARK    3  A    between atoms: C_7  and  C_8
REMARK    4  A    between atoms: C_8  and  C_9
REMARK    5  A    between atoms: C_9  and  N_10
REMARK    6  A    between atoms: C_14  and  C_15
REMARK    7  A    between atoms: C_21  and  C_22
REMARK    8  A    between atoms: C_28  and  C_29
REMARK                            x       y       z     vdW  Elec       q    Type
REMARK                         _______ _______ _______ _____ _____    ______ ____
ROOT
ATOM      1  C   UNL     1      45.976   6.183  12.353  0.00  0.00    +0.000 A 
ATOM      2  C   UNL     1      47.353   6.235  12.627  0.00  0.00    +0.000 A 
ATOM      3  C   UNL     1      48.088   7.436  12.595  0.00  0.00    +0.000 A 
ATOM      4  C   UNL     1      47.429   8.628  12.285  0.00  0.00    +0.000 A 
ATOM      5  C   UNL     1      46.061   8.623  12.005  0.00  0.00    +0.000 A 
ATOM      6  C   UNL     1      45.358   7.406  12.049  0.00  0.00    +0.000 A 
ENDROOT
BRANCH   1  10
ATOM      7  C   UNL     1      42.165   5.463  11.711  0.00  0.00    +0.000 C 
ATOM      8  C   UNL     1      42.876   4.292  12.398  0.00  0.00    +0.000 C 
ATOM      9  C   UNL     1      44.093   4.785  13.235  0.00  0.00    +0.000 C 
ATOM     10  N   UNL     1      45.265   5.002  12.374  0.00  0.00    +0.000 N 
ATOM     11  C   UNL     1      45.622   3.839  11.546  0.00  0.00    +0.000 C 
ATOM     12  C   UNL     1      44.420   3.384  10.680  0.00  0.00    +0.000 C 
ATOM     13  C   UNL     1      44.213   4.287   9.462  0.00  0.00    +0.000 C 
ATOM     14  N   UNL     1      43.169   3.183  11.453  0.00  0.00    +0.000 NA
ATOM     15  H   UNL     1      43.312   2.348  12.024  0.00  0.00    +0.000 HD
ENDBRANCH   1  10
BRANCH   5  16
ATOM     16  C   UNL     1      45.326   9.887  11.636  0.00  0.00    +0.000 C 
ATOM     17  F   UNL     1      44.579   9.774  10.502  0.00  0.00    +0.000 F 
ATOM     18  F   UNL     1      44.463  10.287  12.612  0.00  0.00    +0.000 F 
ATOM     19  F   UNL     1      46.164  10.939  11.427  0.00  0.00    +0.000 F 
ENDBRANCH   5  16
BRANCH   3  20
ATOM     20  C   UNL     1      49.586   7.430  12.801  0.00  0.00    +0.000 C 
BRANCH  20  21
ATOM     21  C   UNL     1      49.953   8.071  14.144  0.00  0.00    +0.000 C 
BRANCH  21  22
ATOM     22  N   UNL     1      50.867   7.212  14.909  0.00  0.00    +0.000 N 
ATOM     23  C   UNL     1      50.256   6.666  16.060  0.00  0.00    +0.000 A 
ATOM     24  C   UNL     1      51.005   5.832  16.885  0.00  0.00    +0.000 A 
ATOM     25  C   UNL     1      50.417   5.276  18.022  0.00  0.00    +0.000 A 
ATOM     26  C   UNL     1      49.094   5.580  18.283  0.00  0.00    +0.000 A 
ATOM     27  N   UNL     1      48.368   6.383  17.475  0.00  0.00    +0.000 NA
ATOM     28  N   UNL     1      48.958   6.911  16.354  0.00  0.00    +0.000 NA
ATOM     29  H   UNL     1      51.714   7.699  15.190  0.00  0.00    +0.000 HD
BRANCH  26  30
ATOM     30  C   UNL     1      48.399   5.054  19.492  0.00  0.00    +0.000 C 
ATOM     31  N   UNL     1      48.518   3.708  19.716  0.00  0.00    +0.000 N 
ATOM     32  O   UNL     1      47.756   5.779  20.241  0.00  0.00    +0.000 OA
ATOM     33  H   UNL     1      49.058   3.122  19.091  0.00  0.00    +0.000 HD
ATOM     34  H   UNL     1      48.067   3.300  20.524  0.00  0.00    +0.000 HD
ENDBRANCH  26  30
ENDBRANCH  21  22
ENDBRANCH  20  21
ENDBRANCH   3  20
TORSDOF 6
ENDMDL
MODEL 8
REMARK VINA RESULT:    -6.605      4.926      8.407
REMARK INTER + INTRA:         -10.126
REMARK INTER:                  -9.069
REMARK INTRA:                  -1.057
REMARK UNBOUND:                -1.205
REMARK  Name = 
REMARK  8 active torsions:
REMARK  status: ('A' for Active; 'I' for Inactive)
REMARK    1  A    between atoms: C_1  and  C_2
REMARK    2  A    between atoms: N_4  and  C_5
REMARK    3  A    between atoms: C_7  and  C_8
REMARK    4  A    between atoms: C_8  and  C_9
REMARK    5  A    between atoms: C_9  and  N_10
REMARK    6  A    between atoms: C_14  and  C_15
REMARK    7  A    between atoms: C_21  and  C_22
REMARK    8  A    between atoms: C_28  and  C_29
REMARK                            x       y       z     vdW  Elec       q    Type
REMARK                         _______ _______ _______ _____ _____    ______ ____
ROOT
ATOM      1  C   UNL     1      45.092   6.975  11.993  0.00  0.00    +0.000 A 
ATOM      2  C   UNL     1      46.428   6.745  12.364  0.00  0.00    +0.000 A 
ATOM      3  C   UNL     1      47.372   7.784  12.481  0.00  0.00    +0.000 A 
ATOM      4  C   UNL     1      46.971   9.098  12.227  0.00  0.00    +0.000 A 
ATOM      5  C   UNL     1      45.654   9.372  11.854  0.00  0.00    +0.000 A 
ATOM      6  C   UNL     1      44.738   8.310  11.749  0.00  0.00    +0.000 A 
ENDROOT
BRANCH   1  10
ATOM      7  C   UNL     1      44.880   4.017   9.413  0.00  0.00    +0.000 C 
ATOM      8  C   UNL     1      43.568   4.224  10.177  0.00  0.00    +0.000 C 
ATOM      9  C   UNL     1      43.412   5.703  10.637  0.00  0.00    +0.000 C 
ATOM     10  N   UNL     1      44.177   5.951  11.868  0.00  0.00    +0.000 N 
ATOM     11  C   UNL     1      43.869   5.016  12.961  0.00  0.00    +0.000 C 
ATOM     12  C   UNL     1      44.072   3.547  12.511  0.00  0.00    +0.000 C 
ATOM     13  C   UNL     1      45.550   3.153  12.485  0.00  0.00    +0.000 C 
ATOM     14  N   UNL     1      43.375   3.209  11.245  0.00  0.00    +0.000 NA
ATOM     15  H   UNL     1      42.376   3.200  11.458  0.00  0.00    +0.000 HD
ENDBRANCH   1  10
BRANCH   5  16
ATOM     16  C   UNL     1      45.197  10.774  11.542  0.00  0.00    +0.000 C 
ATOM     17  F   UNL     1      43.894  11.010  11.863  0.00  0.00    +0.000 F 
ATOM     18  F   UNL     1      45.921  11.717  12.209  0.00  0.00    +0.000 F 
ATOM     19  F   UNL     1      45.316  11.082  10.220  0.00  0.00    +0.000 F 
ENDBRANCH   5  16
BRANCH   3  20
ATOM     20  C   UNL     1      48.821   7.479  12.788  0.00  0.00    +0.000 C 
BRANCH  20  21
ATOM     21  C   UNL     1      49.225   8.068  14.144  0.00  0.00    +0.000 C 
BRANCH  21  22
ATOM     22  N   UNL     1      48.395   7.524  15.226  0.00  0.00    +0.000 N 
ATOM     23  C   UNL     1      49.119   6.660  16.078  0.00  0.00    +0.000 A 
ATOM     24  C   UNL     1      48.459   6.065  17.149  0.00  0.00    +0.000 A 
ATOM     25  C   UNL     1      49.159   5.215  18.006  0.00  0.00    +0.000 A 
ATOM     26  C   UNL     1      50.500   4.998  17.752  0.00  0.00    +0.000 A 
ATOM     27  N   UNL     1      51.139   5.583  16.716  0.00  0.00    +0.000 NA
ATOM     28  N   UNL     1      50.439   6.427  15.890  0.00  0.00    +0.000 NA
ATOM     29  H   UNL     1      47.577   7.029  14.879  0.00  0.00    +0.000 HD
BRANCH  26  30
ATOM     30  C   UNL     1      51.314   4.080  18.598  0.00  0.00    +0.000 C 
ATOM     31  N   UNL     1      51.468   2.804  18.124  0.00  0.00    +0.000 N 
ATOM     32  O   UNL     1      51.814   4.440  19.656  0.00  0.00    +0.000 OA
ATOM     33  H   UNL     1      51.053   2.522  17.244  0.00  0.00    +0.000 HD
ATOM     34  H   UNL     1      52.012   2.141  18.658  0.00  0.00    +0.000 HD
ENDBRANCH  26  30
ENDBRANCH  21  22
ENDBRANCH  20  21
ENDBRANCH   3  20
TORSDOF 6
ENDMDL
MODEL 9
REMARK VINA RESULT:    -6.453      3.782      6.524
REMARK INTER + INTRA:          -9.921
REMARK INTER:                  -8.672
REMARK INTRA:                  -1.250
REMARK UNBOUND:                -1.205
REMARK  Name = 
REMARK  8 active torsions:
REMARK  status: ('A' for Active; 'I' for Inactive)
REMARK    1  A    between atoms: C_1  and  C_2
REMARK    2  A    between atoms: N_4  and  C_5
REMARK    3  A    between atoms: C_7  and  C_8
REMARK    4  A    between atoms: C_8  and  C_9
REMARK    5  A    between atoms: C_9  and  N_10
REMARK    6  A    between atoms: C_14  and  C_15
REMARK    7  A    between atoms: C_21  and  C_22
REMARK    8  A    between atoms: C_28  and  C_29
REMARK                            x       y       z     vdW  Elec       q    Type
REMARK                         _______ _______ _______ _____ _____    ______ ____
ROOT
ATOM      1  C   UNL     1      49.212   6.371  16.412  0.00  0.00    +0.000 A 
ATOM      2  C   UNL     1      48.549   7.246  15.535  0.00  0.00    +0.000 A 
ATOM      3  C   UNL     1      49.236   8.139  14.691  0.00  0.00    +0.000 A 
ATOM      4  C   UNL     1      50.633   8.158  14.715  0.00  0.00    +0.000 A 
ATOM      5  C   UNL     1      51.334   7.307  15.572  0.00  0.00    +0.000 A 
ATOM      6  C   UNL     1      50.615   6.426  16.399  0.00  0.00    +0.000 A 
ENDROOT
BRANCH   1  10
ATOM      7  C   UNL     1      49.960   2.646  17.419  0.00  0.00    +0.000 C 
ATOM      8  C   UNL     1      48.528   3.070  17.760  0.00  0.00    +0.000 C 
ATOM      9  C   UNL     1      48.032   4.196  16.808  0.00  0.00    +0.000 C 
ATOM     10  N   UNL     1      48.532   5.508  17.245  0.00  0.00    +0.000 N 
ATOM     11  C   UNL     1      48.230   5.825  18.650  0.00  0.00    +0.000 C 
ATOM     12  C   UNL     1      48.768   4.722  19.597  0.00  0.00    +0.000 C 
ATOM     13  C   UNL     1      50.279   4.837  19.814  0.00  0.00    +0.000 C 
ATOM     14  N   UNL     1      48.357   3.349  19.210  0.00  0.00    +0.000 NA
ATOM     15  H   UNL     1      47.355   3.283  19.400  0.00  0.00    +0.000 HD
ENDBRANCH   1  10
BRANCH   5  16
ATOM     16  C   UNL     1      52.839   7.324  15.645  0.00  0.00    +0.000 C 
ATOM     17  F   UNL     1      53.442   7.605  14.456  0.00  0.00    +0.000 F 
ATOM     18  F   UNL     1      53.304   8.254  16.526  0.00  0.00    +0.000 F 
ATOM     19  F   UNL     1      53.358   6.133  16.055  0.00  0.00    +0.000 F 
ENDBRANCH   5  16
BRANCH   3  20
ATOM     20  C   UNL     1      48.479   9.130  13.835  0.00  0.00    +0.000 C 
BRANCH  20  21
ATOM     21  C   UNL     1      48.218   8.553  12.439  0.00  0.00    +0.000 C 
BRANCH  21  22
ATOM     22  N   UNL     1      46.804   8.689  12.066  0.00  0.00    +0.000 N 
ATOM     23  C   UNL     1      46.153   7.440  11.961  0.00  0.00    +0.000 A 
ATOM     24  C   UNL     1      44.806   7.413  11.610  0.00  0.00    +0.000 A 
ATOM     25  C   UNL     1      44.143   6.189  11.509  0.00  0.00    +0.000 A 
ATOM     26  C   UNL     1      44.863   5.038  11.767  0.00  0.00    +0.000 A 
ATOM     27  N   UNL     1      46.168   5.069  12.115  0.00  0.00    +0.000 NA
ATOM     28  N   UNL     1      46.801   6.281  12.223  0.00  0.00    +0.000 NA
ATOM     29  H   UNL     1      46.679   9.196  11.194  0.00  0.00    +0.000 HD
BRANCH  26  30
ATOM     30  C   UNL     1      44.240   3.689  11.651  0.00  0.00    +0.000 C 
ATOM     31  N   UNL     1      44.841   2.687  12.365  0.00  0.00    +0.000 N 
ATOM     32  O   UNL     1      43.253   3.483  10.956  0.00  0.00    +0.000 OA
ATOM     33  H   UNL     1      45.654   2.872  12.941  0.00  0.00    +0.000 HD
ATOM     34  H   UNL     1      44.458   1.751  12.323  0.00  0.00    +0.000 HD
ENDBRANCH  26  30
ENDBRANCH  21  22
ENDBRANCH  20  21
ENDBRANCH   3  20
TORSDOF 6
ENDMDL
