MODEL 1
REMARK VINA RESULT:    -8.267      0.000      0.000
REMARK INTER + INTRA:         -12.751
REMARK INTER:                 -11.650
REMARK INTRA:                  -1.101
REMARK UNBOUND:                -1.101
REMARK  Name = 
REMARK  7 active torsions:
REMARK  status: ('A' for Active; 'I' for Inactive)
REMARK    1  A    between atoms: C_2  and  C_4
REMARK    2  A    between atoms: C_7  and  O_8
REMARK    3  A    between atoms: O_8  and  C_9
REMARK    4  A    between atoms: C_9  and  C_10
REMARK    5  A    between atoms: C_10  and  C_11
REMARK    6  A    between atoms: C_15  and  O_16
REMARK    7  A    between atoms: O_16  and  C_17
REMARK                            x       y       z     vdW  Elec       q    Type
REMARK                         _______ _______ _______ _____ _____    ______ ____
ROOT
ATOM      1  C   UNL     1      43.464   4.717  10.802  0.00  0.00    +0.000 C 
ENDROOT
BRANCH   1   2
ATOM      2  O   UNL     1      43.528   3.327  10.449  0.00  0.00    +0.000 OA
BRANCH   2   6
ATOM      3  C   UNL     1      46.418   2.677   7.577  0.00  0.00    +0.000 A 
ATOM      4  C   UNL     1      45.918   3.968   7.771  0.00  0.00    +0.000 A 
ATOM      5  C   UNL     1      44.935   4.179   8.743  0.00  0.00    +0.000 A 
ATOM      6  C   UNL     1      44.492   3.093   9.481  0.00  0.00    +0.000 A 
ATOM      7  N   UNL     1      44.950   1.836   9.300  0.00  0.00    +0.000 NA
ATOM      8  C   UNL     1      45.893   1.654   8.349  0.00  0.00    +0.000 A 
BRANCH   3  10
ATOM      9  N   UNL     1      47.519   3.097   5.452  0.00  0.00    +0.000 N 
ATOM     10  C   UNL     1      47.458   2.337   6.584  0.00  0.00    +0.000 C 
ATOM     11  O   UNL     1      48.266   1.440   6.786  0.00  0.00    +0.000 OA
ATOM     12  H   UNL     1      48.316   2.931   4.849  0.00  0.00    +0.000 HD
ATOM     13  H   UNL     1      47.058   3.993   5.375  0.00  0.00    +0.000 HD
ENDBRANCH   3  10
ENDBRANCH   2   6
ENDBRANCH   1   2
BRANCH   1  14
ATOM     14  C   UNL     1      43.802   4.902  12.281  0.00  0.00    +0.000 C 
BRANCH  14  15
ATOM     15  C   UNL     1      45.222   5.385  12.457  0.00  0.00    +0.000 A 
ATOM     16  C   UNL     1      45.782   6.296  11.553  0.00  0.00    +0.000 A 
ATOM     17  C   UNL     1      47.075   6.784  11.751  0.00  0.00    +0.000 A 
ATOM     18  C   UNL     1      47.826   6.369  12.854  0.00  0.00    +0.000 A 
ATOM     19  C   UNL     1      47.281   5.464  13.759  0.00  0.00    +0.000 A 
ATOM     20  C   UNL     1      45.981   4.983  13.567  0.00  0.00    +0.000 A 
BRANCH  19  21
ATOM     21  O   UNL     1      47.913   5.018  14.895  0.00  0.00    +0.000 OA
BRANCH  21  22
ATOM     22  C   UNL     1      47.223   4.097  15.768  0.00  0.00    +0.000 C 
ATOM     23  C   UNL     1      47.165   4.465  17.269  0.00  0.00    +0.000 C 
ATOM     24  C   UNL     1      47.649   3.052  17.621  0.00  0.00    +0.000 C 
ATOM     25  C   UNL     1      48.062   2.856  16.159  0.00  0.00    +0.000 C 
ENDBRANCH  21  22
ENDBRANCH  19  21
ENDBRANCH  14  15
ENDBRANCH   1  14
TORSDOF 7
ENDMDL
MODEL 2
REMARK VINA RESULT:    -7.151      2.016      3.787
REMARK INTER + INTRA:         -11.178
REMARK INTER:                 -10.224
REMARK INTRA:                  -0.954
REMARK UNBOUND:                -1.101
REMARK  Name = 
REMARK  7 active torsions:
REMARK  status: ('A' for Active; 'I' for Inactive)
REMARK    1  A    between atoms: C_2  and  C_4
REMARK    2  A    between atoms: C_7  and  O_8
REMARK    3  A    between atoms: O_8  and  C_9
REMARK    4  A    between atoms: C_9  and  C_10
REMARK    5  A    between atoms: C_10  and  C_11
REMARK    6  A    between atoms: C_15  and  O_16
REMARK    7  A    between atoms: O_16  and  C_17
REMARK                            x       y       z     vdW  Elec       q    Type
REMARK                         _______ _______ _______ _____ _____    ______ ____
ROOT
ATOM      1  C   UNL     1      44.131   5.073  10.982  0.00  0.00    +0.000 C 
ENDROOT
BRANCH   1   2
ATOM      2  O   UNL     1      43.620   4.126  10.033  0.00  0.00    +0.000 OA
BRANCH   2   6
ATOM      3  C   UNL     1      46.570   2.668   7.545  0.00  0.00    +0.000 A 
ATOM      4  C   UNL     1      45.808   1.776   8.305  0.00  0.00    +0.000 A 
ATOM      5  C   UNL     1      44.813   2.279   9.150  0.00  0.00    +0.000 A 
ATOM      6  C   UNL     1      44.621   3.651   9.200  0.00  0.00    +0.000 A 
ATOM      7  N   UNL     1      45.354   4.530   8.485  0.00  0.00    +0.000 NA
ATOM      8  C   UNL     1      46.317   4.023   7.683  0.00  0.00    +0.000 A 
BRANCH   3  10
ATOM      9  N   UNL     1      47.765   2.947   5.447  0.00  0.00    +0.000 N 
ATOM     10  C   UNL     1      47.643   2.253   6.617  0.00  0.00    +0.000 C 
ATOM     11  O   UNL     1      48.424   1.354   6.902  0.00  0.00    +0.000 OA
ATOM     12  H   UNL     1      48.582   2.733   4.889  0.00  0.00    +0.000 HD
ATOM     13  H   UNL     1      47.326   3.845   5.301  0.00  0.00    +0.000 HD
ENDBRANCH   3  10
ENDBRANCH   2   6
ENDBRANCH   1   2
BRANCH   1  14
ATOM     14  C   UNL     1      44.739   4.344  12.180  0.00  0.00    +0.000 C 
BRANCH  14  15
ATOM     15  C   UNL     1      45.919   5.105  12.737  0.00  0.00    +0.000 A 
ATOM     16  C   UNL     1      46.443   4.785  13.996  0.00  0.00    +0.000 A 
ATOM     17  C   UNL     1      47.569   5.452  14.483  0.00  0.00    +0.000 A 
ATOM     18  C   UNL     1      48.186   6.447  13.720  0.00  0.00    +0.000 A 
ATOM     19  C   UNL     1      47.675   6.774  12.468  0.00  0.00    +0.000 A 
ATOM     20  C   UNL     1      46.553   6.098  11.976  0.00  0.00    +0.000 A 
BRANCH  19  21
ATOM     21  O   UNL     1      48.222   7.706  11.620  0.00  0.00    +0.000 OA
BRANCH  21  22
ATOM     22  C   UNL     1      49.391   8.441  12.043  0.00  0.00    +0.000 C 
ATOM     23  C   UNL     1      49.614   9.832  11.403  0.00  0.00    +0.000 C 
ATOM     24  C   UNL     1      51.064   9.440  11.089  0.00  0.00    +0.000 C 
ATOM     25  C   UNL     1      50.703   7.977  11.365  0.00  0.00    +0.000 C 
ENDBRANCH  21  22
ENDBRANCH  19  21
ENDBRANCH  14  15
ENDBRANCH   1  14
TORSDOF 7
ENDMDL
MODEL 3
REMARK VINA RESULT:    -7.117      1.999      3.863
REMARK INTER + INTRA:         -11.130
REMARK INTER:                 -10.175
REMARK INTRA:                  -0.955
REMARK UNBOUND:                -1.101
REMARK  Name = 
REMARK  7 active torsions:
REMARK  status: ('A' for Active; 'I' for Inactive)
REMARK    1  A    between atoms: C_2  and  C_4
REMARK    2  A    between atoms: C_7  and  O_8
REMARK    3  A    between atoms: O_8  and  C_9
REMARK    4  A    between atoms: C_9  and  C_10
REMARK    5  A    between atoms: C_10  and  C_11
REMARK    6  A    between atoms: C_15  and  O_16
REMARK    7  A    between atoms: O_16  and  C_17
REMARK                            x       y       z     vdW  Elec       q    Type
REMARK                         _______ _______ _______ _____ _____    ______ ____
ROOT
ATOM      1  C   UNL     1      43.362   4.296  10.848  0.00  0.00    +0.000 C 
ENDROOT
BRANCH   1   2
ATOM      2  O   UNL     1      43.903   2.981  10.648  0.00  0.00    +0.000 OA
BRANCH   2   6
ATOM      3  C   UNL     1      46.429   2.906   7.387  0.00  0.00    +0.000 A 
ATOM      4  C   UNL     1      45.937   4.130   7.848  0.00  0.00    +0.000 A 
ATOM      5  C   UNL     1      45.077   4.147   8.951  0.00  0.00    +0.000 A 
ATOM      6  C   UNL     1      44.744   2.940   9.548  0.00  0.00    +0.000 A 
ATOM      7  N   UNL     1      45.197   1.747   9.110  0.00  0.00    +0.000 NA
ATOM      8  C   UNL     1      46.018   1.753   8.037  0.00  0.00    +0.000 A 
BRANCH   3  10
ATOM      9  N   UNL     1      48.650   2.466   6.504  0.00  0.00    +0.000 N 
ATOM     10  C   UNL     1      47.345   2.767   6.236  0.00  0.00    +0.000 C 
ATOM     11  O   UNL     1      46.945   2.868   5.083  0.00  0.00    +0.000 OA
ATOM     12  H   UNL     1      49.228   2.248   5.702  0.00  0.00    +0.000 HD
ATOM     13  H   UNL     1      48.951   2.116   7.402  0.00  0.00    +0.000 HD
ENDBRANCH   3  10
ENDBRANCH   2   6
ENDBRANCH   1   2
BRANCH   1  14
ATOM     14  C   UNL     1      43.441   4.680  12.326  0.00  0.00    +0.000 C 
BRANCH  14  15
ATOM     15  C   UNL     1      44.809   5.215  12.675  0.00  0.00    +0.000 A 
ATOM     16  C   UNL     1      45.688   4.463  13.464  0.00  0.00    +0.000 A 
ATOM     17  C   UNL     1      46.974   4.936  13.737  0.00  0.00    +0.000 A 
ATOM     18  C   UNL     1      47.397   6.166  13.227  0.00  0.00    +0.000 A 
ATOM     19  C   UNL     1      46.533   6.923  12.442  0.00  0.00    +0.000 A 
ATOM     20  C   UNL     1      45.249   6.444  12.159  0.00  0.00    +0.000 A 
BRANCH  19  21
ATOM     21  O   UNL     1      46.856   8.124  11.859  0.00  0.00    +0.000 OA
BRANCH  21  22
ATOM     22  C   UNL     1      46.353   9.347  12.443  0.00  0.00    +0.000 C 
ATOM     23  C   UNL     1      45.014   9.888  11.888  0.00  0.00    +0.000 C 
ATOM     24  C   UNL     1      45.656  11.272  11.727  0.00  0.00    +0.000 C 
ATOM     25  C   UNL     1      47.034  10.626  11.900  0.00  0.00    +0.000 C 
ENDBRANCH  21  22
ENDBRANCH  19  21
ENDBRANCH  14  15
ENDBRANCH   1  14
TORSDOF 7
ENDMDL
MODEL 4
REMARK VINA RESULT:    -6.815      3.140      8.160
REMARK INTER + INTRA:         -10.705
REMARK INTER:                  -9.878
REMARK INTRA:                  -0.827
REMARK UNBOUND:                -1.101
REMARK  Name = 
REMARK  7 active torsions:
REMARK  status: ('A' for Active; 'I' for Inactive)
REMARK    1  A    between atoms: C_2  and  C_4
REMARK    2  A    between atoms: C_7  and  O_8
REMARK    3  A    between atoms: O_8  and  C_9
REMARK    4  A    between atoms: C_9  and  C_10
REMARK    5  A    between atoms: C_10  and  C_11
REMARK    6  A    between atoms: C_15  and  O_16
REMARK    7  A    between atoms: O_16  and  C_17
REMARK                            x       y       z     vdW  Elec       q    Type
REMARK                         _______ _______ _______ _____ _____    ______ ____
ROOT
ATOM      1  C   UNL     1      46.200   6.624  12.877  0.00  0.00    +0.000 C 
ENDROOT
BRANCH   1   2
ATOM      2  O   UNL     1      47.375   5.810  13.006  0.00  0.00    +0.000 OA
BRANCH   2   6
ATOM      3  C   UNL     1      48.099   4.770  16.933  0.00  0.00    +0.000 A 
ATOM      4  C   UNL     1      47.206   4.010  16.173  0.00  0.00    +0.000 A 
ATOM      5  C   UNL     1      46.962   4.372  14.844  0.00  0.00    +0.000 A 
ATOM      6  C   UNL     1      47.620   5.478  14.329  0.00  0.00    +0.000 A 
ATOM      7  N   UNL     1      48.476   6.234  15.049  0.00  0.00    +0.000 NA
ATOM      8  C   UNL     1      48.689   5.872  16.334  0.00  0.00    +0.000 A 
BRANCH   3  10
ATOM      9  N   UNL     1      48.833   3.209  18.644  0.00  0.00    +0.000 N 
ATOM     10  C   UNL     1      48.437   4.481  18.342  0.00  0.00    +0.000 C 
ATOM     11  O   UNL     1      48.410   5.354  19.199  0.00  0.00    +0.000 OA
ATOM     12  H   UNL     1      49.182   3.066  19.584  0.00  0.00    +0.000 HD
ATOM     13  H   UNL     1      49.121   2.549  17.936  0.00  0.00    +0.000 HD
ENDBRANCH   3  10
ENDBRANCH   2   6
ENDBRANCH   1   2
BRANCH   1  14
ATOM     14  C   UNL     1      45.796   6.738  11.407  0.00  0.00    +0.000 C 
BRANCH  14  15
ATOM     15  C   UNL     1      45.291   5.416  10.879  0.00  0.00    +0.000 A 
ATOM     16  C   UNL     1      44.559   4.553  11.704  0.00  0.00    +0.000 A 
ATOM     17  C   UNL     1      44.045   3.358  11.195  0.00  0.00    +0.000 A 
ATOM     18  C   UNL     1      44.256   3.009   9.859  0.00  0.00    +0.000 A 
ATOM     19  C   UNL     1      44.982   3.859   9.030  0.00  0.00    +0.000 A 
ATOM     20  C   UNL     1      45.487   5.061   9.536  0.00  0.00    +0.000 A 
BRANCH  19  21
ATOM     21  O   UNL     1      45.217   3.635   7.695  0.00  0.00    +0.000 OA
BRANCH  21  22
ATOM     22  C   UNL     1      46.565   3.356   7.256  0.00  0.00    +0.000 C 
ATOM     23  C   UNL     1      46.773   3.124   5.741  0.00  0.00    +0.000 C 
ATOM     24  C   UNL     1      47.557   1.843   6.058  0.00  0.00    +0.000 C 
ATOM     25  C   UNL     1      47.007   1.890   7.487  0.00  0.00    +0.000 C 
ENDBRANCH  21  22
ENDBRANCH  19  21
ENDBRANCH  14  15
ENDBRANCH   1  14
TORSDOF 7
ENDMDL
MODEL 5
REMARK VINA RESULT:    -6.666      3.556      8.126
REMARK INTER + INTRA:         -10.495
REMARK INTER:                  -9.972
REMARK INTRA:                  -0.524
REMARK UNBOUND:                -1.101
REMARK  Name = 
REMARK  7 active torsions:
REMARK  status: ('A' for Active; 'I' for Inactive)
REMARK    1  A    between atoms: C_2  and  C_4
REMARK    2  A    between atoms: C_7  and  O_8
REMARK    3  A    between atoms: O_8  and  C_9
REMARK    4  A    between atoms: C_9  and  C_10
REMARK    5  A    between atoms: C_10  and  C_11
REMARK    6  A    between atoms: C_15  and  O_16
REMARK    7  A    between atoms: O_16  and  C_17
REMARK                            x       y       z     vdW  Elec       q    Type
REMARK                         _______ _______ _______ _____ _____    ______ ____
ROOT
ATOM      1  C   UNL     1      47.083   3.810  14.349  0.00  0.00    +0.000 C 
ENDROOT
BRANCH   1   2
ATOM      2  O   UNL     1      46.975   3.482  15.743  0.00  0.00    +0.000 OA
BRANCH   2   6
ATOM      3  C   UNL     1      50.655   2.713  17.441  0.00  0.00    +0.000 A 
ATOM      4  C   UNL     1      50.023   3.934  17.693  0.00  0.00    +0.000 A 
ATOM      5  C   UNL     1      48.778   4.189  17.109  0.00  0.00    +0.000 A 
ATOM      6  C   UNL     1      48.216   3.214  16.299  0.00  0.00    +0.000 A 
ATOM      7  N   UNL     1      48.815   2.035  16.032  0.00  0.00    +0.000 NA
ATOM      8  C   UNL     1      50.022   1.813  16.599  0.00  0.00    +0.000 A 
BRANCH   3  10
ATOM      9  N   UNL     1      52.221   0.999  18.159  0.00  0.00    +0.000 N 
ATOM     10  C   UNL     1      51.967   2.332  18.005  0.00  0.00    +0.000 C 
ATOM     11  O   UNL     1      52.814   3.172  18.280  0.00  0.00    +0.000 OA
ATOM     12  H   UNL     1      53.169   0.757  18.424  0.00  0.00    +0.000 HD
ATOM     13  H   UNL     1      51.670   0.286  17.704  0.00  0.00    +0.000 HD
ENDBRANCH   3  10
ENDBRANCH   2   6
ENDBRANCH   1   2
BRANCH   1  14
ATOM     14  C   UNL     1      46.304   5.090  14.047  0.00  0.00    +0.000 C 
BRANCH  14  15
ATOM     15  C   UNL     1      45.258   4.851  12.983  0.00  0.00    +0.000 A 
ATOM     16  C   UNL     1      44.201   5.752  12.809  0.00  0.00    +0.000 A 
ATOM     17  C   UNL     1      43.267   5.558  11.788  0.00  0.00    +0.000 A 
ATOM     18  C   UNL     1      43.378   4.461  10.929  0.00  0.00    +0.000 A 
ATOM     19  C   UNL     1      44.424   3.558  11.093  0.00  0.00    +0.000 A 
ATOM     20  C   UNL     1      45.365   3.759  12.109  0.00  0.00    +0.000 A 
BRANCH  19  21
ATOM     21  O   UNL     1      44.650   2.470  10.285  0.00  0.00    +0.000 OA
BRANCH  21  22
ATOM     22  C   UNL     1      44.786   2.668   8.860  0.00  0.00    +0.000 C 
ATOM     23  C   UNL     1      45.964   1.949   8.163  0.00  0.00    +0.000 C 
ATOM     24  C   UNL     1      46.354   3.272   7.489  0.00  0.00    +0.000 C 
ATOM     25  C   UNL     1      45.447   4.014   8.475  0.00  0.00    +0.000 C 
ENDBRANCH  21  22
ENDBRANCH  19  21
ENDBRANCH  14  15
ENDBRANCH   1  14
TORSDOF 7
ENDMDL
MODEL 6
REMARK VINA RESULT:    -6.471      3.581      8.483
REMARK INTER + INTRA:         -10.220
REMARK INTER:                  -9.710
REMARK INTRA:                  -0.510
REMARK UNBOUND:                -1.101
REMARK  Name = 
REMARK  7 active torsions:
REMARK  status: ('A' for Active; 'I' for Inactive)
REMARK    1  A    between atoms: C_2  and  C_4
REMARK    2  A    between atoms: C_7  and  O_8
REMARK    3  A    between atoms: O_8  and  C_9
REMARK    4  A    between atoms: C_9  and  C_10
REMARK    5  A    between atoms: C_10  and  C_11
REMARK    6  A    between atoms: C_15  and  O_16
REMARK    7  A    between atoms: O_16  and  C_17
REMARK                            x       y       z     vdW  Elec       q    Type
REMARK                         _______ _______ _______ _____ _____    ______ ____
ROOT
ATOM      1  C   UNL     1      47.141   4.269  14.085  0.00  0.00    +0.000 C 
ENDROOT
BRANCH   1   2
ATOM      2  O   UNL     1      46.616   3.905  15.370  0.00  0.00    +0.000 OA
BRANCH   2   6
ATOM      3  C   UNL     1      49.424   4.366  18.358  0.00  0.00    +0.000 A 
ATOM      4  C   UNL     1      48.451   3.369  18.476  0.00  0.00    +0.000 A 
ATOM      5  C   UNL     1      47.500   3.223  17.461  0.00  0.00    +0.000 A 
ATOM      6  C   UNL     1      47.560   4.077  16.371  0.00  0.00    +0.000 A 
ATOM      7  N   UNL     1      48.481   5.055  16.245  0.00  0.00    +0.000 NA
ATOM      8  C   UNL     1      49.385   5.185  17.242  0.00  0.00    +0.000 A 
BRANCH   3  10
ATOM      9  N   UNL     1      51.634   3.891  19.249  0.00  0.00    +0.000 N 
ATOM     10  C   UNL     1      50.479   4.611  19.363  0.00  0.00    +0.000 C 
ATOM     11  O   UNL     1      50.348   5.458  20.237  0.00  0.00    +0.000 OA
ATOM     12  H   UNL     1      52.389   4.165  19.866  0.00  0.00    +0.000 HD
ATOM     13  H   UNL     1      51.881   3.392  18.406  0.00  0.00    +0.000 HD
ENDBRANCH   3  10
ENDBRANCH   2   6
ENDBRANCH   1   2
BRANCH   1  14
ATOM     14  C   UNL     1      46.379   5.470  13.525  0.00  0.00    +0.000 C 
BRANCH  14  15
ATOM     15  C   UNL     1      45.141   5.028  12.781  0.00  0.00    +0.000 A 
ATOM     16  C   UNL     1      43.947   5.753  12.890  0.00  0.00    +0.000 A 
ATOM     17  C   UNL     1      42.821   5.374  12.156  0.00  0.00    +0.000 A 
ATOM     18  C   UNL     1      42.871   4.268  11.304  0.00  0.00    +0.000 A 
ATOM     19  C   UNL     1      44.052   3.540  11.187  0.00  0.00    +0.000 A 
ATOM     20  C   UNL     1      45.183   3.925  11.914  0.00  0.00    +0.000 A 
BRANCH  19  21
ATOM     21  O   UNL     1      44.224   2.461  10.354  0.00  0.00    +0.000 OA
BRANCH  21  22
ATOM     22  C   UNL     1      44.453   2.690   8.945  0.00  0.00    +0.000 C 
ATOM     23  C   UNL     1      45.752   2.106   8.343  0.00  0.00    +0.000 C 
ATOM     24  C   UNL     1      46.055   3.470   7.709  0.00  0.00    +0.000 C 
ATOM     25  C   UNL     1      44.999   4.102   8.621  0.00  0.00    +0.000 C 
ENDBRANCH  21  22
ENDBRANCH  19  21
ENDBRANCH  14  15
ENDBRANCH   1  14
TORSDOF 7
ENDMDL
MODEL 7
REMARK VINA RESULT:    -6.292      3.108      4.734
REMARK INTER + INTRA:          -9.967
REMARK INTER:                  -9.313
REMARK INTRA:                  -0.654
REMARK UNBOUND:                -1.101
REMARK  Name = 
REMARK  7 active torsions:
REMARK  status: ('A' for Active; 'I' for Inactive)
REMARK    1  A    between atoms: C_2  and  C_4
REMARK    2  A    between atoms: C_7  and  O_8
REMARK    3  A    between atoms: O_8  and  C_9
REMARK    4  A    between atoms: C_9  and  C_10
REMARK    5  A    between atoms: C_10  and  C_11
REMARK    6  A    between atoms: C_15  and  O_16
REMARK    7  A    between atoms: O_16  and  C_17
REMARK                            x       y       z     vdW  Elec       q    Type
REMARK                         _______ _______ _______ _____ _____    ______ ____
ROOT
ATOM      1  C   UNL     1      44.728   5.268  11.311  0.00  0.00    +0.000 C 
ENDROOT
BRANCH   1   2
ATOM      2  O   UNL     1      44.008   4.746  10.184  0.00  0.00    +0.000 OA
BRANCH   2   6
ATOM      3  C   UNL     1      46.459   2.435   7.802  0.00  0.00    +0.000 A 
ATOM      4  C   UNL     1      46.437   3.821   7.626  0.00  0.00    +0.000 A 
ATOM      5  C   UNL     1      45.599   4.597   8.434  0.00  0.00    +0.000 A 
ATOM      6  C   UNL     1      44.819   3.957   9.384  0.00  0.00    +0.000 A 
ATOM      7  N   UNL     1      44.815   2.619   9.561  0.00  0.00    +0.000 NA
ATOM      8  C   UNL     1      45.624   1.887   8.763  0.00  0.00    +0.000 A 
BRANCH   3  10
ATOM      9  N   UNL     1      48.457   2.024   6.481  0.00  0.00    +0.000 N 
ATOM     10  C   UNL     1      47.305   1.517   7.011  0.00  0.00    +0.000 C 
ATOM     11  O   UNL     1      47.014   0.336   6.874  0.00  0.00    +0.000 OA
ATOM     12  H   UNL     1      49.083   1.351   6.056  0.00  0.00    +0.000 HD
ATOM     13  H   UNL     1      48.858   2.898   6.792  0.00  0.00    +0.000 HD
ENDBRANCH   3  10
ENDBRANCH   2   6
ENDBRANCH   1   2
BRANCH   1  14
ATOM     14  C   UNL     1      44.641   6.794  11.332  0.00  0.00    +0.000 C 
BRANCH  14  15
ATOM     15  C   UNL     1      45.975   7.408  11.686  0.00  0.00    +0.000 A 
ATOM     16  C   UNL     1      47.162   6.691  11.496  0.00  0.00    +0.000 A 
ATOM     17  C   UNL     1      48.397   7.284  11.770  0.00  0.00    +0.000 A 
ATOM     18  C   UNL     1      48.462   8.598  12.239  0.00  0.00    +0.000 A 
ATOM     19  C   UNL     1      47.288   9.321  12.432  0.00  0.00    +0.000 A 
ATOM     20  C   UNL     1      46.052   8.731  12.147  0.00  0.00    +0.000 A 
BRANCH  19  21
ATOM     21  O   UNL     1      47.236  10.628  12.852  0.00  0.00    +0.000 OA
BRANCH  21  22
ATOM     22  C   UNL     1      47.509  11.683  11.902  0.00  0.00    +0.000 C 
ATOM     23  C   UNL     1      46.383  12.033  10.903  0.00  0.00    +0.000 C 
ATOM     24  C   UNL     1      47.394  11.944   9.752  0.00  0.00    +0.000 C 
ATOM     25  C   UNL     1      48.368  11.232  10.696  0.00  0.00    +0.000 C 
ENDBRANCH  21  22
ENDBRANCH  19  21
ENDBRANCH  14  15
ENDBRANCH   1  14
TORSDOF 7
ENDMDL
MODEL 8
REMARK VINA RESULT:    -5.991      3.932      7.529
REMARK INTER + INTRA:          -9.543
REMARK INTER:                  -8.554
REMARK INTRA:                  -0.989
REMARK UNBOUND:                -1.101
REMARK  Name = 
REMARK  7 active torsions:
REMARK  status: ('A' for Active; 'I' for Inactive)
REMARK    1  A    between atoms: C_2  and  C_4
REMARK    2  A    between atoms: C_7  and  O_8
REMARK    3  A    between atoms: O_8  and  C_9
REMARK    4  A    between atoms: C_9  and  C_10
REMARK    5  A    between atoms: C_10  and  C_11
REMARK    6  A    between atoms: C_15  and  O_16
REMARK    7  A    between atoms: O_16  and  C_17
REMARK                            x       y       z     vdW  Elec       q    Type
REMARK                         _______ _______ _______ _____ _____    ______ ____
ROOT
ATOM      1  C   UNL     1      49.524   7.288  13.261  0.00  0.00    +0.000 C 
ENDROOT
BRANCH   1   2
ATOM      2  O   UNL     1      49.209   7.722  14.592  0.00  0.00    +0.000 OA
BRANCH   2   6
ATOM      3  C   UNL     1      48.040   4.598  17.020  0.00  0.00    +0.000 A 
ATOM      4  C   UNL     1      48.867   5.598  17.537  0.00  0.00    +0.000 A 
ATOM      5  C   UNL     1      49.264   6.651  16.706  0.00  0.00    +0.000 A 
ATOM      6  C   UNL     1      48.816   6.662  15.394  0.00  0.00    +0.000 A 
ATOM      7  N   UNL     1      48.028   5.699  14.871  0.00  0.00    +0.000 NA
ATOM      8  C   UNL     1      47.666   4.686  15.689  0.00  0.00    +0.000 A 
BRANCH   3  10
ATOM      9  N   UNL     1      48.256   3.107  18.926  0.00  0.00    +0.000 N 
ATOM     10  C   UNL     1      47.556   3.442  17.803  0.00  0.00    +0.000 C 
ATOM     11  O   UNL     1      46.540   2.835  17.488  0.00  0.00    +0.000 OA
ATOM     12  H   UNL     1      47.836   2.398  19.515  0.00  0.00    +0.000 HD
ATOM     13  H   UNL     1      48.922   3.733  19.357  0.00  0.00    +0.000 HD
ENDBRANCH   3  10
ENDBRANCH   2   6
ENDBRANCH   1   2
BRANCH   1  14
ATOM     14  C   UNL     1      49.001   8.296  12.239  0.00  0.00    +0.000 C 
BRANCH  14  15
ATOM     15  C   UNL     1      47.505   8.175  12.073  0.00  0.00    +0.000 A 
ATOM     16  C   UNL     1      46.677   9.291  12.246  0.00  0.00    +0.000 A 
ATOM     17  C   UNL     1      45.300   9.188  12.035  0.00  0.00    +0.000 A 
ATOM     18  C   UNL     1      44.732   7.971  11.650  0.00  0.00    +0.000 A 
ATOM     19  C   UNL     1      45.545   6.855  11.475  0.00  0.00    +0.000 A 
ATOM     20  C   UNL     1      46.926   6.961  11.675  0.00  0.00    +0.000 A 
BRANCH  19  21
ATOM     21  O   UNL     1      45.101   5.622  11.063  0.00  0.00    +0.000 OA
BRANCH  21  22
ATOM     22  C   UNL     1      44.355   4.799  11.987  0.00  0.00    +0.000 C 
ATOM     23  C   UNL     1      44.902   3.377  12.257  0.00  0.00    +0.000 C 
ATOM     24  C   UNL     1      43.503   2.804  11.996  0.00  0.00    +0.000 C 
ATOM     25  C   UNL     1      43.099   4.140  11.366  0.00  0.00    +0.000 C 
ENDBRANCH  21  22
ENDBRANCH  19  21
ENDBRANCH  14  15
ENDBRANCH   1  14
TORSDOF 7
ENDMDL
MODEL 9
REMARK VINA RESULT:    -5.988      4.139      8.155
REMARK INTER + INTRA:          -9.539
REMARK INTER:                  -9.203
REMARK INTRA:                  -0.336
REMARK UNBOUND:                -1.101
REMARK  Name = 
REMARK  7 active torsions:
REMARK  status: ('A' for Active; 'I' for Inactive)
REMARK    1  A    between atoms: C_2  and  C_4
REMARK    2  A    between atoms: C_7  and  O_8
REMARK    3  A    between atoms: O_8  and  C_9
REMARK    4  A    between atoms: C_9  and  C_10
REMARK    5  A    between atoms: C_10  and  C_11
REMARK    6  A    between atoms: C_15  and  O_16
REMARK    7  A    between atoms: O_16  and  C_17
REMARK                            x       y       z     vdW  Elec       q    Type
REMARK                         _______ _______ _______ _____ _____    ______ ____
ROOT
ATOM      1  C   UNL     1      47.276   4.172  15.901  0.00  0.00    +0.000 C 
ENDROOT
BRANCH   1   2
ATOM      2  O   UNL     1      47.568   2.930  16.559  0.00  0.00    +0.000 OA
BRANCH   2   6
ATOM      3  C   UNL     1      51.498   2.775  17.807  0.00  0.00    +0.000 A 
ATOM      4  C   UNL     1      50.713   3.882  18.140  0.00  0.00    +0.000 A 
ATOM      5  C   UNL     1      49.383   3.930  17.709  0.00  0.00    +0.000 A 
ATOM      6  C   UNL     1      48.893   2.869  16.963  0.00  0.00    +0.000 A 
ATOM      7  N   UNL     1      49.637   1.797  16.619  0.00  0.00    +0.000 NA
ATOM      8  C   UNL     1      50.922   1.777  17.038  0.00  0.00    +0.000 A 
BRANCH   3  10
ATOM      9  N   UNL     1      53.215   2.819  19.526  0.00  0.00    +0.000 N 
ATOM     10  C   UNL     1      52.910   2.614  18.210  0.00  0.00    +0.000 C 
ATOM     11  O   UNL     1      53.769   2.264  17.411  0.00  0.00    +0.000 OA
ATOM     12  H   UNL     1      54.159   2.578  19.804  0.00  0.00    +0.000 HD
ATOM     13  H   UNL     1      52.510   2.842  20.249  0.00  0.00    +0.000 HD
ENDBRANCH   3  10
ENDBRANCH   2   6
ENDBRANCH   1   2
BRANCH   1  14
ATOM     14  C   UNL     1      47.365   4.001  14.385  0.00  0.00    +0.000 C 
BRANCH  14  15
ATOM     15  C   UNL     1      46.545   5.049  13.670  0.00  0.00    +0.000 A 
ATOM     16  C   UNL     1      47.130   6.252  13.258  0.00  0.00    +0.000 A 
ATOM     17  C   UNL     1      46.383   7.194  12.548  0.00  0.00    +0.000 A 
ATOM     18  C   UNL     1      45.042   6.947  12.240  0.00  0.00    +0.000 A 
ATOM     19  C   UNL     1      44.450   5.754  12.645  0.00  0.00    +0.000 A 
ATOM     20  C   UNL     1      45.201   4.806  13.347  0.00  0.00    +0.000 A 
BRANCH  19  21
ATOM     21  O   UNL     1      43.154   5.392  12.365  0.00  0.00    +0.000 OA
BRANCH  21  22
ATOM     22  C   UNL     1      42.909   4.369  11.375  0.00  0.00    +0.000 C 
ATOM     23  C   UNL     1      43.455   2.954  11.679  0.00  0.00    +0.000 C 
ATOM     24  C   UNL     1      44.085   2.911  10.281  0.00  0.00    +0.000 C 
ATOM     25  C   UNL     1      43.874   4.424  10.166  0.00  0.00    +0.000 C 
ENDBRANCH  21  22
ENDBRANCH  19  21
ENDBRANCH  14  15
ENDBRANCH   1  14
TORSDOF 7
ENDMDL
