MODEL 1
REMARK VINA RESULT:    -7.663      0.000      0.000
REMARK INTER + INTRA:          -9.593
REMARK INTER:                  -9.455
REMARK INTRA:                  -0.138
REMARK UNBOUND:                -0.138
REMARK  Name = 
REMARK  4 active torsions:
REMARK  status: ('A' for Active; 'I' for Inactive)
REMARK    1  A    between atoms: C_2  and  C_3
REMARK    2  A    between atoms: C_8  and  N_9
REMARK    3  A    between atoms: N_9  and  C_10
REMARK    4  A    between atoms: C_10  and  C_11
REMARK                            x       y       z     vdW  Elec       q    Type
REMARK                         _______ _______ _______ _____ _____    ______ ____
ROOT
ATOM      1  C   UNL     1      46.064   5.853  12.429  0.00  0.00    +0.000 A 
ATOM      2  C   UNL     1      46.969   6.743  11.859  0.00  0.00    +0.000 A 
ATOM      3  C   UNL     1      48.133   7.019  12.554  0.00  0.00    +0.000 A 
ATOM      4  N   UNL     1      48.451   6.469  13.749  0.00  0.00    +0.000 NA
ATOM      5  C   UNL     1      47.604   5.569  14.291  0.00  0.00    +0.000 A 
ATOM      6  N   UNL     1      47.896   5.041  15.526  0.00  0.00    +0.000 N 
ATOM      7  C   UNL     1      47.521   3.690  15.937  0.00  0.00    +0.000 C 
ATOM      8  C   UNL     1      46.901   3.748  17.351  0.00  0.00    +0.000 C 
ATOM      9  N   UNL     1      47.786   4.389  18.350  0.00  0.00    +0.000 NA
ATOM     10  C   UNL     1      48.174   5.736  17.859  0.00  0.00    +0.000 C 
ATOM     11  C   UNL     1      48.800   5.742  16.439  0.00  0.00    +0.000 C 
ATOM     12  C   UNL     1      46.413   5.245  13.639  0.00  0.00    +0.000 A 
ATOM     13  H   UNL     1      48.635   3.830  18.420  0.00  0.00    +0.000 HD
ENDROOT
BRANCH   1  14
ATOM     14  C   UNL     1      44.707   5.607  11.817  0.00  0.00    +0.000 C 
BRANCH  14  15
ATOM     15  N   UNL     1      44.760   5.678  10.369  0.00  0.00    +0.000 N 
ATOM     16  H   UNL     1      45.301   6.467  10.015  0.00  0.00    +0.000 HD
BRANCH  15  22
ATOM     17  C   UNL     1      44.694   3.259   9.771  0.00  0.00    +0.000 A 
ATOM     18  C   UNL     1      45.111   2.279   8.856  0.00  0.00    +0.000 A 
ATOM     19  C   UNL     1      45.938   2.624   7.801  0.00  0.00    +0.000 A 
ATOM     20  C   UNL     1      46.333   3.942   7.710  0.00  0.00    +0.000 A 
ATOM     21  N   UNL     1      45.958   4.905   8.586  0.00  0.00    +0.000 NA
ATOM     22  C   UNL     1      45.136   4.576   9.613  0.00  0.00    +0.000 A 
BRANCH  17  24
ATOM     23  N   UNL     1      43.108   2.448  11.651  0.00  0.00    +0.000 NA
ATOM     24  C   UNL     1      43.815   2.837  10.813  0.00  0.00    +0.000 C 
ENDBRANCH  17  24
ENDBRANCH  15  22
ENDBRANCH  14  15
ENDBRANCH   1  14
TORSDOF 4
ENDMDL
MODEL 2
REMARK VINA RESULT:    -7.117      1.626      7.288
REMARK INTER + INTRA:          -8.919
REMARK INTER:                  -8.455
REMARK INTRA:                  -0.464
REMARK UNBOUND:                -0.138
REMARK  Name = 
REMARK  4 active torsions:
REMARK  status: ('A' for Active; 'I' for Inactive)
REMARK    1  A    between atoms: C_2  and  C_3
REMARK    2  A    between atoms: C_8  and  N_9
REMARK    3  A    between atoms: N_9  and  C_10
REMARK    4  A    between atoms: C_10  and  C_11
REMARK                            x       y       z     vdW  Elec       q    Type
REMARK                         _______ _______ _______ _____ _____    ______ ____
ROOT
ATOM      1  C   UNL     1      47.540   6.214  13.867  0.00  0.00    +0.000 A 
ATOM      2  C   UNL     1      48.059   7.127  12.955  0.00  0.00    +0.000 A 
ATOM      3  C   UNL     1      47.482   7.188  11.700  0.00  0.00    +0.000 A 
ATOM      4  N   UNL     1      46.438   6.421  11.307  0.00  0.00    +0.000 NA
ATOM      5  C   UNL     1      45.895   5.564  12.196  0.00  0.00    +0.000 A 
ATOM      6  N   UNL     1      44.866   4.748  11.792  0.00  0.00    +0.000 N 
ATOM      7  C   UNL     1      43.796   4.296  12.679  0.00  0.00    +0.000 C 
ATOM      8  C   UNL     1      43.586   2.779  12.481  0.00  0.00    +0.000 C 
ATOM      9  N   UNL     1      43.314   2.405  11.075  0.00  0.00    +0.000 NA
ATOM     10  C   UNL     1      44.405   2.930  10.216  0.00  0.00    +0.000 C 
ATOM     11  C   UNL     1      44.667   4.452  10.373  0.00  0.00    +0.000 C 
ATOM     12  C   UNL     1      46.430   5.456  13.482  0.00  0.00    +0.000 A 
ATOM     13  H   UNL     1      42.450   2.865  10.791  0.00  0.00    +0.000 HD
ENDROOT
BRANCH   1  14
ATOM     14  C   UNL     1      48.198   5.975  15.205  0.00  0.00    +0.000 C 
BRANCH  14  15
ATOM     15  N   UNL     1      47.411   5.075  16.027  0.00  0.00    +0.000 N 
ATOM     16  H   UNL     1      47.177   4.196  15.566  0.00  0.00    +0.000 HD
BRANCH  15  22
ATOM     17  C   UNL     1      48.553   3.622  17.700  0.00  0.00    +0.000 A 
ATOM     18  C   UNL     1      48.953   3.490  19.040  0.00  0.00    +0.000 A 
ATOM     19  C   UNL     1      48.632   4.475  19.959  0.00  0.00    +0.000 A 
ATOM     20  C   UNL     1      47.903   5.553  19.504  0.00  0.00    +0.000 A 
ATOM     21  N   UNL     1      47.491   5.699  18.222  0.00  0.00    +0.000 NA
ATOM     22  C   UNL     1      47.815   4.746  17.314  0.00  0.00    +0.000 A 
BRANCH  17  24
ATOM     23  N   UNL     1      49.307   1.768  16.058  0.00  0.00    +0.000 NA
ATOM     24  C   UNL     1      48.948   2.586  16.804  0.00  0.00    +0.000 C 
ENDBRANCH  17  24
ENDBRANCH  15  22
ENDBRANCH  14  15
ENDBRANCH   1  14
TORSDOF 4
ENDMDL
MODEL 3
REMARK VINA RESULT:    -7.086      1.686      2.872
REMARK INTER + INTRA:          -8.881
REMARK INTER:                  -8.517
REMARK INTRA:                  -0.364
REMARK UNBOUND:                -0.138
REMARK  Name = 
REMARK  4 active torsions:
REMARK  status: ('A' for Active; 'I' for Inactive)
REMARK    1  A    between atoms: C_2  and  C_3
REMARK    2  A    between atoms: C_8  and  N_9
REMARK    3  A    between atoms: N_9  and  C_10
REMARK    4  A    between atoms: C_10  and  C_11
REMARK                            x       y       z     vdW  Elec       q    Type
REMARK                         _______ _______ _______ _____ _____    ______ ____
ROOT
ATOM      1  C   UNL     1      46.318   6.193  12.266  0.00  0.00    +0.000 A 
ATOM      2  C   UNL     1      46.117   4.922  12.796  0.00  0.00    +0.000 A 
ATOM      3  C   UNL     1      46.817   4.578  13.938  0.00  0.00    +0.000 A 
ATOM      4  N   UNL     1      47.678   5.404  14.577  0.00  0.00    +0.000 NA
ATOM      5  C   UNL     1      47.848   6.655  14.101  0.00  0.00    +0.000 A 
ATOM      6  N   UNL     1      48.755   7.484  14.715  0.00  0.00    +0.000 N 
ATOM      7  C   UNL     1      48.605   8.936  14.787  0.00  0.00    +0.000 C 
ATOM      8  C   UNL     1      49.946   9.600  14.407  0.00  0.00    +0.000 C 
ATOM      9  N   UNL     1      51.082   9.135  15.233  0.00  0.00    +0.000 NA
ATOM     10  C   UNL     1      51.158   7.653  15.162  0.00  0.00    +0.000 C 
ATOM     11  C   UNL     1      49.836   6.929  15.530  0.00  0.00    +0.000 C 
ATOM     12  C   UNL     1      47.168   7.065  12.952  0.00  0.00    +0.000 A 
ATOM     13  H   UNL     1      50.889   9.387  16.202  0.00  0.00    +0.000 HD
ENDROOT
BRANCH   1  14
ATOM     14  C   UNL     1      45.712   6.602  10.945  0.00  0.00    +0.000 C 
BRANCH  14  15
ATOM     15  N   UNL     1      44.719   5.643  10.500  0.00  0.00    +0.000 N 
ATOM     16  H   UNL     1      43.898   6.070  10.071  0.00  0.00    +0.000 HD
BRANCH  15  22
ATOM     17  C   UNL     1      44.626   3.252   9.798  0.00  0.00    +0.000 A 
ATOM     18  C   UNL     1      45.017   2.311   8.831  0.00  0.00    +0.000 A 
ATOM     19  C   UNL     1      45.821   2.699   7.774  0.00  0.00    +0.000 A 
ATOM     20  C   UNL     1      46.221   4.018   7.732  0.00  0.00    +0.000 A 
ATOM     21  N   UNL     1      45.872   4.943   8.658  0.00  0.00    +0.000 NA
ATOM     22  C   UNL     1      45.072   4.573   9.687  0.00  0.00    +0.000 A 
BRANCH  17  24
ATOM     23  N   UNL     1      43.091   2.443  11.720  0.00  0.00    +0.000 NA
ATOM     24  C   UNL     1      43.769   2.789  10.840  0.00  0.00    +0.000 C 
ENDBRANCH  17  24
ENDBRANCH  15  22
ENDBRANCH  14  15
ENDBRANCH   1  14
TORSDOF 4
ENDMDL
MODEL 4
REMARK VINA RESULT:    -6.730      1.944      6.952
REMARK INTER + INTRA:          -8.442
REMARK INTER:                  -7.988
REMARK INTRA:                  -0.454
REMARK UNBOUND:                -0.138
REMARK  Name = 
REMARK  4 active torsions:
REMARK  status: ('A' for Active; 'I' for Inactive)
REMARK    1  A    between atoms: C_2  and  C_3
REMARK    2  A    between atoms: C_8  and  N_9
REMARK    3  A    between atoms: N_9  and  C_10
REMARK    4  A    between atoms: C_10  and  C_11
REMARK                            x       y       z     vdW  Elec       q    Type
REMARK                         _______ _______ _______ _____ _____    ______ ____
ROOT
ATOM      1  C   UNL     1      47.316   7.183  13.626  0.00  0.00    +0.000 A 
ATOM      2  C   UNL     1      47.113   8.445  13.078  0.00  0.00    +0.000 A 
ATOM      3  C   UNL     1      46.027   8.620  12.239  0.00  0.00    +0.000 A 
ATOM      4  N   UNL     1      45.145   7.643  11.926  0.00  0.00    +0.000 NA
ATOM      5  C   UNL     1      45.303   6.426  12.487  0.00  0.00    +0.000 A 
ATOM      6  N   UNL     1      44.440   5.415  12.139  0.00  0.00    +0.000 N 
ATOM      7  C   UNL     1      44.047   4.339  13.045  0.00  0.00    +0.000 C 
ATOM      8  C   UNL     1      44.151   2.990  12.299  0.00  0.00    +0.000 C 
ATOM      9  N   UNL     1      43.362   2.954  11.047  0.00  0.00    +0.000 NA
ATOM     10  C   UNL     1      43.768   4.095  10.187  0.00  0.00    +0.000 C 
ATOM     11  C   UNL     1      43.689   5.479  10.885  0.00  0.00    +0.000 C 
ATOM     12  C   UNL     1      46.378   6.184  13.345  0.00  0.00    +0.000 A 
ATOM     13  H   UNL     1      42.381   3.085  11.291  0.00  0.00    +0.000 HD
ENDROOT
BRANCH   1  14
ATOM     14  C   UNL     1      48.552   6.861  14.430  0.00  0.00    +0.000 C 
BRANCH  14  15
ATOM     15  N   UNL     1      48.209   6.349  15.743  0.00  0.00    +0.000 N 
ATOM     16  H   UNL     1      47.325   5.840  15.768  0.00  0.00    +0.000 HD
BRANCH  15  22
ATOM     17  C   UNL     1      48.866   4.377  17.120  0.00  0.00    +0.000 A 
ATOM     18  C   UNL     1      49.926   3.699  17.743  0.00  0.00    +0.000 A 
ATOM     19  C   UNL     1      51.206   4.225  17.698  0.00  0.00    +0.000 A 
ATOM     20  C   UNL     1      51.375   5.426  17.042  0.00  0.00    +0.000 A 
ATOM     21  N   UNL     1      50.368   6.109  16.446  0.00  0.00    +0.000 NA
ATOM     22  C   UNL     1      49.116   5.592  16.474  0.00  0.00    +0.000 A 
BRANCH  17  24
ATOM     23  N   UNL     1      46.555   3.216  17.245  0.00  0.00    +0.000 NA
ATOM     24  C   UNL     1      47.582   3.759  17.178  0.00  0.00    +0.000 C 
ENDBRANCH  17  24
ENDBRANCH  15  22
ENDBRANCH  14  15
ENDBRANCH   1  14
TORSDOF 4
ENDMDL
MODEL 5
REMARK VINA RESULT:    -6.664      1.175      2.376
REMARK INTER + INTRA:          -8.361
REMARK INTER:                  -7.853
REMARK INTRA:                  -0.508
REMARK UNBOUND:                -0.138
REMARK  Name = 
REMARK  4 active torsions:
REMARK  status: ('A' for Active; 'I' for Inactive)
REMARK    1  A    between atoms: C_2  and  C_3
REMARK    2  A    between atoms: C_8  and  N_9
REMARK    3  A    between atoms: N_9  and  C_10
REMARK    4  A    between atoms: C_10  and  C_11
REMARK                            x       y       z     vdW  Elec       q    Type
REMARK                         _______ _______ _______ _____ _____    ______ ____
ROOT
ATOM      1  C   UNL     1      47.150   6.955  12.751  0.00  0.00    +0.000 A 
ATOM      2  C   UNL     1      48.292   7.654  12.373  0.00  0.00    +0.000 A 
ATOM      3  C   UNL     1      49.395   7.593  13.205  0.00  0.00    +0.000 A 
ATOM      4  N   UNL     1      49.436   6.888  14.359  0.00  0.00    +0.000 NA
ATOM      5  C   UNL     1      48.351   6.168  14.715  0.00  0.00    +0.000 A 
ATOM      6  N   UNL     1      48.367   5.487  15.908  0.00  0.00    +0.000 N 
ATOM      7  C   UNL     1      47.655   4.231  16.132  0.00  0.00    +0.000 C 
ATOM      8  C   UNL     1      46.897   4.315  17.475  0.00  0.00    +0.000 C 
ATOM      9  N   UNL     1      47.773   4.648  18.620  0.00  0.00    +0.000 NA
ATOM     10  C   UNL     1      48.507   5.904  18.319  0.00  0.00    +0.000 C 
ATOM     11  C   UNL     1      49.286   5.881  16.977  0.00  0.00    +0.000 C 
ATOM     12  C   UNL     1      47.206   6.185  13.917  0.00  0.00    +0.000 A 
ATOM     13  H   UNL     1      48.463   3.903  18.714  0.00  0.00    +0.000 HD
ENDROOT
BRANCH   1  14
ATOM     14  C   UNL     1      45.857   7.083  11.984  0.00  0.00    +0.000 C 
BRANCH  14  15
ATOM     15  N   UNL     1      45.817   6.167  10.860  0.00  0.00    +0.000 N 
ATOM     16  H   UNL     1      46.738   5.865  10.542  0.00  0.00    +0.000 HD
BRANCH  15  22
ATOM     17  C   UNL     1      44.892   4.065   9.888  0.00  0.00    +0.000 A 
ATOM     18  C   UNL     1      44.109   2.924  10.126  0.00  0.00    +0.000 A 
ATOM     19  C   UNL     1      43.489   2.753  11.352  0.00  0.00    +0.000 A 
ATOM     20  C   UNL     1      43.664   3.745  12.294  0.00  0.00    +0.000 A 
ATOM     21  N   UNL     1      44.400   4.862  12.087  0.00  0.00    +0.000 NA
ATOM     22  C   UNL     1      45.022   5.028  10.894  0.00  0.00    +0.000 A 
BRANCH  17  24
ATOM     23  N   UNL     1      46.008   4.212   7.556  0.00  0.00    +0.000 NA
ATOM     24  C   UNL     1      45.528   4.158   8.614  0.00  0.00    +0.000 C 
ENDBRANCH  17  24
ENDBRANCH  15  22
ENDBRANCH  14  15
ENDBRANCH   1  14
TORSDOF 4
ENDMDL
MODEL 6
REMARK VINA RESULT:    -6.370      1.870      7.719
REMARK INTER + INTRA:          -7.998
REMARK INTER:                  -7.571
REMARK INTRA:                  -0.427
REMARK UNBOUND:                -0.138
REMARK  Name = 
REMARK  4 active torsions:
REMARK  status: ('A' for Active; 'I' for Inactive)
REMARK    1  A    between atoms: C_2  and  C_3
REMARK    2  A    between atoms: C_8  and  N_9
REMARK    3  A    between atoms: N_9  and  C_10
REMARK    4  A    between atoms: C_10  and  C_11
REMARK                            x       y       z     vdW  Elec       q    Type
REMARK                         _______ _______ _______ _____ _____    ______ ____
ROOT
ATOM      1  C   UNL     1      46.924   5.119  14.050  0.00  0.00    +0.000 A 
ATOM      2  C   UNL     1      47.662   6.289  13.904  0.00  0.00    +0.000 A 
ATOM      3  C   UNL     1      47.589   6.955  12.694  0.00  0.00    +0.000 A 
ATOM      4  N   UNL     1      46.836   6.545  11.647  0.00  0.00    +0.000 NA
ATOM      5  C   UNL     1      46.079   5.437  11.790  0.00  0.00    +0.000 A 
ATOM      6  N   UNL     1      45.348   4.987  10.717  0.00  0.00    +0.000 N 
ATOM      7  C   UNL     1      44.069   4.293  10.844  0.00  0.00    +0.000 C 
ATOM      8  C   UNL     1      44.080   3.048   9.929  0.00  0.00    +0.000 C 
ATOM      9  N   UNL     1      44.382   3.365   8.516  0.00  0.00    +0.000 NA
ATOM     10  C   UNL     1      45.664   4.111   8.451  0.00  0.00    +0.000 C 
ATOM     11  C   UNL     1      45.715   5.373   9.354  0.00  0.00    +0.000 C 
ATOM     12  C   UNL     1      46.106   4.720  12.988  0.00  0.00    +0.000 A 
ATOM     13  H   UNL     1      43.649   3.983   8.170  0.00  0.00    +0.000 HD
ENDROOT
BRANCH   1  14
ATOM     14  C   UNL     1      47.056   4.250  15.277  0.00  0.00    +0.000 C 
BRANCH  14  15
ATOM     15  N   UNL     1      47.538   5.011  16.414  0.00  0.00    +0.000 N 
ATOM     16  H   UNL     1      46.865   5.080  17.177  0.00  0.00    +0.000 HD
BRANCH  15  22
ATOM     17  C   UNL     1      49.535   5.576  17.795  0.00  0.00    +0.000 A 
ATOM     18  C   UNL     1      50.714   5.089  18.383  0.00  0.00    +0.000 A 
ATOM     19  C   UNL     1      51.093   3.772  18.185  0.00  0.00    +0.000 A 
ATOM     20  C   UNL     1      50.283   2.992  17.388  0.00  0.00    +0.000 A 
ATOM     21  N   UNL     1      49.149   3.439  16.797  0.00  0.00    +0.000 NA
ATOM     22  C   UNL     1      48.764   4.723  16.999  0.00  0.00    +0.000 A 
BRANCH  17  24
ATOM     23  N   UNL     1      48.887   8.041  18.251  0.00  0.00    +0.000 NA
ATOM     24  C   UNL     1      49.189   6.932  18.070  0.00  0.00    +0.000 C 
ENDBRANCH  17  24
ENDBRANCH  15  22
ENDBRANCH  14  15
ENDBRANCH   1  14
TORSDOF 4
ENDMDL
MODEL 7
REMARK VINA RESULT:    -6.355      2.474      3.107
REMARK INTER + INTRA:          -7.980
REMARK INTER:                  -7.285
REMARK INTRA:                  -0.695
REMARK UNBOUND:                -0.138
REMARK  Name = 
REMARK  4 active torsions:
REMARK  status: ('A' for Active; 'I' for Inactive)
REMARK    1  A    between atoms: C_2  and  C_3
REMARK    2  A    between atoms: C_8  and  N_9
REMARK    3  A    between atoms: N_9  and  C_10
REMARK    4  A    between atoms: C_10  and  C_11
REMARK                            x       y       z     vdW  Elec       q    Type
REMARK                         _______ _______ _______ _____ _____    ______ ____
ROOT
ATOM      1  C   UNL     1      48.032   7.290  13.260  0.00  0.00    +0.000 A 
ATOM      2  C   UNL     1      49.174   7.937  12.801  0.00  0.00    +0.000 A 
ATOM      3  C   UNL     1      50.265   8.006  13.647  0.00  0.00    +0.000 A 
ATOM      4  N   UNL     1      50.295   7.473  14.891  0.00  0.00    +0.000 NA
ATOM      5  C   UNL     1      49.211   6.802  15.332  0.00  0.00    +0.000 A 
ATOM      6  N   UNL     1      49.214   6.298  16.611  0.00  0.00    +0.000 N 
ATOM      7  C   UNL     1      48.508   5.081  17.003  0.00  0.00    +0.000 C 
ATOM      8  C   UNL     1      47.731   5.350  18.310  0.00  0.00    +0.000 C 
ATOM      9  N   UNL     1      48.589   5.850  19.407  0.00  0.00    +0.000 NA
ATOM     10  C   UNL     1      49.318   7.056  18.939  0.00  0.00    +0.000 C 
ATOM     11  C   UNL     1      50.116   6.849  17.623  0.00  0.00    +0.000 C 
ATOM     12  C   UNL     1      48.077   6.695  14.525  0.00  0.00    +0.000 A 
ATOM     13  H   UNL     1      49.282   5.132  19.614  0.00  0.00    +0.000 HD
ENDROOT
BRANCH   1  14
ATOM     14  C   UNL     1      46.748   7.295  12.467  0.00  0.00    +0.000 C 
BRANCH  14  15
ATOM     15  N   UNL     1      45.683   6.616  13.180  0.00  0.00    +0.000 N 
ATOM     16  H   UNL     1      44.981   7.246  13.568  0.00  0.00    +0.000 HD
BRANCH  15  22
ATOM     17  C   UNL     1      45.256   4.201  12.728  0.00  0.00    +0.000 A 
ATOM     18  C   UNL     1      44.390   3.268  12.134  0.00  0.00    +0.000 A 
ATOM     19  C   UNL     1      43.274   3.703  11.440  0.00  0.00    +0.000 A 
ATOM     20  C   UNL     1      43.074   5.065  11.351  0.00  0.00    +0.000 A 
ATOM     21  N   UNL     1      43.900   5.987  11.900  0.00  0.00    +0.000 NA
ATOM     22  C   UNL     1      44.986   5.568  12.594  0.00  0.00    +0.000 A 
BRANCH  17  24
ATOM     23  N   UNL     1      47.292   3.244  14.008  0.00  0.00    +0.000 NA
ATOM     24  C   UNL     1      46.365   3.680  13.456  0.00  0.00    +0.000 C 
ENDBRANCH  17  24
ENDBRANCH  15  22
ENDBRANCH  14  15
ENDBRANCH   1  14
TORSDOF 4
ENDMDL
MODEL 8
REMARK VINA RESULT:    -5.980      2.781      5.196
REMARK INTER + INTRA:          -7.516
REMARK INTER:                  -7.014
REMARK INTRA:                  -0.503
REMARK UNBOUND:                -0.138
REMARK  Name = 
REMARK  4 active torsions:
REMARK  status: ('A' for Active; 'I' for Inactive)
REMARK    1  A    between atoms: C_2  and  C_3
REMARK    2  A    between atoms: C_8  and  N_9
REMARK    3  A    between atoms: N_9  and  C_10
REMARK    4  A    between atoms: C_10  and  C_11
REMARK                            x       y       z     vdW  Elec       q    Type
REMARK                         _______ _______ _______ _____ _____    ______ ____
ROOT
ATOM      1  C   UNL     1      48.396   3.720  16.729  0.00  0.00    +0.000 A 
ATOM      2  C   UNL     1      48.868   2.412  16.715  0.00  0.00    +0.000 A 
ATOM      3  C   UNL     1      50.152   2.181  17.173  0.00  0.00    +0.000 A 
ATOM      4  N   UNL     1      50.975   3.148  17.644  0.00  0.00    +0.000 NA
ATOM      5  C   UNL     1      50.513   4.414  17.707  0.00  0.00    +0.000 A 
ATOM      6  N   UNL     1      51.356   5.409  18.139  0.00  0.00    +0.000 N 
ATOM      7  C   UNL     1      50.904   6.595  18.863  0.00  0.00    +0.000 C 
ATOM      8  C   UNL     1      51.566   7.845  18.242  0.00  0.00    +0.000 C 
ATOM      9  N   UNL     1      53.043   7.767  18.207  0.00  0.00    +0.000 NA
ATOM     10  C   UNL     1      53.445   6.522  17.505  0.00  0.00    +0.000 C 
ATOM     11  C   UNL     1      52.808   5.230  18.082  0.00  0.00    +0.000 C 
ATOM     12  C   UNL     1      49.224   4.713  17.262  0.00  0.00    +0.000 A 
ATOM     13  H   UNL     1      53.376   7.700  19.168  0.00  0.00    +0.000 HD
ENDROOT
BRANCH   1  14
ATOM     14  C   UNL     1      47.067   4.087  16.113  0.00  0.00    +0.000 C 
BRANCH  14  15
ATOM     15  N   UNL     1      47.007   3.699  14.717  0.00  0.00    +0.000 N 
ATOM     16  H   UNL     1      46.293   3.000  14.515  0.00  0.00    +0.000 HD
BRANCH  15  22
ATOM     17  C   UNL     1      45.807   4.910  12.898  0.00  0.00    +0.000 A 
ATOM     18  C   UNL     1      45.856   5.979  11.988  0.00  0.00    +0.000 A 
ATOM     19  C   UNL     1      46.984   6.778  11.917  0.00  0.00    +0.000 A 
ATOM     20  C   UNL     1      48.036   6.464  12.753  0.00  0.00    +0.000 A 
ATOM     21  N   UNL     1      48.022   5.431  13.629  0.00  0.00    +0.000 NA
ATOM     22  C   UNL     1      46.915   4.654  13.713  0.00  0.00    +0.000 A 
BRANCH  17  24
ATOM     23  N   UNL     1      43.638   3.499  12.997  0.00  0.00    +0.000 NA
ATOM     24  C   UNL     1      44.600   4.151  12.939  0.00  0.00    +0.000 C 
ENDBRANCH  17  24
ENDBRANCH  15  22
ENDBRANCH  14  15
ENDBRANCH   1  14
TORSDOF 4
ENDMDL
MODEL 9
REMARK VINA RESULT:    -5.852      2.375      4.951
REMARK INTER + INTRA:          -7.359
REMARK INTER:                  -6.832
REMARK INTRA:                  -0.527
REMARK UNBOUND:                -0.138
REMARK  Name = 
REMARK  4 active torsions:
REMARK  status: ('A' for Active; 'I' for Inactive)
REMARK    1  A    between atoms: C_2  and  C_3
REMARK    2  A    between atoms: C_8  and  N_9
REMARK    3  A    between atoms: N_9  and  C_10
REMARK    4  A    between atoms: C_10  and  C_11
REMARK                            x       y       z     vdW  Elec       q    Type
REMARK                         _______ _______ _______ _____ _____    ______ ____
ROOT
ATOM      1  C   UNL     1      47.870   3.594  16.259  0.00  0.00    +0.000 A 
ATOM      2  C   UNL     1      48.719   2.568  16.661  0.00  0.00    +0.000 A 
ATOM      3  C   UNL     1      49.464   2.756  17.811  0.00  0.00    +0.000 A 
ATOM      4  N   UNL     1      49.411   3.871  18.575  0.00  0.00    +0.000 NA
ATOM      5  C   UNL     1      48.557   4.856  18.223  0.00  0.00    +0.000 A 
ATOM      6  N   UNL     1      48.531   6.011  18.966  0.00  0.00    +0.000 N 
ATOM      7  C   UNL     1      47.331   6.824  19.156  0.00  0.00    +0.000 C 
ATOM      8  C   UNL     1      47.688   8.308  18.923  0.00  0.00    +0.000 C 
ATOM      9  N   UNL     1      48.799   8.782  19.778  0.00  0.00    +0.000 NA
ATOM     10  C   UNL     1      49.973   7.894  19.581  0.00  0.00    +0.000 C 
ATOM     11  C   UNL     1      49.675   6.386  19.797  0.00  0.00    +0.000 C 
ATOM     12  C   UNL     1      47.775   4.727  17.074  0.00  0.00    +0.000 A 
ATOM     13  H   UNL     1      48.506   8.695  20.750  0.00  0.00    +0.000 HD
ENDROOT
BRANCH   1  14
ATOM     14  C   UNL     1      47.133   3.539  14.943  0.00  0.00    +0.000 C 
BRANCH  14  15
ATOM     15  N   UNL     1      46.312   4.718  14.748  0.00  0.00    +0.000 N 
ATOM     16  H   UNL     1      46.619   5.527  15.288  0.00  0.00    +0.000 HD
BRANCH  15  22
ATOM     17  C   UNL     1      46.855   5.962  12.657  0.00  0.00    +0.000 A 
ATOM     18  C   UNL     1      46.439   6.274  11.352  0.00  0.00    +0.000 A 
ATOM     19  C   UNL     1      45.227   5.801  10.880  0.00  0.00    +0.000 A 
ATOM     20  C   UNL     1      44.463   5.043  11.742  0.00  0.00    +0.000 A 
ATOM     21  N   UNL     1      44.832   4.739  13.009  0.00  0.00    +0.000 NA
ATOM     22  C   UNL     1      46.025   5.186  13.473  0.00  0.00    +0.000 A 
BRANCH  17  24
ATOM     23  N   UNL     1      49.189   6.815  13.383  0.00  0.00    +0.000 NA
ATOM     24  C   UNL     1      48.130   6.455  13.063  0.00  0.00    +0.000 C 
ENDBRANCH  17  24
ENDBRANCH  15  22
ENDBRANCH  14  15
ENDBRANCH   1  14
TORSDOF 4
ENDMDL
