MODEL 1
REMARK VINA RESULT:    -7.069      0.000      0.000
REMARK INTER + INTRA:          -9.446
REMARK INTER:                  -8.722
REMARK INTRA:                  -0.724
REMARK UNBOUND:                -0.724
REMARK  Name = 
REMARK  4 active torsions:
REMARK  status: ('A' for Active; 'I' for Inactive)
REMARK    1  A    between atoms: C_4  and  O_5
REMARK    2  A    between atoms: O_5  and  C_6
REMARK    3  A    between atoms: C_6  and  C_7
REMARK    4  A    between atoms: C_11  and  C_12
REMARK                            x       y       z     vdW  Elec       q    Type
REMARK                         _______ _______ _______ _____ _____    ______ ____
ROOT
ATOM      1  C   UNL     1      45.113   5.099  12.195  0.00  0.00    +0.000 A 
ATOM      2  C   UNL     1      45.716   4.141  13.027  0.00  0.00    +0.000 A 
ATOM      3  C   UNL     1      46.974   4.342  13.590  0.00  0.00    +0.000 A 
ATOM      4  C   UNL     1      47.677   5.509  13.310  0.00  0.00    +0.000 A 
ATOM      5  C   UNL     1      47.130   6.504  12.486  0.00  0.00    +0.000 A 
ATOM      6  C   UNL     1      45.830   6.289  11.977  0.00  0.00    +0.000 A 
ENDROOT
BRANCH   5   7
ATOM      7  C   UNL     1      47.904   7.698  12.098  0.00  0.00    +0.000 A 
ATOM      8  C   UNL     1      49.247   7.626  11.704  0.00  0.00    +0.000 A 
ATOM      9  C   UNL     1      49.963   8.784  11.405  0.00  0.00    +0.000 A 
ATOM     10  C   UNL     1      49.311  10.001  11.492  0.00  0.00    +0.000 A 
ATOM     11  N   UNL     1      48.020  10.130  11.855  0.00  0.00    +0.000 NA
ATOM     12  C   UNL     1      47.356   8.984  12.151  0.00  0.00    +0.000 A 
ENDBRANCH   5   7
BRANCH   1  13
ATOM     13  C   UNL     1      43.794   4.805  11.485  0.00  0.00    +0.000 C 
ATOM     14  C   UNL     1      42.472   5.157  12.167  0.00  0.00    +0.000 C 
ATOM     15  C   UNL     1      42.975   6.000  11.043  0.00  0.00    +0.000 C 
BRANCH  13  16
ATOM     16  O   UNL     1      43.666   3.551  10.764  0.00  0.00    +0.000 OA
BRANCH  16  20
ATOM     17  C   UNL     1      46.271   2.926   7.654  0.00  0.00    +0.000 A 
ATOM     18  C   UNL     1      45.805   1.842   8.398  0.00  0.00    +0.000 A 
ATOM     19  C   UNL     1      44.902   2.066   9.429  0.00  0.00    +0.000 A 
ATOM     20  C   UNL     1      44.515   3.368   9.690  0.00  0.00    +0.000 A 
ATOM     21  N   UNL     1      44.910   4.432   8.956  0.00  0.00    +0.000 NA
ATOM     22  C   UNL     1      45.787   4.185   7.960  0.00  0.00    +0.000 A 
ENDBRANCH  16  20
ENDBRANCH  13  16
ENDBRANCH   1  13
TORSDOF 4
ENDMDL
MODEL 2
REMARK VINA RESULT:    -7.026      2.245      3.747
REMARK INTER + INTRA:          -9.393
REMARK INTER:                  -9.005
REMARK INTRA:                  -0.388
REMARK UNBOUND:                -0.724
REMARK  Name = 
REMARK  4 active torsions:
REMARK  status: ('A' for Active; 'I' for Inactive)
REMARK    1  A    between atoms: C_4  and  O_5
REMARK    2  A    between atoms: O_5  and  C_6
REMARK    3  A    between atoms: C_6  and  C_7
REMARK    4  A    between atoms: C_11  and  C_12
REMARK                            x       y       z     vdW  Elec       q    Type
REMARK                         _______ _______ _______ _____ _____    ______ ____
ROOT
ATOM      1  C   UNL     1      45.474   5.268  12.188  0.00  0.00    +0.000 A 
ATOM      2  C   UNL     1      46.200   6.287  11.547  0.00  0.00    +0.000 A 
ATOM      3  C   UNL     1      47.380   6.796  12.081  0.00  0.00    +0.000 A 
ATOM      4  C   UNL     1      47.854   6.314  13.296  0.00  0.00    +0.000 A 
ATOM      5  C   UNL     1      47.174   5.298  13.987  0.00  0.00    +0.000 A 
ATOM      6  C   UNL     1      46.011   4.768  13.388  0.00  0.00    +0.000 A 
ENDROOT
BRANCH   5   7
ATOM      7  C   UNL     1      47.608   4.849  15.322  0.00  0.00    +0.000 A 
ATOM      8  C   UNL     1      47.265   3.591  15.839  0.00  0.00    +0.000 A 
ATOM      9  C   UNL     1      47.641   3.228  17.131  0.00  0.00    +0.000 A 
ATOM     10  C   UNL     1      48.372   4.131  17.882  0.00  0.00    +0.000 A 
ATOM     11  N   UNL     1      48.739   5.347  17.434  0.00  0.00    +0.000 NA
ATOM     12  C   UNL     1      48.345   5.674  16.177  0.00  0.00    +0.000 A 
ENDBRANCH   5   7
BRANCH   1  13
ATOM     13  C   UNL     1      44.118   4.815  11.654  0.00  0.00    +0.000 C 
ATOM     14  C   UNL     1      42.852   5.103  12.460  0.00  0.00    +0.000 C 
ATOM     15  C   UNL     1      43.151   5.902  11.236  0.00  0.00    +0.000 C 
BRANCH  13  16
ATOM     16  O   UNL     1      44.027   3.506  11.031  0.00  0.00    +0.000 OA
BRANCH  16  20
ATOM     17  C   UNL     1      46.191   2.919   7.593  0.00  0.00    +0.000 A 
ATOM     18  C   UNL     1      45.840   1.827   8.387  0.00  0.00    +0.000 A 
ATOM     19  C   UNL     1      45.083   2.039   9.532  0.00  0.00    +0.000 A 
ATOM     20  C   UNL     1      44.724   3.336   9.851  0.00  0.00    +0.000 A 
ATOM     21  N   UNL     1      45.007   4.407   9.075  0.00  0.00    +0.000 NA
ATOM     22  C   UNL     1      45.743   4.172   7.968  0.00  0.00    +0.000 A 
ENDBRANCH  16  20
ENDBRANCH  13  16
ENDBRANCH   1  13
TORSDOF 4
ENDMDL
MODEL 3
REMARK VINA RESULT:    -6.758      2.236      6.226
REMARK INTER + INTRA:          -9.062
REMARK INTER:                  -8.427
REMARK INTRA:                  -0.635
REMARK UNBOUND:                -0.724
REMARK  Name = 
REMARK  4 active torsions:
REMARK  status: ('A' for Active; 'I' for Inactive)
REMARK    1  A    between atoms: C_4  and  O_5
REMARK    2  A    between atoms: O_5  and  C_6
REMARK    3  A    between atoms: C_6  and  C_7
REMARK    4  A    between atoms: C_11  and  C_12
REMARK                            x       y       z     vdW  Elec       q    Type
REMARK                         _______ _______ _______ _____ _____    ______ ____
ROOT
ATOM      1  C   UNL     1      44.436   4.325  10.761  0.00  0.00    +0.000 A 
ATOM      2  C   UNL     1      43.631   3.254  11.186  0.00  0.00    +0.000 A 
ATOM      3  C   UNL     1      43.691   2.003  10.580  0.00  0.00    +0.000 A 
ATOM      4  C   UNL     1      44.548   1.796   9.504  0.00  0.00    +0.000 A 
ATOM      5  C   UNL     1      45.377   2.825   9.031  0.00  0.00    +0.000 A 
ATOM      6  C   UNL     1      45.328   4.065   9.706  0.00  0.00    +0.000 A 
ENDROOT
BRANCH   5   7
ATOM      7  C   UNL     1      46.214   2.652   7.830  0.00  0.00    +0.000 A 
ATOM      8  C   UNL     1      46.250   3.599   6.797  0.00  0.00    +0.000 A 
ATOM      9  C   UNL     1      47.005   3.369   5.649  0.00  0.00    +0.000 A 
ATOM     10  C   UNL     1      47.728   2.194   5.561  0.00  0.00    +0.000 A 
ATOM     11  N   UNL     1      47.741   1.253   6.526  0.00  0.00    +0.000 NA
ATOM     12  C   UNL     1      46.984   1.502   7.624  0.00  0.00    +0.000 A 
ENDBRANCH   5   7
BRANCH   1  13
ATOM     13  C   UNL     1      44.263   5.721  11.352  0.00  0.00    +0.000 C 
ATOM     14  C   UNL     1      42.878   6.367  11.377  0.00  0.00    +0.000 C 
ATOM     15  C   UNL     1      43.467   5.825  12.636  0.00  0.00    +0.000 C 
BRANCH  13  16
ATOM     16  O   UNL     1      45.276   6.721  11.063  0.00  0.00    +0.000 OA
BRANCH  16  20
ATOM     17  C   UNL     1      47.978   7.665  14.005  0.00  0.00    +0.000 A 
ATOM     18  C   UNL     1      46.979   8.576  13.662  0.00  0.00    +0.000 A 
ATOM     19  C   UNL     1      46.055   8.231  12.685  0.00  0.00    +0.000 A 
ATOM     20  C   UNL     1      46.177   6.997  12.073  0.00  0.00    +0.000 A 
ATOM     21  N   UNL     1      47.104   6.074  12.418  0.00  0.00    +0.000 NA
ATOM     22  C   UNL     1      47.988   6.436  13.371  0.00  0.00    +0.000 A 
ENDBRANCH  16  20
ENDBRANCH  13  16
ENDBRANCH   1  13
TORSDOF 4
ENDMDL
MODEL 4
REMARK VINA RESULT:    -6.711      2.471      6.374
REMARK INTER + INTRA:          -9.004
REMARK INTER:                  -8.131
REMARK INTRA:                  -0.873
REMARK UNBOUND:                -0.724
REMARK  Name = 
REMARK  4 active torsions:
REMARK  status: ('A' for Active; 'I' for Inactive)
REMARK    1  A    between atoms: C_4  and  O_5
REMARK    2  A    between atoms: O_5  and  C_6
REMARK    3  A    between atoms: C_6  and  C_7
REMARK    4  A    between atoms: C_11  and  C_12
REMARK                            x       y       z     vdW  Elec       q    Type
REMARK                         _______ _______ _______ _____ _____    ______ ____
ROOT
ATOM      1  C   UNL     1      45.089   6.415  11.897  0.00  0.00    +0.000 A 
ATOM      2  C   UNL     1      43.777   6.142  12.319  0.00  0.00    +0.000 A 
ATOM      3  C   UNL     1      43.024   5.111  11.762  0.00  0.00    +0.000 A 
ATOM      4  C   UNL     1      43.562   4.338  10.739  0.00  0.00    +0.000 A 
ATOM      5  C   UNL     1      44.867   4.561  10.272  0.00  0.00    +0.000 A 
ATOM      6  C   UNL     1      45.619   5.580  10.898  0.00  0.00    +0.000 A 
ENDROOT
BRANCH   5   7
ATOM      7  C   UNL     1      45.413   3.819   9.121  0.00  0.00    +0.000 A 
ATOM      8  C   UNL     1      45.462   2.418   9.087  0.00  0.00    +0.000 A 
ATOM      9  C   UNL     1      46.043   1.754   8.008  0.00  0.00    +0.000 A 
ATOM     10  C   UNL     1      46.554   2.509   6.969  0.00  0.00    +0.000 A 
ATOM     11  N   UNL     1      46.525   3.856   6.942  0.00  0.00    +0.000 NA
ATOM     12  C   UNL     1      45.964   4.471   8.014  0.00  0.00    +0.000 A 
ENDBRANCH   5   7
BRANCH   1  13
ATOM     13  C   UNL     1      45.849   7.628  12.427  0.00  0.00    +0.000 C 
ATOM     14  C   UNL     1      47.016   7.428  13.393  0.00  0.00    +0.000 C 
ATOM     15  C   UNL     1      47.283   7.788  11.971  0.00  0.00    +0.000 C 
BRANCH  13  16
ATOM     16  O   UNL     1      45.087   8.807  12.801  0.00  0.00    +0.000 OA
BRANCH  16  20
ATOM     17  C   UNL     1      44.599  11.569   9.803  0.00  0.00    +0.000 A 
ATOM     18  C   UNL     1      43.756  10.460   9.869  0.00  0.00    +0.000 A 
ATOM     19  C   UNL     1      43.916   9.549  10.905  0.00  0.00    +0.000 A 
ATOM     20  C   UNL     1      44.924   9.771  11.825  0.00  0.00    +0.000 A 
ATOM     21  N   UNL     1      45.724  10.861  11.816  0.00  0.00    +0.000 NA
ATOM     22  C   UNL     1      45.547  11.731  10.798  0.00  0.00    +0.000 A 
ENDBRANCH  16  20
ENDBRANCH  13  16
ENDBRANCH   1  13
TORSDOF 4
ENDMDL
MODEL 5
REMARK VINA RESULT:    -6.628      1.614      2.541
REMARK INTER + INTRA:          -8.901
REMARK INTER:                  -8.964
REMARK INTRA:                   0.063
REMARK UNBOUND:                -0.724
REMARK  Name = 
REMARK  4 active torsions:
REMARK  status: ('A' for Active; 'I' for Inactive)
REMARK    1  A    between atoms: C_4  and  O_5
REMARK    2  A    between atoms: O_5  and  C_6
REMARK    3  A    between atoms: C_6  and  C_7
REMARK    4  A    between atoms: C_11  and  C_12
REMARK                            x       y       z     vdW  Elec       q    Type
REMARK                         _______ _______ _______ _____ _____    ______ ____
ROOT
ATOM      1  C   UNL     1      44.570   5.212  11.325  0.00  0.00    +0.000 A 
ATOM      2  C   UNL     1      43.652   6.264  11.162  0.00  0.00    +0.000 A 
ATOM      3  C   UNL     1      44.014   7.593  11.366  0.00  0.00    +0.000 A 
ATOM      4  C   UNL     1      45.308   7.904  11.768  0.00  0.00    +0.000 A 
ATOM      5  C   UNL     1      46.271   6.898  11.949  0.00  0.00    +0.000 A 
ATOM      6  C   UNL     1      45.883   5.567  11.680  0.00  0.00    +0.000 A 
ENDROOT
BRANCH   5   7
ATOM      7  C   UNL     1      47.615   7.202  12.472  0.00  0.00    +0.000 A 
ATOM      8  C   UNL     1      48.549   7.958  11.749  0.00  0.00    +0.000 A 
ATOM      9  C   UNL     1      49.832   8.171  12.251  0.00  0.00    +0.000 A 
ATOM     10  C   UNL     1      50.154   7.631  13.483  0.00  0.00    +0.000 A 
ATOM     11  N   UNL     1      49.295   6.906  14.227  0.00  0.00    +0.000 NA
ATOM     12  C   UNL     1      48.059   6.708  13.703  0.00  0.00    +0.000 A 
ENDBRANCH   5   7
BRANCH   1  13
ATOM     13  C   UNL     1      44.122   3.756  11.223  0.00  0.00    +0.000 C 
ATOM     14  C   UNL     1      44.829   2.687  12.056  0.00  0.00    +0.000 C 
ATOM     15  C   UNL     1      43.468   3.156  12.450  0.00  0.00    +0.000 C 
BRANCH  13  16
ATOM     16  O   UNL     1      43.788   3.229   9.912  0.00  0.00    +0.000 OA
BRANCH  16  20
ATOM     17  C   UNL     1      46.862   2.574   7.272  0.00  0.00    +0.000 A 
ATOM     18  C   UNL     1      46.365   3.865   7.453  0.00  0.00    +0.000 A 
ATOM     19  C   UNL     1      45.344   4.075   8.370  0.00  0.00    +0.000 A 
ATOM     20  C   UNL     1      44.845   2.984   9.057  0.00  0.00    +0.000 A 
ATOM     21  N   UNL     1      45.339   1.731   8.940  0.00  0.00    +0.000 NA
ATOM     22  C   UNL     1      46.331   1.555   8.043  0.00  0.00    +0.000 A 
ENDBRANCH  16  20
ENDBRANCH  13  16
ENDBRANCH   1  13
TORSDOF 4
ENDMDL
MODEL 6
REMARK VINA RESULT:    -6.594      1.675      2.127
REMARK INTER + INTRA:          -8.860
REMARK INTER:                  -8.341
REMARK INTRA:                  -0.519
REMARK UNBOUND:                -0.724
REMARK  Name = 
REMARK  4 active torsions:
REMARK  status: ('A' for Active; 'I' for Inactive)
REMARK    1  A    between atoms: C_4  and  O_5
REMARK    2  A    between atoms: O_5  and  C_6
REMARK    3  A    between atoms: C_6  and  C_7
REMARK    4  A    between atoms: C_11  and  C_12
REMARK                            x       y       z     vdW  Elec       q    Type
REMARK                         _______ _______ _______ _____ _____    ______ ____
ROOT
ATOM      1  C   UNL     1      45.220   5.804  12.640  0.00  0.00    +0.000 A 
ATOM      2  C   UNL     1      46.434   5.359  13.192  0.00  0.00    +0.000 A 
ATOM      3  C   UNL     1      47.473   6.237  13.487  0.00  0.00    +0.000 A 
ATOM      4  C   UNL     1      47.333   7.592  13.209  0.00  0.00    +0.000 A 
ATOM      5  C   UNL     1      46.146   8.099  12.656  0.00  0.00    +0.000 A 
ATOM      6  C   UNL     1      45.094   7.187  12.421  0.00  0.00    +0.000 A 
ENDROOT
BRANCH   5   7
ATOM      7  C   UNL     1      46.021   9.514  12.262  0.00  0.00    +0.000 A 
ATOM      8  C   UNL     1      47.135  10.350  12.100  0.00  0.00    +0.000 A 
ATOM      9  C   UNL     1      46.972  11.698  11.788  0.00  0.00    +0.000 A 
ATOM     10  C   UNL     1      45.687  12.185  11.627  0.00  0.00    +0.000 A 
ATOM     11  N   UNL     1      44.581  11.428  11.760  0.00  0.00    +0.000 NA
ATOM     12  C   UNL     1      44.775  10.123  12.077  0.00  0.00    +0.000 A 
ENDBRANCH   5   7
BRANCH   1  13
ATOM     13  C   UNL     1      44.145   4.812  12.204  0.00  0.00    +0.000 C 
ATOM     14  C   UNL     1      42.900   4.616  13.069  0.00  0.00    +0.000 C 
ATOM     15  C   UNL     1      42.806   5.391  11.798  0.00  0.00    +0.000 C 
BRANCH  13  16
ATOM     16  O   UNL     1      44.568   3.542  11.641  0.00  0.00    +0.000 OA
BRANCH  16  20
ATOM     17  C   UNL     1      45.745   3.449   7.710  0.00  0.00    +0.000 A 
ATOM     18  C   UNL     1      45.269   2.288   8.320  0.00  0.00    +0.000 A 
ATOM     19  C   UNL     1      44.848   2.342   9.642  0.00  0.00    +0.000 A 
ATOM     20  C   UNL     1      44.937   3.549  10.311  0.00  0.00    +0.000 A 
ATOM     21  N   UNL     1      45.348   4.700   9.732  0.00  0.00    +0.000 NA
ATOM     22  C   UNL     1      45.750   4.619   8.447  0.00  0.00    +0.000 A 
ENDBRANCH  16  20
ENDBRANCH  13  16
ENDBRANCH   1  13
TORSDOF 4
ENDMDL
MODEL 7
REMARK VINA RESULT:    -6.342      2.916      6.836
REMARK INTER + INTRA:          -8.549
REMARK INTER:                  -7.933
REMARK INTRA:                  -0.616
REMARK UNBOUND:                -0.724
REMARK  Name = 
REMARK  4 active torsions:
REMARK  status: ('A' for Active; 'I' for Inactive)
REMARK    1  A    between atoms: C_4  and  O_5
REMARK    2  A    between atoms: O_5  and  C_6
REMARK    3  A    between atoms: C_6  and  C_7
REMARK    4  A    between atoms: C_11  and  C_12
REMARK                            x       y       z     vdW  Elec       q    Type
REMARK                         _______ _______ _______ _____ _____    ______ ____
ROOT
ATOM      1  C   UNL     1      46.931   7.281  12.878  0.00  0.00    +0.000 A 
ATOM      2  C   UNL     1      46.026   8.356  12.866  0.00  0.00    +0.000 A 
ATOM      3  C   UNL     1      44.836   8.308  12.146  0.00  0.00    +0.000 A 
ATOM      4  C   UNL     1      44.530   7.181  11.390  0.00  0.00    +0.000 A 
ATOM      5  C   UNL     1      45.394   6.075  11.359  0.00  0.00    +0.000 A 
ATOM      6  C   UNL     1      46.565   6.139  12.145  0.00  0.00    +0.000 A 
ENDROOT
BRANCH   5   7
ATOM      7  C   UNL     1      45.134   4.918  10.483  0.00  0.00    +0.000 A 
ATOM      8  C   UNL     1      45.582   4.866   9.155  0.00  0.00    +0.000 A 
ATOM      9  C   UNL     1      45.263   3.781   8.340  0.00  0.00    +0.000 A 
ATOM     10  C   UNL     1      44.508   2.754   8.877  0.00  0.00    +0.000 A 
ATOM     11  N   UNL     1      44.060   2.745  10.148  0.00  0.00    +0.000 NA
ATOM     12  C   UNL     1      44.378   3.822  10.910  0.00  0.00    +0.000 A 
ENDBRANCH   5   7
BRANCH   1  13
ATOM     13  C   UNL     1      48.288   7.403  13.567  0.00  0.00    +0.000 C 
ATOM     14  C   UNL     1      49.360   8.316  12.971  0.00  0.00    +0.000 C 
ATOM     15  C   UNL     1      48.617   8.742  14.193  0.00  0.00    +0.000 C 
BRANCH  13  16
ATOM     16  O   UNL     1      48.897   6.200  14.104  0.00  0.00    +0.000 OA
BRANCH  16  20
ATOM     17  C   UNL     1      47.587   4.876  17.762  0.00  0.00    +0.000 A 
ATOM     18  C   UNL     1      48.393   6.012  17.683  0.00  0.00    +0.000 A 
ATOM     19  C   UNL     1      48.805   6.464  16.436  0.00  0.00    +0.000 A 
ATOM     20  C   UNL     1      48.413   5.752  15.318  0.00  0.00    +0.000 A 
ATOM     21  N   UNL     1      47.593   4.677  15.359  0.00  0.00    +0.000 NA
ATOM     22  C   UNL     1      47.207   4.260  16.583  0.00  0.00    +0.000 A 
ENDBRANCH  16  20
ENDBRANCH  13  16
ENDBRANCH   1  13
TORSDOF 4
ENDMDL
MODEL 8
REMARK VINA RESULT:    -6.206      2.901      7.050
REMARK INTER + INTRA:          -8.381
REMARK INTER:                  -7.546
REMARK INTRA:                  -0.835
REMARK UNBOUND:                -0.724
REMARK  Name = 
REMARK  4 active torsions:
REMARK  status: ('A' for Active; 'I' for Inactive)
REMARK    1  A    between atoms: C_4  and  O_5
REMARK    2  A    between atoms: O_5  and  C_6
REMARK    3  A    between atoms: C_6  and  C_7
REMARK    4  A    between atoms: C_11  and  C_12
REMARK                            x       y       z     vdW  Elec       q    Type
REMARK                         _______ _______ _______ _____ _____    ______ ____
ROOT
ATOM      1  C   UNL     1      47.437   7.623  12.433  0.00  0.00    +0.000 A 
ATOM      2  C   UNL     1      46.452   8.552  12.810  0.00  0.00    +0.000 A 
ATOM      3  C   UNL     1      45.108   8.368  12.497  0.00  0.00    +0.000 A 
ATOM      4  C   UNL     1      44.715   7.250  11.768  0.00  0.00    +0.000 A 
ATOM      5  C   UNL     1      45.651   6.286  11.361  0.00  0.00    +0.000 A 
ATOM      6  C   UNL     1      46.996   6.479  11.744  0.00  0.00    +0.000 A 
ENDROOT
BRANCH   5   7
ATOM      7  C   UNL     1      45.266   5.151  10.502  0.00  0.00    +0.000 A 
ATOM      8  C   UNL     1      45.720   5.021   9.182  0.00  0.00    +0.000 A 
ATOM      9  C   UNL     1      45.284   3.967   8.382  0.00  0.00    +0.000 A 
ATOM     10  C   UNL     1      44.406   3.047   8.926  0.00  0.00    +0.000 A 
ATOM     11  N   UNL     1      43.945   3.115  10.190  0.00  0.00    +0.000 NA
ATOM     12  C   UNL     1      44.379   4.161  10.938  0.00  0.00    +0.000 A 
ENDBRANCH   5   7
BRANCH   1  13
ATOM     13  C   UNL     1      48.917   7.906  12.673  0.00  0.00    +0.000 C 
ATOM     14  C   UNL     1      49.797   8.367  11.511  0.00  0.00    +0.000 C 
ATOM     15  C   UNL     1      49.365   9.348  12.549  0.00  0.00    +0.000 C 
BRANCH  13  16
ATOM     16  O   UNL     1      49.660   7.005  13.536  0.00  0.00    +0.000 OA
BRANCH  16  20
ATOM     17  C   UNL     1      48.501   6.791  17.468  0.00  0.00    +0.000 A 
ATOM     18  C   UNL     1      48.941   8.005  16.939  0.00  0.00    +0.000 A 
ATOM     19  C   UNL     1      49.302   8.068  15.599  0.00  0.00    +0.000 A 
ATOM     20  C   UNL     1      49.230   6.911  14.845  0.00  0.00    +0.000 A 
ATOM     21  N   UNL     1      48.762   5.734  15.316  0.00  0.00    +0.000 NA
ATOM     22  C   UNL     1      48.416   5.701  16.621  0.00  0.00    +0.000 A 
ENDBRANCH  16  20
ENDBRANCH  13  16
ENDBRANCH   1  13
TORSDOF 4
ENDMDL
MODEL 9
REMARK VINA RESULT:    -5.664      3.809      7.286
REMARK INTER + INTRA:          -7.712
REMARK INTER:                  -7.136
REMARK INTRA:                  -0.576
REMARK UNBOUND:                -0.724
REMARK  Name = 
REMARK  4 active torsions:
REMARK  status: ('A' for Active; 'I' for Inactive)
REMARK    1  A    between atoms: C_4  and  O_5
REMARK    2  A    between atoms: O_5  and  C_6
REMARK    3  A    between atoms: C_6  and  C_7
REMARK    4  A    between atoms: C_11  and  C_12
REMARK                            x       y       z     vdW  Elec       q    Type
REMARK                         _______ _______ _______ _____ _____    ______ ____
ROOT
ATOM      1  C   UNL     1      48.578   7.223  14.082  0.00  0.00    +0.000 A 
ATOM      2  C   UNL     1      49.261   7.772  12.982  0.00  0.00    +0.000 A 
ATOM      3  C   UNL     1      48.775   7.658  11.683  0.00  0.00    +0.000 A 
ATOM      4  C   UNL     1      47.594   6.961  11.445  0.00  0.00    +0.000 A 
ATOM      5  C   UNL     1      46.867   6.389  12.500  0.00  0.00    +0.000 A 
ATOM      6  C   UNL     1      47.362   6.572  13.810  0.00  0.00    +0.000 A 
ENDROOT
BRANCH   5   7
ATOM      7  C   UNL     1      45.671   5.562  12.254  0.00  0.00    +0.000 A 
ATOM      8  C   UNL     1      44.947   5.627  11.055  0.00  0.00    +0.000 A 
ATOM      9  C   UNL     1      43.786   4.875  10.885  0.00  0.00    +0.000 A 
ATOM     10  C   UNL     1      43.376   4.055  11.920  0.00  0.00    +0.000 A 
ATOM     11  N   UNL     1      44.036   3.944  13.089  0.00  0.00    +0.000 NA
ATOM     12  C   UNL     1      45.155   4.699  13.227  0.00  0.00    +0.000 A 
ENDBRANCH   5   7
BRANCH   1  13
ATOM     13  C   UNL     1      49.192   7.246  15.479  0.00  0.00    +0.000 C 
ATOM     14  C   UNL     1      49.788   8.545  16.023  0.00  0.00    +0.000 C 
ATOM     15  C   UNL     1      48.469   8.064  16.528  0.00  0.00    +0.000 C 
BRANCH  13  16
ATOM     16  O   UNL     1      49.999   6.113  15.895  0.00  0.00    +0.000 OA
BRANCH  16  20
ATOM     17  C   UNL     1      48.321   3.348  18.422  0.00  0.00    +0.000 A 
ATOM     18  C   UNL     1      49.302   4.218  18.898  0.00  0.00    +0.000 A 
ATOM     19  C   UNL     1      49.840   5.166  18.039  0.00  0.00    +0.000 A 
ATOM     20  C   UNL     1      49.392   5.196  16.731  0.00  0.00    +0.000 A 
ATOM     21  N   UNL     1      48.408   4.400  16.254  0.00  0.00    +0.000 NA
ATOM     22  C   UNL     1      47.902   3.488  17.111  0.00  0.00    +0.000 A 
ENDBRANCH  16  20
ENDBRANCH  13  16
ENDBRANCH   1  13
TORSDOF 4
ENDMDL
