MODEL 1
REMARK VINA RESULT:    -8.916      0.000      0.000
REMARK INTER + INTRA:         -13.285
REMARK INTER:                 -12.564
REMARK INTRA:                  -0.721
REMARK UNBOUND:                -0.721
REMARK  Name = 
REMARK  7 active torsions:
REMARK  status: ('A' for Active; 'I' for Inactive)
REMARK    1  A    between atoms: C_2  and  C_3
REMARK    2  A    between atoms: C_2  and  C_19
REMARK    3  A    between atoms: C_3  and  C_4
REMARK    4  A    between atoms: C_4  and  C_5
REMARK    5  A    between atoms: C_8  and  C_9
REMARK    6  A    between atoms: C_9  and  N_10
REMARK    7  A    between atoms: N_10  and  C_11
REMARK                            x       y       z     vdW  Elec       q    Type
REMARK                         _______ _______ _______ _____ _____    ______ ____
ROOT
ATOM      1  C   UNL     1      46.897   4.962  14.444  0.00  0.00    +0.000 C 
ENDROOT
BRANCH   1   2
ATOM      2  C   UNL     1      46.235   4.754  13.103  0.00  0.00    +0.000 A 
ATOM      3  C   UNL     1      45.597   3.544  12.798  0.00  0.00    +0.000 A 
ATOM      4  C   UNL     1      45.003   3.350  11.550  0.00  0.00    +0.000 A 
ATOM      5  C   UNL     1      45.017   4.368  10.586  0.00  0.00    +0.000 A 
ATOM      6  C   UNL     1      45.640   5.584  10.897  0.00  0.00    +0.000 A 
ATOM      7  C   UNL     1      46.242   5.774  12.144  0.00  0.00    +0.000 A 
BRANCH   5   8
ATOM      8  C   UNL     1      44.419   4.137   9.220  0.00  0.00    +0.000 C 
BRANCH   8   9
ATOM      9  N   UNL     1      45.364   4.467   8.154  0.00  0.00    +0.000 NA
ATOM     10  H   UNL     1      46.164   4.946   8.570  0.00  0.00    +0.000 HD
BRANCH   9  11
ATOM     11  C   UNL     1      45.826   3.294   7.397  0.00  0.00    +0.000 C 
ATOM     12  C   UNL     1      46.110   2.152   8.383  0.00  0.00    +0.000 C 
ATOM     13  C   UNL     1      46.704   0.948   7.662  0.00  0.00    +0.000 C 
ATOM     14  O   UNL     1      47.879   1.313   6.941  0.00  0.00    +0.000 OA
ATOM     15  C   UNL     1      47.613   2.291   5.940  0.00  0.00    +0.000 C 
ATOM     16  C   UNL     1      47.084   3.574   6.562  0.00  0.00    +0.000 C 
ENDBRANCH   9  11
ENDBRANCH   8   9
ENDBRANCH   5   8
ENDBRANCH   1   2
BRANCH   1  17
ATOM     17  C   UNL     1      47.367   3.645  15.059  0.00  0.00    +0.000 C 
BRANCH  17  19
ATOM     18  O   UNL     1      46.465   3.369  17.266  0.00  0.00    +0.000 OA
ATOM     19  C   UNL     1      47.423   3.710  16.576  0.00  0.00    +0.000 C 
BRANCH  19  20
ATOM     20  C   UNL     1      48.645   4.245  17.190  0.00  0.00    +0.000 A 
ATOM     21  C   UNL     1      48.751   5.543  17.663  0.00  0.00    +0.000 A 
ATOM     22  S   UNL     1      50.245   5.859  18.429  0.00  0.00    +0.000 S 
ATOM     23  C   UNL     1      50.801   4.280  18.123  0.00  0.00    +0.000 A 
ATOM     24  N   UNL     1      52.033   3.878  18.535  0.00  0.00    +0.000 NA
ATOM     25  C   UNL     1      52.317   2.654  18.236  0.00  0.00    +0.000 A 
ATOM     26  N   UNL     1      51.489   1.803  17.548  0.00  0.00    +0.000 N 
ATOM     27  C   UNL     1      50.275   2.193  17.029  0.00  0.00    +0.000 A 
ATOM     28  O   UNL     1      49.667   1.474  16.245  0.00  0.00    +0.000 OA
ATOM     29  C   UNL     1      49.873   3.533  17.422  0.00  0.00    +0.000 A 
ATOM     30  H   UNL     1      51.799   0.879  17.284  0.00  0.00    +0.000 HD
ENDBRANCH  19  20
ENDBRANCH  17  19
ENDBRANCH   1  17
TORSDOF 7
ENDMDL
MODEL 2
REMARK VINA RESULT:    -8.413      2.296      3.077
REMARK INTER + INTRA:         -12.577
REMARK INTER:                 -11.093
REMARK INTRA:                  -1.484
REMARK UNBOUND:                -0.721
REMARK  Name = 
REMARK  7 active torsions:
REMARK  status: ('A' for Active; 'I' for Inactive)
REMARK    1  A    between atoms: C_2  and  C_3
REMARK    2  A    between atoms: C_2  and  C_19
REMARK    3  A    between atoms: C_3  and  C_4
REMARK    4  A    between atoms: C_4  and  C_5
REMARK    5  A    between atoms: C_8  and  C_9
REMARK    6  A    between atoms: C_9  and  N_10
REMARK    7  A    between atoms: N_10  and  C_11
REMARK                            x       y       z     vdW  Elec       q    Type
REMARK                         _______ _______ _______ _____ _____    ______ ____
ROOT
ATOM      1  C   UNL     1      45.973   7.498  13.261  0.00  0.00    +0.000 C 
ENDROOT
BRANCH   1   2
ATOM      2  C   UNL     1      45.573   6.396  12.310  0.00  0.00    +0.000 A 
ATOM      3  C   UNL     1      46.074   6.359  11.002  0.00  0.00    +0.000 A 
ATOM      4  C   UNL     1      45.687   5.349  10.121  0.00  0.00    +0.000 A 
ATOM      5  C   UNL     1      44.804   4.342  10.533  0.00  0.00    +0.000 A 
ATOM      6  C   UNL     1      44.315   4.368  11.846  0.00  0.00    +0.000 A 
ATOM      7  C   UNL     1      44.697   5.385  12.725  0.00  0.00    +0.000 A 
BRANCH   5   8
ATOM      8  C   UNL     1      44.347   3.280   9.563  0.00  0.00    +0.000 C 
BRANCH   8   9
ATOM      9  N   UNL     1      44.535   3.700   8.175  0.00  0.00    +0.000 NA
ATOM     10  H   UNL     1      44.912   4.648   8.173  0.00  0.00    +0.000 HD
BRANCH   9  11
ATOM     11  C   UNL     1      45.424   2.811   7.411  0.00  0.00    +0.000 C 
ATOM     12  C   UNL     1      45.890   1.672   8.329  0.00  0.00    +0.000 C 
ATOM     13  C   UNL     1      46.908   0.787   7.620  0.00  0.00    +0.000 C 
ATOM     14  O   UNL     1      48.013   1.555   7.147  0.00  0.00    +0.000 OA
ATOM     15  C   UNL     1      47.614   2.544   6.203  0.00  0.00    +0.000 C 
ATOM     16  C   UNL     1      46.648   3.537   6.833  0.00  0.00    +0.000 C 
ENDBRANCH   9  11
ENDBRANCH   8   9
ENDBRANCH   5   8
ENDBRANCH   1   2
BRANCH   1  17
ATOM     17  C   UNL     1      47.417   7.945  13.042  0.00  0.00    +0.000 C 
BRANCH  17  19
ATOM     18  O   UNL     1      49.068   6.233  12.715  0.00  0.00    +0.000 OA
ATOM     19  C   UNL     1      48.416   6.901  13.514  0.00  0.00    +0.000 C 
BRANCH  19  20
ATOM     20  C   UNL     1      48.537   6.680  14.961  0.00  0.00    +0.000 A 
ATOM     21  C   UNL     1      49.131   7.591  15.820  0.00  0.00    +0.000 A 
ATOM     22  S   UNL     1      49.033   7.129  17.462  0.00  0.00    +0.000 S 
ATOM     23  C   UNL     1      48.220   5.687  17.066  0.00  0.00    +0.000 A 
ATOM     24  N   UNL     1      47.828   4.814  18.033  0.00  0.00    +0.000 NA
ATOM     25  C   UNL     1      47.221   3.767  17.584  0.00  0.00    +0.000 A 
ATOM     26  N   UNL     1      46.985   3.504  16.258  0.00  0.00    +0.000 N 
ATOM     27  C   UNL     1      47.447   4.308  15.241  0.00  0.00    +0.000 A 
ATOM     28  O   UNL     1      47.404   3.934  14.075  0.00  0.00    +0.000 OA
ATOM     29  C   UNL     1      48.053   5.546  15.701  0.00  0.00    +0.000 A 
ATOM     30  H   UNL     1      46.567   2.632  15.969  0.00  0.00    +0.000 HD
ENDBRANCH  19  20
ENDBRANCH  17  19
ENDBRANCH   1  17
TORSDOF 7
ENDMDL
MODEL 3
REMARK VINA RESULT:    -7.831      1.431      2.080
REMARK INTER + INTRA:         -11.757
REMARK INTER:                 -10.933
REMARK INTRA:                  -0.823
REMARK UNBOUND:                -0.721
REMARK  Name = 
REMARK  7 active torsions:
REMARK  status: ('A' for Active; 'I' for Inactive)
REMARK    1  A    between atoms: C_2  and  C_3
REMARK    2  A    between atoms: C_2  and  C_19
REMARK    3  A    between atoms: C_3  and  C_4
REMARK    4  A    between atoms: C_4  and  C_5
REMARK    5  A    between atoms: C_8  and  C_9
REMARK    6  A    between atoms: C_9  and  N_10
REMARK    7  A    between atoms: N_10  and  C_11
REMARK                            x       y       z     vdW  Elec       q    Type
REMARK                         _______ _______ _______ _____ _____    ______ ____
ROOT
ATOM      1  C   UNL     1      46.993   4.941  14.506  0.00  0.00    +0.000 C 
ENDROOT
BRANCH   1   2
ATOM      2  C   UNL     1      46.301   4.716  13.183  0.00  0.00    +0.000 A 
ATOM      3  C   UNL     1      45.692   3.489  12.892  0.00  0.00    +0.000 A 
ATOM      4  C   UNL     1      45.070   3.279  11.661  0.00  0.00    +0.000 A 
ATOM      5  C   UNL     1      45.027   4.299  10.700  0.00  0.00    +0.000 A 
ATOM      6  C   UNL     1      45.622   5.533  10.996  0.00  0.00    +0.000 A 
ATOM      7  C   UNL     1      46.252   5.738  12.227  0.00  0.00    +0.000 A 
BRANCH   5   8
ATOM      8  C   UNL     1      44.399   4.053   9.349  0.00  0.00    +0.000 C 
BRANCH   8   9
ATOM      9  N   UNL     1      45.293   4.441   8.259  0.00  0.00    +0.000 NA
ATOM     10  H   UNL     1      46.070   4.971   8.654  0.00  0.00    +0.000 HD
BRANCH   9  11
ATOM     11  C   UNL     1      45.811   3.298   7.492  0.00  0.00    +0.000 C 
ATOM     12  C   UNL     1      45.940   2.091   8.433  0.00  0.00    +0.000 C 
ATOM     13  C   UNL     1      46.583   0.911   7.715  0.00  0.00    +0.000 C 
ATOM     14  O   UNL     1      47.847   1.274   7.164  0.00  0.00    +0.000 OA
ATOM     15  C   UNL     1      47.732   2.317   6.201  0.00  0.00    +0.000 C 
ATOM     16  C   UNL     1      47.168   3.581   6.833  0.00  0.00    +0.000 C 
ENDBRANCH   9  11
ENDBRANCH   8   9
ENDBRANCH   5   8
ENDBRANCH   1   2
BRANCH   1  17
ATOM     17  C   UNL     1      47.303   3.626  15.219  0.00  0.00    +0.000 C 
BRANCH  17  19
ATOM     18  O   UNL     1      46.744   4.079  17.509  0.00  0.00    +0.000 OA
ATOM     19  C   UNL     1      47.626   3.835  16.689  0.00  0.00    +0.000 C 
BRANCH  19  20
ATOM     20  C   UNL     1      49.038   3.787  17.090  0.00  0.00    +0.000 A 
ATOM     21  C   UNL     1      49.720   2.605  17.328  0.00  0.00    +0.000 A 
ATOM     22  S   UNL     1      51.377   2.841  17.667  0.00  0.00    +0.000 S 
ATOM     23  C   UNL     1      51.222   4.530  17.533  0.00  0.00    +0.000 A 
ATOM     24  N   UNL     1      52.295   5.349  17.701  0.00  0.00    +0.000 NA
ATOM     25  C   UNL     1      52.028   6.605  17.567  0.00  0.00    +0.000 A 
ATOM     26  N   UNL     1      50.784   7.118  17.295  0.00  0.00    +0.000 N 
ATOM     27  C   UNL     1      49.653   6.337  17.211  0.00  0.00    +0.000 A 
ATOM     28  O   UNL     1      48.539   6.846  17.182  0.00  0.00    +0.000 OA
ATOM     29  C   UNL     1      49.921   4.910  17.262  0.00  0.00    +0.000 A 
ATOM     30  H   UNL     1      50.628   8.115  17.272  0.00  0.00    +0.000 HD
ENDBRANCH  19  20
ENDBRANCH  17  19
ENDBRANCH   1  17
TORSDOF 7
ENDMDL
MODEL 4
REMARK VINA RESULT:    -7.595      5.235      6.984
REMARK INTER + INTRA:         -11.425
REMARK INTER:                  -9.842
REMARK INTRA:                  -1.583
REMARK UNBOUND:                -0.721
REMARK  Name = 
REMARK  7 active torsions:
REMARK  status: ('A' for Active; 'I' for Inactive)
REMARK    1  A    between atoms: C_2  and  C_3
REMARK    2  A    between atoms: C_2  and  C_19
REMARK    3  A    between atoms: C_3  and  C_4
REMARK    4  A    between atoms: C_4  and  C_5
REMARK    5  A    between atoms: C_8  and  C_9
REMARK    6  A    between atoms: C_9  and  N_10
REMARK    7  A    between atoms: N_10  and  C_11
REMARK                            x       y       z     vdW  Elec       q    Type
REMARK                         _______ _______ _______ _____ _____    ______ ____
ROOT
ATOM      1  C   UNL     1      48.437   7.065  13.233  0.00  0.00    +0.000 C 
ENDROOT
BRANCH   1   2
ATOM      2  C   UNL     1      47.324   6.314  12.541  0.00  0.00    +0.000 A 
ATOM      3  C   UNL     1      46.657   5.265  13.186  0.00  0.00    +0.000 A 
ATOM      4  C   UNL     1      45.643   4.562  12.535  0.00  0.00    +0.000 A 
ATOM      5  C   UNL     1      45.259   4.904  11.232  0.00  0.00    +0.000 A 
ATOM      6  C   UNL     1      45.914   5.965  10.591  0.00  0.00    +0.000 A 
ATOM      7  C   UNL     1      46.936   6.663  11.241  0.00  0.00    +0.000 A 
BRANCH   5   8
ATOM      8  C   UNL     1      44.197   4.109  10.512  0.00  0.00    +0.000 C 
BRANCH   8   9
ATOM      9  N   UNL     1      44.141   4.448   9.090  0.00  0.00    +0.000 NA
ATOM     10  H   UNL     1      44.597   5.351   8.956  0.00  0.00    +0.000 HD
BRANCH   9  11
ATOM     11  C   UNL     1      44.769   3.440   8.223  0.00  0.00    +0.000 C 
ATOM     12  C   UNL     1      45.142   2.219   9.077  0.00  0.00    +0.000 C 
ATOM     13  C   UNL     1      45.904   1.191   8.250  0.00  0.00    +0.000 C 
ATOM     14  O   UNL     1      47.058   1.773   7.648  0.00  0.00    +0.000 OA
ATOM     15  C   UNL     1      46.722   2.835   6.760  0.00  0.00    +0.000 C 
ATOM     16  C   UNL     1      46.020   3.962   7.502  0.00  0.00    +0.000 C 
ENDBRANCH   9  11
ENDBRANCH   8   9
ENDBRANCH   5   8
ENDBRANCH   1   2
BRANCH   1  17
ATOM     17  C   UNL     1      48.882   8.290  12.435  0.00  0.00    +0.000 C 
BRANCH  17  19
ATOM     18  O   UNL     1      48.459   9.840  14.218  0.00  0.00    +0.000 OA
ATOM     19  C   UNL     1      48.340   9.582  13.022  0.00  0.00    +0.000 C 
BRANCH  19  20
ATOM     20  C   UNL     1      47.623  10.492  12.120  0.00  0.00    +0.000 A 
ATOM     21  C   UNL     1      48.239  11.535  11.447  0.00  0.00    +0.000 A 
ATOM     22  S   UNL     1      47.189  12.359  10.380  0.00  0.00    +0.000 S 
ATOM     23  C   UNL     1      45.878  11.363  10.810  0.00  0.00    +0.000 A 
ATOM     24  N   UNL     1      44.654  11.531  10.242  0.00  0.00    +0.000 NA
ATOM     25  C   UNL     1      43.758  10.701  10.662  0.00  0.00    +0.000 A 
ATOM     26  N   UNL     1      43.970   9.731  11.610  0.00  0.00    +0.000 N 
ATOM     27  C   UNL     1      45.164   9.587  12.281  0.00  0.00    +0.000 A 
ATOM     28  O   UNL     1      45.249   8.858  13.262  0.00  0.00    +0.000 OA
ATOM     29  C   UNL     1      46.228  10.436  11.773  0.00  0.00    +0.000 A 
ATOM     30  H   UNL     1      43.209   9.160  11.946  0.00  0.00    +0.000 HD
ENDBRANCH  19  20
ENDBRANCH  17  19
ENDBRANCH   1  17
TORSDOF 7
ENDMDL
MODEL 5
REMARK VINA RESULT:    -7.558      2.133      2.615
REMARK INTER + INTRA:         -11.372
REMARK INTER:                 -10.307
REMARK INTRA:                  -1.065
REMARK UNBOUND:                -0.721
REMARK  Name = 
REMARK  7 active torsions:
REMARK  status: ('A' for Active; 'I' for Inactive)
REMARK    1  A    between atoms: C_2  and  C_3
REMARK    2  A    between atoms: C_2  and  C_19
REMARK    3  A    between atoms: C_3  and  C_4
REMARK    4  A    between atoms: C_4  and  C_5
REMARK    5  A    between atoms: C_8  and  C_9
REMARK    6  A    between atoms: C_9  and  N_10
REMARK    7  A    between atoms: N_10  and  C_11
REMARK                            x       y       z     vdW  Elec       q    Type
REMARK                         _______ _______ _______ _____ _____    ______ ____
ROOT
ATOM      1  C   UNL     1      47.629   5.417  14.481  0.00  0.00    +0.000 C 
ENDROOT
BRANCH   1   2
ATOM      2  C   UNL     1      46.682   5.214  13.322  0.00  0.00    +0.000 A 
ATOM      3  C   UNL     1      45.844   4.093  13.267  0.00  0.00    +0.000 A 
ATOM      4  C   UNL     1      44.985   3.902  12.185  0.00  0.00    +0.000 A 
ATOM      5  C   UNL     1      44.930   4.836  11.142  0.00  0.00    +0.000 A 
ATOM      6  C   UNL     1      45.756   5.967  11.204  0.00  0.00    +0.000 A 
ATOM      7  C   UNL     1      46.623   6.153  12.284  0.00  0.00    +0.000 A 
BRANCH   5   8
ATOM      8  C   UNL     1      44.038   4.600   9.948  0.00  0.00    +0.000 C 
BRANCH   8   9
ATOM      9  N   UNL     1      43.993   3.186   9.578  0.00  0.00    +0.000 NA
ATOM     10  H   UNL     1      43.022   2.931   9.398  0.00  0.00    +0.000 HD
BRANCH   9  11
ATOM     11  C   UNL     1      44.817   2.863   8.403  0.00  0.00    +0.000 C 
ATOM     12  C   UNL     1      45.717   1.667   8.745  0.00  0.00    +0.000 C 
ATOM     13  C   UNL     1      46.676   1.365   7.601  0.00  0.00    +0.000 C 
ATOM     14  O   UNL     1      47.450   2.515   7.264  0.00  0.00    +0.000 OA
ATOM     15  C   UNL     1      46.636   3.601   6.832  0.00  0.00    +0.000 C 
ATOM     16  C   UNL     1      45.685   4.040   7.935  0.00  0.00    +0.000 C 
ENDBRANCH   9  11
ENDBRANCH   8   9
ENDBRANCH   5   8
ENDBRANCH   1   2
BRANCH   1  17
ATOM     17  C   UNL     1      48.211   6.829  14.503  0.00  0.00    +0.000 C 
BRANCH  17  19
ATOM     18  O   UNL     1      50.517   6.943  15.158  0.00  0.00    +0.000 OA
ATOM     19  C   UNL     1      49.341   6.965  15.510  0.00  0.00    +0.000 C 
BRANCH  19  20
ATOM     20  C   UNL     1      48.978   7.072  16.930  0.00  0.00    +0.000 A 
ATOM     21  C   UNL     1      48.510   8.242  17.507  0.00  0.00    +0.000 A 
ATOM     22  S   UNL     1      48.060   8.049  19.144  0.00  0.00    +0.000 S 
ATOM     23  C   UNL     1      48.505   6.407  19.132  0.00  0.00    +0.000 A 
ATOM     24  N   UNL     1      48.361   5.633  20.242  0.00  0.00    +0.000 NA
ATOM     25  C   UNL     1      48.737   4.408  20.084  0.00  0.00    +0.000 A 
ATOM     26  N   UNL     1      49.258   3.891  18.924  0.00  0.00    +0.000 N 
ATOM     27  C   UNL     1      49.511   4.656  17.808  0.00  0.00    +0.000 A 
ATOM     28  O   UNL     1      50.169   4.210  16.876  0.00  0.00    +0.000 OA
ATOM     29  C   UNL     1      49.016   6.019  17.908  0.00  0.00    +0.000 A 
ATOM     30  H   UNL     1      49.599   2.941  18.888  0.00  0.00    +0.000 HD
ENDBRANCH  19  20
ENDBRANCH  17  19
ENDBRANCH   1  17
TORSDOF 7
ENDMDL
MODEL 6
REMARK VINA RESULT:    -7.355      2.146      2.948
REMARK INTER + INTRA:         -11.086
REMARK INTER:                 -10.067
REMARK INTRA:                  -1.019
REMARK UNBOUND:                -0.721
REMARK  Name = 
REMARK  7 active torsions:
REMARK  status: ('A' for Active; 'I' for Inactive)
REMARK    1  A    between atoms: C_2  and  C_3
REMARK    2  A    between atoms: C_2  and  C_19
REMARK    3  A    between atoms: C_3  and  C_4
REMARK    4  A    between atoms: C_4  and  C_5
REMARK    5  A    between atoms: C_8  and  C_9
REMARK    6  A    between atoms: C_9  and  N_10
REMARK    7  A    between atoms: N_10  and  C_11
REMARK                            x       y       z     vdW  Elec       q    Type
REMARK                         _______ _______ _______ _____ _____    ______ ____
ROOT
ATOM      1  C   UNL     1      47.465   5.338  14.429  0.00  0.00    +0.000 C 
ENDROOT
BRANCH   1   2
ATOM      2  C   UNL     1      46.619   5.058  13.209  0.00  0.00    +0.000 A 
ATOM      3  C   UNL     1      46.545   5.983  12.160  0.00  0.00    +0.000 A 
ATOM      4  C   UNL     1      45.747   5.728  11.044  0.00  0.00    +0.000 A 
ATOM      5  C   UNL     1      45.021   4.534  10.943  0.00  0.00    +0.000 A 
ATOM      6  C   UNL     1      45.108   3.599  11.985  0.00  0.00    +0.000 A 
ATOM      7  C   UNL     1      45.901   3.861  13.106  0.00  0.00    +0.000 A 
BRANCH   5   8
ATOM      8  C   UNL     1      44.119   4.283   9.759  0.00  0.00    +0.000 C 
BRANCH   8   9
ATOM      9  N   UNL     1      44.249   2.913   9.262  0.00  0.00    +0.000 NA
ATOM     10  H   UNL     1      43.500   2.743   8.590  0.00  0.00    +0.000 HD
BRANCH   9  11
ATOM     11  C   UNL     1      45.551   2.640   8.636  0.00  0.00    +0.000 C 
ATOM     12  C   UNL     1      45.661   3.465   7.346  0.00  0.00    +0.000 C 
ATOM     13  C   UNL     1      46.944   3.130   6.595  0.00  0.00    +0.000 C 
ATOM     14  O   UNL     1      47.027   1.733   6.323  0.00  0.00    +0.000 OA
ATOM     15  C   UNL     1      47.043   0.954   7.516  0.00  0.00    +0.000 C 
ATOM     16  C   UNL     1      45.763   1.154   8.312  0.00  0.00    +0.000 C 
ENDBRANCH   9  11
ENDBRANCH   8   9
ENDBRANCH   5   8
ENDBRANCH   1   2
BRANCH   1  17
ATOM     17  C   UNL     1      47.119   4.407  15.590  0.00  0.00    +0.000 C 
BRANCH  17  19
ATOM     18  O   UNL     1      49.074   3.444  16.596  0.00  0.00    +0.000 OA
ATOM     19  C   UNL     1      48.234   4.340  16.620  0.00  0.00    +0.000 C 
BRANCH  19  20
ATOM     20  C   UNL     1      48.244   5.357  17.680  0.00  0.00    +0.000 A 
ATOM     21  C   UNL     1      47.288   5.417  18.682  0.00  0.00    +0.000 A 
ATOM     22  S   UNL     1      47.609   6.629  19.843  0.00  0.00    +0.000 S 
ATOM     23  C   UNL     1      49.016   7.123  19.023  0.00  0.00    +0.000 A 
ATOM     24  N   UNL     1      49.788   8.135  19.501  0.00  0.00    +0.000 NA
ATOM     25  C   UNL     1      50.823   8.398  18.776  0.00  0.00    +0.000 A 
ATOM     26  N   UNL     1      51.149   7.752  17.609  0.00  0.00    +0.000 N 
ATOM     27  C   UNL     1      50.348   6.789  17.037  0.00  0.00    +0.000 A 
ATOM     28  O   UNL     1      50.560   6.392  15.898  0.00  0.00    +0.000 OA
ATOM     29  C   UNL     1      49.222   6.395  17.866  0.00  0.00    +0.000 A 
ATOM     30  H   UNL     1      51.935   8.053  17.052  0.00  0.00    +0.000 HD
ENDBRANCH  19  20
ENDBRANCH  17  19
ENDBRANCH   1  17
TORSDOF 7
ENDMDL
MODEL 7
REMARK VINA RESULT:    -7.313      4.867      6.722
REMARK INTER + INTRA:         -11.027
REMARK INTER:                  -9.880
REMARK INTRA:                  -1.147
REMARK UNBOUND:                -0.721
REMARK  Name = 
REMARK  7 active torsions:
REMARK  status: ('A' for Active; 'I' for Inactive)
REMARK    1  A    between atoms: C_2  and  C_3
REMARK    2  A    between atoms: C_2  and  C_19
REMARK    3  A    between atoms: C_3  and  C_4
REMARK    4  A    between atoms: C_4  and  C_5
REMARK    5  A    between atoms: C_8  and  C_9
REMARK    6  A    between atoms: C_9  and  N_10
REMARK    7  A    between atoms: N_10  and  C_11
REMARK                            x       y       z     vdW  Elec       q    Type
REMARK                         _______ _______ _______ _____ _____    ______ ____
ROOT
ATOM      1  C   UNL     1      47.605   6.158  13.822  0.00  0.00    +0.000 C 
ENDROOT
BRANCH   1   2
ATOM      2  C   UNL     1      46.660   5.456  12.875  0.00  0.00    +0.000 A 
ATOM      3  C   UNL     1      46.040   4.255  13.241  0.00  0.00    +0.000 A 
ATOM      4  C   UNL     1      45.182   3.601  12.355  0.00  0.00    +0.000 A 
ATOM      5  C   UNL     1      44.911   4.144  11.092  0.00  0.00    +0.000 A 
ATOM      6  C   UNL     1      45.518   5.355  10.732  0.00  0.00    +0.000 A 
ATOM      7  C   UNL     1      46.384   6.003  11.617  0.00  0.00    +0.000 A 
BRANCH   5   8
ATOM      8  C   UNL     1      44.024   3.409  10.117  0.00  0.00    +0.000 C 
BRANCH   8   9
ATOM      9  N   UNL     1      44.629   2.151   9.678  0.00  0.00    +0.000 NA
ATOM     10  H   UNL     1      43.913   1.595   9.211  0.00  0.00    +0.000 HD
BRANCH   9  11
ATOM     11  C   UNL     1      45.778   2.338   8.780  0.00  0.00    +0.000 C 
ATOM     12  C   UNL     1      45.390   3.340   7.684  0.00  0.00    +0.000 C 
ATOM     13  C   UNL     1      46.507   3.481   6.657  0.00  0.00    +0.000 C 
ATOM     14  O   UNL     1      46.852   2.214   6.100  0.00  0.00    +0.000 OA
ATOM     15  C   UNL     1      47.326   1.304   7.089  0.00  0.00    +0.000 C 
ATOM     16  C   UNL     1      46.253   1.029   8.132  0.00  0.00    +0.000 C 
ENDBRANCH   9  11
ENDBRANCH   8   9
ENDBRANCH   5   8
ENDBRANCH   1   2
BRANCH   1  17
ATOM     17  C   UNL     1      48.323   7.327  13.150  0.00  0.00    +0.000 C 
BRANCH  17  19
ATOM     18  O   UNL     1      48.104   9.149  14.697  0.00  0.00    +0.000 OA
ATOM     19  C   UNL     1      47.784   8.670  13.612  0.00  0.00    +0.000 C 
BRANCH  19  20
ATOM     20  C   UNL     1      46.822   9.355  12.738  0.00  0.00    +0.000 A 
ATOM     21  C   UNL     1      45.452   9.163  12.819  0.00  0.00    +0.000 A 
ATOM     22  S   UNL     1      44.569  10.170  11.760  0.00  0.00    +0.000 S 
ATOM     23  C   UNL     1      45.993  10.869  11.144  0.00  0.00    +0.000 A 
ATOM     24  N   UNL     1      45.945  11.835  10.189  0.00  0.00    +0.000 NA
ATOM     25  C   UNL     1      47.102  12.273   9.821  0.00  0.00    +0.000 A 
ATOM     26  N   UNL     1      48.303  11.822  10.309  0.00  0.00    +0.000 N 
ATOM     27  C   UNL     1      48.405  10.781  11.204  0.00  0.00    +0.000 A 
ATOM     28  O   UNL     1      49.491  10.268  11.450  0.00  0.00    +0.000 OA
ATOM     29  C   UNL     1      47.126  10.321  11.717  0.00  0.00    +0.000 A 
ATOM     30  H   UNL     1      49.176  12.157   9.928  0.00  0.00    +0.000 HD
ENDBRANCH  19  20
ENDBRANCH  17  19
ENDBRANCH   1  17
TORSDOF 7
ENDMDL
MODEL 8
REMARK VINA RESULT:    -7.260      2.492      3.304
REMARK INTER + INTRA:         -10.952
REMARK INTER:                  -9.754
REMARK INTRA:                  -1.199
REMARK UNBOUND:                -0.721
REMARK  Name = 
REMARK  7 active torsions:
REMARK  status: ('A' for Active; 'I' for Inactive)
REMARK    1  A    between atoms: C_2  and  C_3
REMARK    2  A    between atoms: C_2  and  C_19
REMARK    3  A    between atoms: C_3  and  C_4
REMARK    4  A    between atoms: C_4  and  C_5
REMARK    5  A    between atoms: C_8  and  C_9
REMARK    6  A    between atoms: C_9  and  N_10
REMARK    7  A    between atoms: N_10  and  C_11
REMARK                            x       y       z     vdW  Elec       q    Type
REMARK                         _______ _______ _______ _____ _____    ______ ____
ROOT
ATOM      1  C   UNL     1      48.749   6.913  13.768  0.00  0.00    +0.000 C 
ENDROOT
BRANCH   1   2
ATOM      2  C   UNL     1      47.542   6.280  13.118  0.00  0.00    +0.000 A 
ATOM      3  C   UNL     1      46.934   5.151  13.681  0.00  0.00    +0.000 A 
ATOM      4  C   UNL     1      45.830   4.558  13.067  0.00  0.00    +0.000 A 
ATOM      5  C   UNL     1      45.297   5.093  11.886  0.00  0.00    +0.000 A 
ATOM      6  C   UNL     1      45.894   6.233  11.331  0.00  0.00    +0.000 A 
ATOM      7  C   UNL     1      47.005   6.820  11.943  0.00  0.00    +0.000 A 
BRANCH   5   8
ATOM      8  C   UNL     1      44.136   4.420  11.196  0.00  0.00    +0.000 C 
BRANCH   8   9
ATOM      9  N   UNL     1      44.015   4.847   9.802  0.00  0.00    +0.000 NA
ATOM     10  H   UNL     1      44.537   5.715   9.685  0.00  0.00    +0.000 HD
BRANCH   9  11
ATOM     11  C   UNL     1      44.496   3.844   8.840  0.00  0.00    +0.000 C 
ATOM     12  C   UNL     1      44.705   2.514   9.577  0.00  0.00    +0.000 C 
ATOM     13  C   UNL     1      45.316   1.470   8.650  0.00  0.00    +0.000 C 
ATOM     14  O   UNL     1      46.536   1.943   8.081  0.00  0.00    +0.000 OA
ATOM     15  C   UNL     1      46.342   3.116   7.295  0.00  0.00    +0.000 C 
ATOM     16  C   UNL     1      45.803   4.256   8.145  0.00  0.00    +0.000 C 
ENDBRANCH   9  11
ENDBRANCH   8   9
ENDBRANCH   5   8
ENDBRANCH   1   2
BRANCH   1  17
ATOM     17  C   UNL     1      48.545   7.125  15.267  0.00  0.00    +0.000 C 
BRANCH  17  19
ATOM     18  O   UNL     1      50.796   6.544  15.863  0.00  0.00    +0.000 OA
ATOM     19  C   UNL     1      49.597   6.405  16.094  0.00  0.00    +0.000 C 
BRANCH  19  20
ATOM     20  C   UNL     1      49.130   5.495  17.148  0.00  0.00    +0.000 A 
ATOM     21  C   UNL     1      48.672   4.212  16.894  0.00  0.00    +0.000 A 
ATOM     22  S   UNL     1      48.300   3.338  18.314  0.00  0.00    +0.000 S 
ATOM     23  C   UNL     1      48.714   4.659  19.304  0.00  0.00    +0.000 A 
ATOM     24  N   UNL     1      48.632   4.575  20.658  0.00  0.00    +0.000 NA
ATOM     25  C   UNL     1      48.981   5.653  21.278  0.00  0.00    +0.000 A 
ATOM     26  N   UNL     1      49.389   6.812  20.666  0.00  0.00    +0.000 N 
ATOM     27  C   UNL     1      49.396   6.976  19.299  0.00  0.00    +0.000 A 
ATOM     28  O   UNL     1      49.559   8.083  18.800  0.00  0.00    +0.000 OA
ATOM     29  C   UNL     1      49.102   5.759  18.561  0.00  0.00    +0.000 A 
ATOM     30  H   UNL     1      49.581   7.643  21.206  0.00  0.00    +0.000 HD
ENDBRANCH  19  20
ENDBRANCH  17  19
ENDBRANCH   1  17
TORSDOF 7
ENDMDL
MODEL 9
REMARK VINA RESULT:    -7.211      2.683      3.481
REMARK INTER + INTRA:         -10.883
REMARK INTER:                  -9.610
REMARK INTRA:                  -1.272
REMARK UNBOUND:                -0.721
REMARK  Name = 
REMARK  7 active torsions:
REMARK  status: ('A' for Active; 'I' for Inactive)
REMARK    1  A    between atoms: C_2  and  C_3
REMARK    2  A    between atoms: C_2  and  C_19
REMARK    3  A    between atoms: C_3  and  C_4
REMARK    4  A    between atoms: C_4  and  C_5
REMARK    5  A    between atoms: C_8  and  C_9
REMARK    6  A    between atoms: C_9  and  N_10
REMARK    7  A    between atoms: N_10  and  C_11
REMARK                            x       y       z     vdW  Elec       q    Type
REMARK                         _______ _______ _______ _____ _____    ______ ____
ROOT
ATOM      1  C   UNL     1      48.888   7.284  13.571  0.00  0.00    +0.000 C 
ENDROOT
BRANCH   1   2
ATOM      2  C   UNL     1      47.717   6.550  12.962  0.00  0.00    +0.000 A 
ATOM      3  C   UNL     1      47.191   6.942  11.724  0.00  0.00    +0.000 A 
ATOM      4  C   UNL     1      46.097   6.273  11.174  0.00  0.00    +0.000 A 
ATOM      5  C   UNL     1      45.516   5.185  11.840  0.00  0.00    +0.000 A 
ATOM      6  C   UNL     1      46.053   4.782  13.071  0.00  0.00    +0.000 A 
ATOM      7  C   UNL     1      47.143   5.459  13.624  0.00  0.00    +0.000 A 
BRANCH   5   8
ATOM      8  C   UNL     1      44.301   4.496  11.268  0.00  0.00    +0.000 C 
BRANCH   8   9
ATOM      9  N   UNL     1      44.063   4.887   9.879  0.00  0.00    +0.000 NA
ATOM     10  H   UNL     1      44.570   5.754   9.697  0.00  0.00    +0.000 HD
BRANCH   9  11
ATOM     11  C   UNL     1      44.468   3.862   8.905  0.00  0.00    +0.000 C 
ATOM     12  C   UNL     1      44.668   2.531   9.645  0.00  0.00    +0.000 C 
ATOM     13  C   UNL     1      45.202   1.461   8.701  0.00  0.00    +0.000 C 
ATOM     14  O   UNL     1      46.409   1.889   8.073  0.00  0.00    +0.000 OA
ATOM     15  C   UNL     1      46.217   3.061   7.286  0.00  0.00    +0.000 C 
ATOM     16  C   UNL     1      45.754   4.225   8.149  0.00  0.00    +0.000 C 
ENDBRANCH   9  11
ENDBRANCH   8   9
ENDBRANCH   5   8
ENDBRANCH   1   2
BRANCH   1  17
ATOM     17  C   UNL     1      48.436   8.387  14.526  0.00  0.00    +0.000 C 
BRANCH  17  19
ATOM     18  O   UNL     1      50.525   8.846  15.616  0.00  0.00    +0.000 OA
ATOM     19  C   UNL     1      49.350   8.507  15.734  0.00  0.00    +0.000 C 
BRANCH  19  20
ATOM     20  C   UNL     1      48.794   8.150  17.046  0.00  0.00    +0.000 A 
ATOM     21  C   UNL     1      48.128   9.054  17.859  0.00  0.00    +0.000 A 
ATOM     22  S   UNL     1      47.490   8.341  19.274  0.00  0.00    +0.000 S 
ATOM     23  C   UNL     1      48.109   6.813  18.853  0.00  0.00    +0.000 A 
ATOM     24  N   UNL     1      47.906   5.730  19.649  0.00  0.00    +0.000 NA
ATOM     25  C   UNL     1      48.431   4.639  19.200  0.00  0.00    +0.000 A 
ATOM     26  N   UNL     1      49.154   4.535  18.038  0.00  0.00    +0.000 N 
ATOM     27  C   UNL     1      49.466   5.621  17.251  0.00  0.00    +0.000 A 
ATOM     28  O   UNL     1      50.287   5.525  16.346  0.00  0.00    +0.000 OA
ATOM     29  C   UNL     1      48.817   6.853  17.666  0.00  0.00    +0.000 A 
ATOM     30  H   UNL     1      49.598   3.667  17.779  0.00  0.00    +0.000 HD
ENDBRANCH  19  20
ENDBRANCH  17  19
ENDBRANCH   1  17
TORSDOF 7
ENDMDL
