MODEL 1
REMARK VINA RESULT:    -7.113      0.000      0.000
REMARK INTER + INTRA:          -9.818
REMARK INTER:                  -9.192
REMARK INTRA:                  -0.626
REMARK UNBOUND:                -0.626
REMARK  Name = 
REMARK  5 active torsions:
REMARK  status: ('A' for Active; 'I' for Inactive)
REMARK    1  A    between atoms: C_2  and  C_4
REMARK    2  A    between atoms: C_8  and  O_9
REMARK    3  A    between atoms: O_9  and  C_10
REMARK    4  A    between atoms: C_10  and  C_11
REMARK    5  A    between atoms: C_16  and  C_17
REMARK                            x       y       z     vdW  Elec       q    Type
REMARK                         _______ _______ _______ _____ _____    ______ ____
ROOT
ATOM      1  C   UNL     1      47.028   4.641  15.083  0.00  0.00    +0.000 C 
ENDROOT
BRANCH   1   2
ATOM      2  C   UNL     1      46.823   5.240  13.717  0.00  0.00    +0.000 A 
ATOM      3  C   UNL     1      47.714   6.163  13.172  0.00  0.00    +0.000 A 
ATOM      4  C   UNL     1      47.444   6.713  11.926  0.00  0.00    +0.000 A 
ATOM      5  F   UNL     1      48.292   7.611  11.408  0.00  0.00    +0.000 F 
ATOM      6  C   UNL     1      46.302   6.359  11.205  0.00  0.00    +0.000 A 
ATOM      7  C   UNL     1      45.398   5.423  11.724  0.00  0.00    +0.000 A 
ATOM      8  C   UNL     1      45.692   4.870  12.976  0.00  0.00    +0.000 A 
BRANCH   7   9
ATOM      9  C   UNL     1      44.150   5.043  10.938  0.00  0.00    +0.000 C 
ATOM     10  C   UNL     1      43.101   4.275  11.759  0.00  0.00    +0.000 C 
ATOM     11  C   UNL     1      43.393   2.780  11.899  0.00  0.00    +0.000 C 
ATOM     12  N   UNL     1      43.677   2.123  10.622  0.00  0.00    +0.000 NA
ATOM     13  C   UNL     1      44.720   2.793   9.843  0.00  0.00    +0.000 C 
ATOM     14  C   UNL     1      44.453   4.283   9.636  0.00  0.00    +0.000 C 
ATOM     15  H   UNL     1      42.821   2.097  10.069  0.00  0.00    +0.000 HD
ENDBRANCH   7   9
ENDBRANCH   1   2
BRANCH   1  16
ATOM     16  O   UNL     1      48.369   4.882  15.511  0.00  0.00    +0.000 OA
BRANCH  16  21
ATOM     17  C   UNL     1      48.453   5.777  19.096  0.00  0.00    +0.000 A 
ATOM     18  N   UNL     1      48.860   7.082  19.035  0.00  0.00    +0.000 NA
ATOM     19  C   UNL     1      49.095   7.577  17.800  0.00  0.00    +0.000 A 
ATOM     20  C   UNL     1      48.937   6.843  16.633  0.00  0.00    +0.000 A 
ATOM     21  C   UNL     1      48.512   5.516  16.721  0.00  0.00    +0.000 A 
ATOM     22  C   UNL     1      48.273   4.971  17.981  0.00  0.00    +0.000 A 
ATOM     23  F   UNL     1      47.875   3.699  18.119  0.00  0.00    +0.000 F 
BRANCH  17  25
ATOM     24  N   UNL     1      47.061   5.723  21.077  0.00  0.00    +0.000 N 
ATOM     25  C   UNL     1      48.181   5.231  20.462  0.00  0.00    +0.000 C 
ATOM     26  O   UNL     1      48.883   4.398  21.019  0.00  0.00    +0.000 OA
ATOM     27  H   UNL     1      46.820   5.380  21.996  0.00  0.00    +0.000 HD
ATOM     28  H   UNL     1      46.480   6.407  20.608  0.00  0.00    +0.000 HD
ENDBRANCH  17  25
ENDBRANCH  16  21
ENDBRANCH   1  16
TORSDOF 5
ENDMDL
MODEL 2
REMARK VINA RESULT:    -7.065      4.621      6.470
REMARK INTER + INTRA:          -9.756
REMARK INTER:                  -9.009
REMARK INTRA:                  -0.746
REMARK UNBOUND:                -0.626
REMARK  Name = 
REMARK  5 active torsions:
REMARK  status: ('A' for Active; 'I' for Inactive)
REMARK    1  A    between atoms: C_2  and  C_4
REMARK    2  A    between atoms: C_8  and  O_9
REMARK    3  A    between atoms: O_9  and  C_10
REMARK    4  A    between atoms: C_10  and  C_11
REMARK    5  A    between atoms: C_16  and  C_17
REMARK                            x       y       z     vdW  Elec       q    Type
REMARK                         _______ _______ _______ _____ _____    ______ ____
ROOT
ATOM      1  C   UNL     1      48.363   7.891  12.047  0.00  0.00    +0.000 C 
ENDROOT
BRANCH   1   2
ATOM      2  C   UNL     1      47.425   6.761  12.380  0.00  0.00    +0.000 A 
ATOM      3  C   UNL     1      47.558   6.006  13.544  0.00  0.00    +0.000 A 
ATOM      4  C   UNL     1      46.689   4.948  13.770  0.00  0.00    +0.000 A 
ATOM      5  F   UNL     1      46.825   4.213  14.882  0.00  0.00    +0.000 F 
ATOM      6  C   UNL     1      45.682   4.624  12.859  0.00  0.00    +0.000 A 
ATOM      7  C   UNL     1      45.518   5.375  11.688  0.00  0.00    +0.000 A 
ATOM      8  C   UNL     1      46.397   6.446  11.481  0.00  0.00    +0.000 A 
BRANCH   7   9
ATOM      9  C   UNL     1      44.422   5.016  10.692  0.00  0.00    +0.000 C 
ATOM     10  C   UNL     1      43.206   4.318  11.322  0.00  0.00    +0.000 C 
ATOM     11  C   UNL     1      43.400   2.819  11.553  0.00  0.00    +0.000 C 
ATOM     12  N   UNL     1      43.887   2.108  10.370  0.00  0.00    +0.000 NA
ATOM     13  C   UNL     1      45.086   2.711   9.783  0.00  0.00    +0.000 C 
ATOM     14  C   UNL     1      44.929   4.202   9.490  0.00  0.00    +0.000 C 
ATOM     15  H   UNL     1      43.149   2.096   9.667  0.00  0.00    +0.000 HD
ENDBRANCH   7   9
ENDBRANCH   1   2
BRANCH   1  16
ATOM     16  O   UNL     1      47.955   9.068  12.746  0.00  0.00    +0.000 OA
BRANCH  16  21
ATOM     17  C   UNL     1      45.031  10.804  11.300  0.00  0.00    +0.000 A 
ATOM     18  N   UNL     1      45.640  11.763  10.538  0.00  0.00    +0.000 NA
ATOM     19  C   UNL     1      46.991  11.779  10.567  0.00  0.00    +0.000 A 
ATOM     20  C   UNL     1      47.757  10.888  11.305  0.00  0.00    +0.000 A 
ATOM     21  C   UNL     1      47.111   9.912  12.067  0.00  0.00    +0.000 A 
ATOM     22  C   UNL     1      45.717   9.877  12.070  0.00  0.00    +0.000 A 
ATOM     23  F   UNL     1      45.051   8.968  12.795  0.00  0.00    +0.000 F 
BRANCH  17  25
ATOM     24  N   UNL     1      42.988   9.899  10.364  0.00  0.00    +0.000 N 
ATOM     25  C   UNL     1      43.535  10.778  11.261  0.00  0.00    +0.000 C 
ATOM     26  O   UNL     1      42.819  11.473  11.968  0.00  0.00    +0.000 OA
ATOM     27  H   UNL     1      41.983   9.828  10.303  0.00  0.00    +0.000 HD
ATOM     28  H   UNL     1      43.587   9.322   9.786  0.00  0.00    +0.000 HD
ENDBRANCH  17  25
ENDBRANCH  16  21
ENDBRANCH   1  16
TORSDOF 5
ENDMDL
MODEL 3
REMARK VINA RESULT:    -7.040      2.247      2.684
REMARK INTER + INTRA:          -9.723
REMARK INTER:                  -8.958
REMARK INTRA:                  -0.766
REMARK UNBOUND:                -0.626
REMARK  Name = 
REMARK  5 active torsions:
REMARK  status: ('A' for Active; 'I' for Inactive)
REMARK    1  A    between atoms: C_2  and  C_4
REMARK    2  A    between atoms: C_8  and  O_9
REMARK    3  A    between atoms: O_9  and  C_10
REMARK    4  A    between atoms: C_10  and  C_11
REMARK    5  A    between atoms: C_16  and  C_17
REMARK                            x       y       z     vdW  Elec       q    Type
REMARK                         _______ _______ _______ _____ _____    ______ ____
ROOT
ATOM      1  C   UNL     1      48.309   7.637  13.427  0.00  0.00    +0.000 C 
ENDROOT
BRANCH   1   2
ATOM      2  C   UNL     1      46.995   7.853  12.726  0.00  0.00    +0.000 A 
ATOM      3  C   UNL     1      46.423   9.118  12.596  0.00  0.00    +0.000 A 
ATOM      4  C   UNL     1      45.187   9.243  11.978  0.00  0.00    +0.000 A 
ATOM      5  F   UNL     1      44.630  10.456  11.866  0.00  0.00    +0.000 F 
ATOM      6  C   UNL     1      44.504   8.132  11.480  0.00  0.00    +0.000 A 
ATOM      7  C   UNL     1      45.063   6.852  11.585  0.00  0.00    +0.000 A 
ATOM      8  C   UNL     1      46.316   6.744  12.202  0.00  0.00    +0.000 A 
BRANCH   7   9
ATOM      9  C   UNL     1      44.314   5.639  11.046  0.00  0.00    +0.000 C 
ATOM     10  C   UNL     1      42.926   5.428  11.677  0.00  0.00    +0.000 C 
ATOM     11  C   UNL     1      42.961   4.725  13.034  0.00  0.00    +0.000 C 
ATOM     12  N   UNL     1      43.754   3.495  13.030  0.00  0.00    +0.000 NA
ATOM     13  C   UNL     1      45.106   3.676  12.496  0.00  0.00    +0.000 C 
ATOM     14  C   UNL     1      45.125   4.336  11.118  0.00  0.00    +0.000 C 
ATOM     15  H   UNL     1      43.271   2.795  12.468  0.00  0.00    +0.000 HD
ENDBRANCH   7   9
ENDBRANCH   1   2
BRANCH   1  16
ATOM     16  O   UNL     1      48.441   6.258  13.776  0.00  0.00    +0.000 OA
BRANCH  16  21
ATOM     17  C   UNL     1      48.042   4.731  17.118  0.00  0.00    +0.000 A 
ATOM     18  N   UNL     1      48.615   5.683  17.916  0.00  0.00    +0.000 NA
ATOM     19  C   UNL     1      49.112   6.770  17.286  0.00  0.00    +0.000 A 
ATOM     20  C   UNL     1      49.059   6.956  15.911  0.00  0.00    +0.000 A 
ATOM     21  C   UNL     1      48.460   5.974  15.120  0.00  0.00    +0.000 A 
ATOM     22  C   UNL     1      47.949   4.833  15.737  0.00  0.00    +0.000 A 
ATOM     23  F   UNL     1      47.377   3.857  15.020  0.00  0.00    +0.000 F 
BRANCH  17  25
ATOM     24  N   UNL     1      48.204   3.089  18.891  0.00  0.00    +0.000 N 
ATOM     25  C   UNL     1      47.482   3.532  17.815  0.00  0.00    +0.000 C 
ATOM     26  O   UNL     1      46.451   2.964  17.481  0.00  0.00    +0.000 OA
ATOM     27  H   UNL     1      47.867   2.291  19.409  0.00  0.00    +0.000 HD
ATOM     28  H   UNL     1      49.054   3.567  19.166  0.00  0.00    +0.000 HD
ENDBRANCH  17  25
ENDBRANCH  16  21
ENDBRANCH   1  16
TORSDOF 5
ENDMDL
MODEL 4
REMARK VINA RESULT:    -6.958      1.276      1.697
REMARK INTER + INTRA:          -9.617
REMARK INTER:                  -9.103
REMARK INTRA:                  -0.515
REMARK UNBOUND:                -0.626
REMARK  Name = 
REMARK  5 active torsions:
REMARK  status: ('A' for Active; 'I' for Inactive)
REMARK    1  A    between atoms: C_2  and  C_4
REMARK    2  A    between atoms: C_8  and  O_9
REMARK    3  A    between atoms: O_9  and  C_10
REMARK    4  A    between atoms: C_10  and  C_11
REMARK    5  A    between atoms: C_16  and  C_17
REMARK                            x       y       z     vdW  Elec       q    Type
REMARK                         _______ _______ _______ _____ _____    ______ ____
ROOT
ATOM      1  C   UNL     1      47.164   4.518  14.814  0.00  0.00    +0.000 C 
ENDROOT
BRANCH   1   2
ATOM      2  C   UNL     1      46.878   5.202  13.504  0.00  0.00    +0.000 A 
ATOM      3  C   UNL     1      47.683   6.228  13.012  0.00  0.00    +0.000 A 
ATOM      4  C   UNL     1      47.339   6.850  11.820  0.00  0.00    +0.000 A 
ATOM      5  F   UNL     1      48.104   7.845  11.354  0.00  0.00    +0.000 F 
ATOM      6  C   UNL     1      46.205   6.468  11.099  0.00  0.00    +0.000 A 
ATOM      7  C   UNL     1      45.387   5.430  11.565  0.00  0.00    +0.000 A 
ATOM      8  C   UNL     1      45.755   4.807  12.763  0.00  0.00    +0.000 A 
BRANCH   7   9
ATOM      9  C   UNL     1      44.147   5.019  10.780  0.00  0.00    +0.000 C 
ATOM     10  C   UNL     1      43.091   4.278  11.619  0.00  0.00    +0.000 C 
ATOM     11  C   UNL     1      43.385   2.791  11.814  0.00  0.00    +0.000 C 
ATOM     12  N   UNL     1      43.683   2.089  10.564  0.00  0.00    +0.000 NA
ATOM     13  C   UNL     1      44.733   2.734   9.772  0.00  0.00    +0.000 C 
ATOM     14  C   UNL     1      44.465   4.215   9.509  0.00  0.00    +0.000 C 
ATOM     15  H   UNL     1      42.833   2.041  10.004  0.00  0.00    +0.000 HD
ENDBRANCH   7   9
ENDBRANCH   1   2
BRANCH   1  16
ATOM     16  O   UNL     1      48.166   5.249  15.523  0.00  0.00    +0.000 OA
BRANCH  16  21
ATOM     17  C   UNL     1      48.461   5.404  19.203  0.00  0.00    +0.000 A 
ATOM     18  N   UNL     1      48.595   4.079  19.516  0.00  0.00    +0.000 NA
ATOM     19  C   UNL     1      48.564   3.214  18.478  0.00  0.00    +0.000 A 
ATOM     20  C   UNL     1      48.416   3.604  17.154  0.00  0.00    +0.000 A 
ATOM     21  C   UNL     1      48.290   4.964  16.860  0.00  0.00    +0.000 A 
ATOM     22  C   UNL     1      48.305   5.881  17.910  0.00  0.00    +0.000 A 
ATOM     23  F   UNL     1      48.175   7.195  17.681  0.00  0.00    +0.000 F 
BRANCH  17  25
ATOM     24  N   UNL     1      49.751   6.837  20.669  0.00  0.00    +0.000 N 
ATOM     25  C   UNL     1      48.506   6.363  20.350  0.00  0.00    +0.000 C 
ATOM     26  O   UNL     1      47.522   6.726  20.979  0.00  0.00    +0.000 OA
ATOM     27  H   UNL     1      49.841   7.498  21.426  0.00  0.00    +0.000 HD
ATOM     28  H   UNL     1      50.561   6.537  20.140  0.00  0.00    +0.000 HD
ENDBRANCH  17  25
ENDBRANCH  16  21
ENDBRANCH   1  16
TORSDOF 5
ENDMDL
MODEL 5
REMARK VINA RESULT:    -6.898      3.113      6.973
REMARK INTER + INTRA:          -9.541
REMARK INTER:                  -8.644
REMARK INTRA:                  -0.897
REMARK UNBOUND:                -0.626
REMARK  Name = 
REMARK  5 active torsions:
REMARK  status: ('A' for Active; 'I' for Inactive)
REMARK    1  A    between atoms: C_2  and  C_4
REMARK    2  A    between atoms: C_8  and  O_9
REMARK    3  A    between atoms: O_9  and  C_10
REMARK    4  A    between atoms: C_10  and  C_11
REMARK    5  A    between atoms: C_16  and  C_17
REMARK                            x       y       z     vdW  Elec       q    Type
REMARK                         _______ _______ _______ _____ _____    ______ ____
ROOT
ATOM      1  C   UNL     1      48.933   7.188  14.316  0.00  0.00    +0.000 C 
ENDROOT
BRANCH   1   2
ATOM      2  C   UNL     1      48.693   7.044  15.795  0.00  0.00    +0.000 A 
ATOM      3  C   UNL     1      48.550   8.149  16.634  0.00  0.00    +0.000 A 
ATOM      4  C   UNL     1      48.376   7.949  17.996  0.00  0.00    +0.000 A 
ATOM      5  F   UNL     1      48.253   9.010  18.804  0.00  0.00    +0.000 F 
ATOM      6  C   UNL     1      48.338   6.666  18.546  0.00  0.00    +0.000 A 
ATOM      7  C   UNL     1      48.465   5.539  17.724  0.00  0.00    +0.000 A 
ATOM      8  C   UNL     1      48.629   5.759  16.351  0.00  0.00    +0.000 A 
BRANCH   7   9
ATOM      9  C   UNL     1      48.429   4.140  18.327  0.00  0.00    +0.000 C 
ATOM     10  C   UNL     1      49.818   3.544  18.613  0.00  0.00    +0.000 C 
ATOM     11  C   UNL     1      50.495   2.931  17.386  0.00  0.00    +0.000 C 
ATOM     12  N   UNL     1      49.637   1.996  16.656  0.00  0.00    +0.000 NA
ATOM     13  C   UNL     1      48.329   2.556  16.311  0.00  0.00    +0.000 C 
ATOM     14  C   UNL     1      47.589   3.143  17.512  0.00  0.00    +0.000 C 
ATOM     15  H   UNL     1      49.496   1.164  17.230  0.00  0.00    +0.000 HD
ENDBRANCH   7   9
ENDBRANCH   1   2
BRANCH   1  16
ATOM     16  O   UNL     1      48.587   5.968  13.658  0.00  0.00    +0.000 OA
BRANCH  16  21
ATOM     17  C   UNL     1      45.091   5.343  12.637  0.00  0.00    +0.000 A 
ATOM     18  N   UNL     1      45.018   6.069  11.480  0.00  0.00    +0.000 NA
ATOM     19  C   UNL     1      46.138   6.735  11.121  0.00  0.00    +0.000 A 
ATOM     20  C   UNL     1      47.319   6.704  11.848  0.00  0.00    +0.000 A 
ATOM     21  C   UNL     1      47.371   5.948  13.021  0.00  0.00    +0.000 A 
ATOM     22  C   UNL     1      46.229   5.260  13.427  0.00  0.00    +0.000 A 
ATOM     23  F   UNL     1      46.224   4.531  14.551  0.00  0.00    +0.000 F 
BRANCH  17  25
ATOM     24  N   UNL     1      42.735   5.367  13.198  0.00  0.00    +0.000 N 
ATOM     25  C   UNL     1      43.856   4.597  13.031  0.00  0.00    +0.000 C 
ATOM     26  O   UNL     1      43.809   3.386  13.193  0.00  0.00    +0.000 OA
ATOM     27  H   UNL     1      41.868   4.916  13.450  0.00  0.00    +0.000 HD
ATOM     28  H   UNL     1      42.779   6.368  13.055  0.00  0.00    +0.000 HD
ENDBRANCH  17  25
ENDBRANCH  16  21
ENDBRANCH   1  16
TORSDOF 5
ENDMDL
MODEL 6
REMARK VINA RESULT:    -6.785      3.113      7.752
REMARK INTER + INTRA:          -9.394
REMARK INTER:                  -8.482
REMARK INTRA:                  -0.912
REMARK UNBOUND:                -0.626
REMARK  Name = 
REMARK  5 active torsions:
REMARK  status: ('A' for Active; 'I' for Inactive)
REMARK    1  A    between atoms: C_2  and  C_4
REMARK    2  A    between atoms: C_8  and  O_9
REMARK    3  A    between atoms: O_9  and  C_10
REMARK    4  A    between atoms: C_10  and  C_11
REMARK    5  A    between atoms: C_16  and  C_17
REMARK                            x       y       z     vdW  Elec       q    Type
REMARK                         _______ _______ _______ _____ _____    ______ ____
ROOT
ATOM      1  C   UNL     1      47.841   7.137  12.337  0.00  0.00    +0.000 C 
ENDROOT
BRANCH   1   2
ATOM      2  C   UNL     1      48.149   7.553  13.750  0.00  0.00    +0.000 A 
ATOM      3  C   UNL     1      48.178   8.891  14.139  0.00  0.00    +0.000 A 
ATOM      4  C   UNL     1      48.515   9.210  15.448  0.00  0.00    +0.000 A 
ATOM      5  F   UNL     1      48.556  10.497  15.819  0.00  0.00    +0.000 F 
ATOM      6  C   UNL     1      48.822   8.221  16.384  0.00  0.00    +0.000 A 
ATOM      7  C   UNL     1      48.787   6.868  16.022  0.00  0.00    +0.000 A 
ATOM      8  C   UNL     1      48.435   6.564  14.701  0.00  0.00    +0.000 A 
BRANCH   7   9
ATOM      9  C   UNL     1      49.128   5.790  17.043  0.00  0.00    +0.000 C 
ATOM     10  C   UNL     1      48.553   4.404  16.708  0.00  0.00    +0.000 C 
ATOM     11  C   UNL     1      47.086   4.227  17.104  0.00  0.00    +0.000 C 
ATOM     12  N   UNL     1      46.808   4.616  18.487  0.00  0.00    +0.000 NA
ATOM     13  C   UNL     1      47.285   5.960  18.821  0.00  0.00    +0.000 C 
ATOM     14  C   UNL     1      48.760   6.175  18.486  0.00  0.00    +0.000 C 
ATOM     15  H   UNL     1      47.253   3.945  19.112  0.00  0.00    +0.000 HD
ENDBRANCH   7   9
ENDBRANCH   1   2
BRANCH   1  16
ATOM     16  O   UNL     1      46.489   7.479  12.025  0.00  0.00    +0.000 OA
BRANCH  16  21
ATOM     17  C   UNL     1      44.579   4.567  10.791  0.00  0.00    +0.000 A 
ATOM     18  N   UNL     1      43.701   4.367  11.821  0.00  0.00    +0.000 NA
ATOM     19  C   UNL     1      43.812   5.210  12.872  0.00  0.00    +0.000 A 
ATOM     20  C   UNL     1      44.742   6.238  12.940  0.00  0.00    +0.000 A 
ATOM     21  C   UNL     1      45.620   6.427  11.871  0.00  0.00    +0.000 A 
ATOM     22  C   UNL     1      45.541   5.565  10.777  0.00  0.00    +0.000 A 
ATOM     23  F   UNL     1      46.369   5.697   9.733  0.00  0.00    +0.000 F 
BRANCH  17  25
ATOM     24  N   UNL     1      44.025   4.224   8.458  0.00  0.00    +0.000 N 
ATOM     25  C   UNL     1      44.449   3.641   9.622  0.00  0.00    +0.000 C 
ATOM     26  O   UNL     1      44.702   2.445   9.664  0.00  0.00    +0.000 OA
ATOM     27  H   UNL     1      43.932   3.651   7.632  0.00  0.00    +0.000 HD
ATOM     28  H   UNL     1      43.824   5.216   8.428  0.00  0.00    +0.000 HD
ENDBRANCH  17  25
ENDBRANCH  16  21
ENDBRANCH   1  16
TORSDOF 5
ENDMDL
MODEL 7
REMARK VINA RESULT:    -6.702      2.400      8.333
REMARK INTER + INTRA:          -9.288
REMARK INTER:                  -8.487
REMARK INTRA:                  -0.801
REMARK UNBOUND:                -0.626
REMARK  Name = 
REMARK  5 active torsions:
REMARK  status: ('A' for Active; 'I' for Inactive)
REMARK    1  A    between atoms: C_2  and  C_4
REMARK    2  A    between atoms: C_8  and  O_9
REMARK    3  A    between atoms: O_9  and  C_10
REMARK    4  A    between atoms: C_10  and  C_11
REMARK    5  A    between atoms: C_16  and  C_17
REMARK                            x       y       z     vdW  Elec       q    Type
REMARK                         _______ _______ _______ _____ _____    ______ ____
ROOT
ATOM      1  C   UNL     1      48.098   6.181  14.979  0.00  0.00    +0.000 C 
ENDROOT
BRANCH   1   2
ATOM      2  C   UNL     1      48.207   5.311  16.202  0.00  0.00    +0.000 A 
ATOM      3  C   UNL     1      47.417   4.176  16.376  0.00  0.00    +0.000 A 
ATOM      4  C   UNL     1      47.533   3.441  17.549  0.00  0.00    +0.000 A 
ATOM      5  F   UNL     1      46.764   2.358  17.723  0.00  0.00    +0.000 F 
ATOM      6  C   UNL     1      48.425   3.811  18.556  0.00  0.00    +0.000 A 
ATOM      7  C   UNL     1      49.240   4.940  18.400  0.00  0.00    +0.000 A 
ATOM      8  C   UNL     1      49.118   5.663  17.207  0.00  0.00    +0.000 A 
BRANCH   7   9
ATOM      9  C   UNL     1      50.210   5.346  19.503  0.00  0.00    +0.000 C 
ATOM     10  C   UNL     1      49.791   4.883  20.909  0.00  0.00    +0.000 C 
ATOM     11  C   UNL     1      48.752   5.784  21.576  0.00  0.00    +0.000 C 
ATOM     12  N   UNL     1      49.112   7.202  21.552  0.00  0.00    +0.000 NA
ATOM     13  C   UNL     1      49.454   7.692  20.215  0.00  0.00    +0.000 C 
ATOM     14  C   UNL     1      50.524   6.851  19.520  0.00  0.00    +0.000 C 
ATOM     15  H   UNL     1      49.911   7.348  22.168  0.00  0.00    +0.000 HD
ENDBRANCH   7   9
ENDBRANCH   1   2
BRANCH   1  16
ATOM     16  O   UNL     1      47.982   5.356  13.818  0.00  0.00    +0.000 OA
BRANCH  16  21
ATOM     17  C   UNL     1      44.773   4.250  12.358  0.00  0.00    +0.000 A 
ATOM     18  N   UNL     1      44.193   5.450  12.048  0.00  0.00    +0.000 NA
ATOM     19  C   UNL     1      44.906   6.555  12.359  0.00  0.00    +0.000 A 
ATOM     20  C   UNL     1      46.161   6.522  12.952  0.00  0.00    +0.000 A 
ATOM     21  C   UNL     1      46.734   5.284  13.250  0.00  0.00    +0.000 A 
ATOM     22  C   UNL     1      46.019   4.125  12.954  0.00  0.00    +0.000 A 
ATOM     23  F   UNL     1      46.521   2.914  13.233  0.00  0.00    +0.000 F 
BRANCH  17  25
ATOM     24  N   UNL     1      44.051   2.651  10.688  0.00  0.00    +0.000 N 
ATOM     25  C   UNL     1      43.990   3.026  12.004  0.00  0.00    +0.000 C 
ATOM     26  O   UNL     1      43.335   2.375  12.806  0.00  0.00    +0.000 OA
ATOM     27  H   UNL     1      43.554   1.824  10.393  0.00  0.00    +0.000 HD
ATOM     28  H   UNL     1      44.600   3.191  10.030  0.00  0.00    +0.000 HD
ENDBRANCH  17  25
ENDBRANCH  16  21
ENDBRANCH   1  16
TORSDOF 5
ENDMDL
MODEL 8
REMARK VINA RESULT:    -6.602      4.651      8.829
REMARK INTER + INTRA:          -9.158
REMARK INTER:                  -8.296
REMARK INTRA:                  -0.862
REMARK UNBOUND:                -0.626
REMARK  Name = 
REMARK  5 active torsions:
REMARK  status: ('A' for Active; 'I' for Inactive)
REMARK    1  A    between atoms: C_2  and  C_4
REMARK    2  A    between atoms: C_8  and  O_9
REMARK    3  A    between atoms: O_9  and  C_10
REMARK    4  A    between atoms: C_10  and  C_11
REMARK    5  A    between atoms: C_16  and  C_17
REMARK                            x       y       z     vdW  Elec       q    Type
REMARK                         _______ _______ _______ _____ _____    ______ ____
ROOT
ATOM      1  C   UNL     1      45.368   5.538  11.959  0.00  0.00    +0.000 C 
ENDROOT
BRANCH   1   2
ATOM      2  C   UNL     1      45.784   6.984  12.026  0.00  0.00    +0.000 A 
ATOM      3  C   UNL     1      44.855   8.023  12.023  0.00  0.00    +0.000 A 
ATOM      4  C   UNL     1      45.305   9.336  12.040  0.00  0.00    +0.000 A 
ATOM      5  F   UNL     1      44.414  10.335  12.022  0.00  0.00    +0.000 F 
ATOM      6  C   UNL     1      46.668   9.639  12.065  0.00  0.00    +0.000 A 
ATOM      7  C   UNL     1      47.622   8.613  12.083  0.00  0.00    +0.000 A 
ATOM      8  C   UNL     1      47.150   7.295  12.076  0.00  0.00    +0.000 A 
BRANCH   7   9
ATOM      9  C   UNL     1      49.108   8.946  12.104  0.00  0.00    +0.000 C 
ATOM     10  C   UNL     1      50.003   7.790  12.582  0.00  0.00    +0.000 C 
ATOM     11  C   UNL     1      50.077   7.650  14.103  0.00  0.00    +0.000 C 
ATOM     12  N   UNL     1      50.391   8.905  14.787  0.00  0.00    +0.000 NA
ATOM     13  C   UNL     1      49.513  10.012  14.402  0.00  0.00    +0.000 C 
ATOM     14  C   UNL     1      49.439  10.225  12.891  0.00  0.00    +0.000 C 
ATOM     15  H   UNL     1      51.354   9.162  14.575  0.00  0.00    +0.000 HD
ENDBRANCH   7   9
ENDBRANCH   1   2
BRANCH   1  16
ATOM     16  O   UNL     1      44.490   5.348  10.848  0.00  0.00    +0.000 OA
BRANCH  16  21
ATOM     17  C   UNL     1      45.880   3.250   8.142  0.00  0.00    +0.000 A 
ATOM     18  N   UNL     1      45.253   2.057   8.381  0.00  0.00    +0.000 NA
ATOM     19  C   UNL     1      44.416   2.024   9.441  0.00  0.00    +0.000 A 
ATOM     20  C   UNL     1      44.169   3.116  10.262  0.00  0.00    +0.000 A 
ATOM     21  C   UNL     1      44.813   4.325   9.992  0.00  0.00    +0.000 A 
ATOM     22  C   UNL     1      45.695   4.388   8.913  0.00  0.00    +0.000 A 
ATOM     23  F   UNL     1      46.347   5.521   8.620  0.00  0.00    +0.000 F 
BRANCH  17  25
ATOM     24  N   UNL     1      47.835   2.396   6.996  0.00  0.00    +0.000 N 
ATOM     25  C   UNL     1      46.799   3.290   6.962  0.00  0.00    +0.000 C 
ATOM     26  O   UNL     1      46.662   4.050   6.013  0.00  0.00    +0.000 OA
ATOM     27  H   UNL     1      48.480   2.368   6.220  0.00  0.00    +0.000 HD
ATOM     28  H   UNL     1      47.939   1.765   7.782  0.00  0.00    +0.000 HD
ENDBRANCH  17  25
ENDBRANCH  16  21
ENDBRANCH   1  16
TORSDOF 5
ENDMDL
MODEL 9
REMARK VINA RESULT:    -6.517      2.647      7.765
REMARK INTER + INTRA:          -9.048
REMARK INTER:                  -8.252
REMARK INTRA:                  -0.796
REMARK UNBOUND:                -0.626
REMARK  Name = 
REMARK  5 active torsions:
REMARK  status: ('A' for Active; 'I' for Inactive)
REMARK    1  A    between atoms: C_2  and  C_4
REMARK    2  A    between atoms: C_8  and  O_9
REMARK    3  A    between atoms: O_9  and  C_10
REMARK    4  A    between atoms: C_10  and  C_11
REMARK    5  A    between atoms: C_16  and  C_17
REMARK                            x       y       z     vdW  Elec       q    Type
REMARK                         _______ _______ _______ _____ _____    ______ ____
ROOT
ATOM      1  C   UNL     1      48.397   6.974  14.194  0.00  0.00    +0.000 C 
ENDROOT
BRANCH   1   2
ATOM      2  C   UNL     1      48.833   7.146  15.625  0.00  0.00    +0.000 A 
ATOM      3  C   UNL     1      48.776   8.379  16.273  0.00  0.00    +0.000 A 
ATOM      4  C   UNL     1      49.236   8.480  17.579  0.00  0.00    +0.000 A 
ATOM      5  F   UNL     1      49.195   9.667  18.198  0.00  0.00    +0.000 F 
ATOM      6  C   UNL     1      49.752   7.375  18.259  0.00  0.00    +0.000 A 
ATOM      7  C   UNL     1      49.807   6.122  17.634  0.00  0.00    +0.000 A 
ATOM      8  C   UNL     1      49.329   6.035  16.321  0.00  0.00    +0.000 A 
BRANCH   7   9
ATOM      9  C   UNL     1      50.375   4.919  18.376  0.00  0.00    +0.000 C 
ATOM     10  C   UNL     1      49.868   3.564  17.854  0.00  0.00    +0.000 C 
ATOM     11  C   UNL     1      48.492   3.167  18.391  0.00  0.00    +0.000 C 
ATOM     12  N   UNL     1      48.387   3.267  19.848  0.00  0.00    +0.000 NA
ATOM     13  C   UNL     1      48.801   4.571  20.372  0.00  0.00    +0.000 C 
ATOM     14  C   UNL     1      50.191   4.995  19.900  0.00  0.00    +0.000 C 
ATOM     15  H   UNL     1      48.969   2.545  20.269  0.00  0.00    +0.000 HD
ENDBRANCH   7   9
ENDBRANCH   1   2
BRANCH   1  16
ATOM     16  O   UNL     1      47.906   5.646  14.004  0.00  0.00    +0.000 OA
BRANCH  16  21
ATOM     17  C   UNL     1      45.028   4.414  12.041  0.00  0.00    +0.000 A 
ATOM     18  N   UNL     1      44.462   5.590  11.630  0.00  0.00    +0.000 NA
ATOM     19  C   UNL     1      45.070   6.722  12.048  0.00  0.00    +0.000 A 
ATOM     20  C   UNL     1      46.210   6.738  12.840  0.00  0.00    +0.000 A 
ATOM     21  C   UNL     1      46.773   5.525  13.238  0.00  0.00    +0.000 A 
ATOM     22  C   UNL     1      46.162   4.337  12.835  0.00  0.00    +0.000 A 
ATOM     23  F   UNL     1      46.658   3.147  13.201  0.00  0.00    +0.000 F 
BRANCH  17  25
ATOM     24  N   UNL     1      43.703   2.448  12.537  0.00  0.00    +0.000 N 
ATOM     25  C   UNL     1      44.363   3.159  11.570  0.00  0.00    +0.000 C 
ATOM     26  O   UNL     1      44.379   2.768  10.411  0.00  0.00    +0.000 OA
ATOM     27  H   UNL     1      43.224   1.599  12.275  0.00  0.00    +0.000 HD
ATOM     28  H   UNL     1      43.688   2.781  13.493  0.00  0.00    +0.000 HD
ENDBRANCH  17  25
ENDBRANCH  16  21
ENDBRANCH   1  16
TORSDOF 5
ENDMDL
