MODEL 1
REMARK VINA RESULT:    -7.226      0.000      0.000
REMARK INTER + INTRA:          -9.490
REMARK INTER:                  -8.916
REMARK INTRA:                  -0.574
REMARK UNBOUND:                -0.574
REMARK  Name = 
REMARK  6 active torsions:
REMARK  status: ('A' for Active; 'I' for Inactive)
REMARK    1  A    between atoms: C_1  and  C_2
REMARK    2  A    between atoms: C_4  and  C_5
REMARK    3  A    between atoms: C_7  and  O_8
REMARK    4  A    between atoms: O_8  and  C_9
REMARK    5  A    between atoms: C_9  and  C_10
REMARK    6  A    between atoms: C_14  and  C_15
REMARK                            x       y       z     vdW  Elec       q    Type
REMARK                         _______ _______ _______ _____ _____    ______ ____
ROOT
ATOM      1  C   UNL     1      44.235   5.733  11.341  0.00  0.00    +0.000 C 
ATOM      2  C   UNL     1      42.911   6.475  11.143  0.00  0.00    +0.000 C 
ATOM      3  C   UNL     1      43.236   5.886  12.473  0.00  0.00    +0.000 C 
ENDROOT
BRANCH   1   4
ATOM      4  C   UNL     1      44.401   4.333  10.760  0.00  0.00    +0.000 A 
ATOM      5  C   UNL     1      43.589   3.270  11.186  0.00  0.00    +0.000 A 
ATOM      6  C   UNL     1      43.654   2.013  10.588  0.00  0.00    +0.000 A 
ATOM      7  C   UNL     1      44.519   1.799   9.519  0.00  0.00    +0.000 A 
ATOM      8  C   UNL     1      45.348   2.827   9.041  0.00  0.00    +0.000 A 
ATOM      9  C   UNL     1      45.297   4.069   9.708  0.00  0.00    +0.000 A 
BRANCH   8  10
ATOM     10  C   UNL     1      46.185   2.649   7.840  0.00  0.00    +0.000 A 
ATOM     11  C   UNL     1      46.229   3.592   6.805  0.00  0.00    +0.000 A 
ATOM     12  C   UNL     1      46.987   3.356   5.659  0.00  0.00    +0.000 A 
ATOM     13  C   UNL     1      47.706   2.178   5.578  0.00  0.00    +0.000 A 
ATOM     14  N   UNL     1      47.709   1.238   6.545  0.00  0.00    +0.000 NA
ATOM     15  C   UNL     1      46.949   1.494   7.638  0.00  0.00    +0.000 A 
ENDBRANCH   8  10
ENDBRANCH   1   4
BRANCH   1  16
ATOM     16  O   UNL     1      45.334   6.666  11.211  0.00  0.00    +0.000 OA
BRANCH  16  23
ATOM     17  C   UNL     1      49.897   7.961  12.215  0.00  0.00    +0.000 C 
ATOM     18  C   UNL     1      48.659   7.191  12.556  0.00  0.00    +0.000 A 
ATOM     19  C   UNL     1      48.596   6.370  13.688  0.00  0.00    +0.000 A 
ATOM     20  C   UNL     1      47.420   5.670  13.952  0.00  0.00    +0.000 A 
ATOM     21  C   UNL     1      47.323   4.750  15.131  0.00  0.00    +0.000 C 
ATOM     22  N   UNL     1      46.318   5.762  13.172  0.00  0.00    +0.000 NA
ATOM     23  C   UNL     1      46.402   6.543  12.075  0.00  0.00    +0.000 A 
ATOM     24  C   UNL     1      47.534   7.279  11.741  0.00  0.00    +0.000 A 
ENDBRANCH  16  23
ENDBRANCH   1  16
TORSDOF 4
ENDMDL
MODEL 2
REMARK VINA RESULT:    -7.190      2.920      4.495
REMARK INTER + INTRA:          -9.446
REMARK INTER:                  -8.524
REMARK INTRA:                  -0.922
REMARK UNBOUND:                -0.574
REMARK  Name = 
REMARK  6 active torsions:
REMARK  status: ('A' for Active; 'I' for Inactive)
REMARK    1  A    between atoms: C_1  and  C_2
REMARK    2  A    between atoms: C_4  and  C_5
REMARK    3  A    between atoms: C_7  and  O_8
REMARK    4  A    between atoms: O_8  and  C_9
REMARK    5  A    between atoms: C_9  and  C_10
REMARK    6  A    between atoms: C_14  and  C_15
REMARK                            x       y       z     vdW  Elec       q    Type
REMARK                         _______ _______ _______ _____ _____    ______ ____
ROOT
ATOM      1  C   UNL     1      45.974   7.499  12.422  0.00  0.00    +0.000 C 
ATOM      2  C   UNL     1      47.062   7.186  13.451  0.00  0.00    +0.000 C 
ATOM      3  C   UNL     1      47.446   7.539  12.054  0.00  0.00    +0.000 C 
ENDROOT
BRANCH   1   4
ATOM      4  C   UNL     1      45.153   6.358  11.833  0.00  0.00    +0.000 A 
ATOM      5  C   UNL     1      43.799   6.192  12.165  0.00  0.00    +0.000 A 
ATOM      6  C   UNL     1      43.007   5.223  11.552  0.00  0.00    +0.000 A 
ATOM      7  C   UNL     1      43.551   4.410  10.561  0.00  0.00    +0.000 A 
ATOM      8  C   UNL     1      44.896   4.536  10.179  0.00  0.00    +0.000 A 
ATOM      9  C   UNL     1      45.681   5.489  10.861  0.00  0.00    +0.000 A 
BRANCH   8  10
ATOM     10  C   UNL     1      45.456   3.762   9.055  0.00  0.00    +0.000 A 
ATOM     11  C   UNL     1      45.562   2.366   9.080  0.00  0.00    +0.000 A 
ATOM     12  C   UNL     1      46.154   1.678   8.022  0.00  0.00    +0.000 A 
ATOM     13  C   UNL     1      46.618   2.406   6.942  0.00  0.00    +0.000 A 
ATOM     14  N   UNL     1      46.536   3.749   6.859  0.00  0.00    +0.000 NA
ATOM     15  C   UNL     1      45.968   4.387   7.912  0.00  0.00    +0.000 A 
ENDBRANCH   8  10
ENDBRANCH   1   4
BRANCH   1  16
ATOM     16  O   UNL     1      45.287   8.715  12.802  0.00  0.00    +0.000 OA
BRANCH  16  23
ATOM     17  C   UNL     1      42.949  10.754   9.075  0.00  0.00    +0.000 C 
ATOM     18  C   UNL     1      44.083  10.749  10.053  0.00  0.00    +0.000 A 
ATOM     19  C   UNL     1      45.069  11.743  10.036  0.00  0.00    +0.000 A 
ATOM     20  C   UNL     1      46.106  11.684  10.965  0.00  0.00    +0.000 A 
ATOM     21  C   UNL     1      47.203  12.705  10.956  0.00  0.00    +0.000 C 
ATOM     22  N   UNL     1      46.198  10.715  11.905  0.00  0.00    +0.000 NA
ATOM     23  C   UNL     1      45.249   9.756  11.896  0.00  0.00    +0.000 A 
ATOM     24  C   UNL     1      44.179   9.742  11.009  0.00  0.00    +0.000 A 
ENDBRANCH  16  23
ENDBRANCH   1  16
TORSDOF 4
ENDMDL
MODEL 3
REMARK VINA RESULT:    -7.103      2.922      4.348
REMARK INTER + INTRA:          -9.338
REMARK INTER:                  -8.509
REMARK INTRA:                  -0.830
REMARK UNBOUND:                -0.574
REMARK  Name = 
REMARK  6 active torsions:
REMARK  status: ('A' for Active; 'I' for Inactive)
REMARK    1  A    between atoms: C_1  and  C_2
REMARK    2  A    between atoms: C_4  and  C_5
REMARK    3  A    between atoms: C_7  and  O_8
REMARK    4  A    between atoms: O_8  and  C_9
REMARK    5  A    between atoms: C_9  and  C_10
REMARK    6  A    between atoms: C_14  and  C_15
REMARK                            x       y       z     vdW  Elec       q    Type
REMARK                         _______ _______ _______ _____ _____    ______ ____
ROOT
ATOM      1  C   UNL     1      46.055   7.512  12.413  0.00  0.00    +0.000 C 
ATOM      2  C   UNL     1      47.143   7.179  13.437  0.00  0.00    +0.000 C 
ATOM      3  C   UNL     1      47.527   7.536  12.042  0.00  0.00    +0.000 C 
ENDROOT
BRANCH   1   4
ATOM      4  C   UNL     1      45.219   6.385  11.818  0.00  0.00    +0.000 A 
ATOM      5  C   UNL     1      43.864   6.234  12.152  0.00  0.00    +0.000 A 
ATOM      6  C   UNL     1      43.058   5.279  11.535  0.00  0.00    +0.000 A 
ATOM      7  C   UNL     1      43.590   4.466  10.538  0.00  0.00    +0.000 A 
ATOM      8  C   UNL     1      44.935   4.577  10.154  0.00  0.00    +0.000 A 
ATOM      9  C   UNL     1      45.734   5.515  10.840  0.00  0.00    +0.000 A 
BRANCH   8  10
ATOM     10  C   UNL     1      45.483   3.803   9.024  0.00  0.00    +0.000 A 
ATOM     11  C   UNL     1      45.525   2.403   9.019  0.00  0.00    +0.000 A 
ATOM     12  C   UNL     1      46.107   1.712   7.957  0.00  0.00    +0.000 A 
ATOM     13  C   UNL     1      46.627   2.442   6.905  0.00  0.00    +0.000 A 
ATOM     14  N   UNL     1      46.608   3.789   6.850  0.00  0.00    +0.000 NA
ATOM     15  C   UNL     1      46.048   4.428   7.906  0.00  0.00    +0.000 A 
ENDBRANCH   8  10
ENDBRANCH   1   4
BRANCH   1  16
ATOM     16  O   UNL     1      45.385   8.734  12.803  0.00  0.00    +0.000 OA
BRANCH  16  23
ATOM     17  C   UNL     1      47.076  12.797  10.769  0.00  0.00    +0.000 C 
ATOM     18  C   UNL     1      46.041  11.719  10.853  0.00  0.00    +0.000 A 
ATOM     19  C   UNL     1      44.921  11.712  10.014  0.00  0.00    +0.000 A 
ATOM     20  C   UNL     1      43.986  10.687  10.141  0.00  0.00    +0.000 A 
ATOM     21  C   UNL     1      42.753  10.662   9.289  0.00  0.00    +0.000 C 
ATOM     22  N   UNL     1      44.118   9.677  11.032  0.00  0.00    +0.000 NA
ATOM     23  C   UNL     1      45.193   9.709  11.846  0.00  0.00    +0.000 A 
ATOM     24  C   UNL     1      46.176  10.690  11.782  0.00  0.00    +0.000 A 
ENDBRANCH  16  23
ENDBRANCH   1  16
TORSDOF 4
ENDMDL
MODEL 4
REMARK VINA RESULT:    -7.022      1.676      2.825
REMARK INTER + INTRA:          -9.238
REMARK INTER:                  -8.417
REMARK INTRA:                  -0.821
REMARK UNBOUND:                -0.574
REMARK  Name = 
REMARK  6 active torsions:
REMARK  status: ('A' for Active; 'I' for Inactive)
REMARK    1  A    between atoms: C_1  and  C_2
REMARK    2  A    between atoms: C_4  and  C_5
REMARK    3  A    between atoms: C_7  and  O_8
REMARK    4  A    between atoms: O_8  and  C_9
REMARK    5  A    between atoms: C_9  and  C_10
REMARK    6  A    between atoms: C_14  and  C_15
REMARK                            x       y       z     vdW  Elec       q    Type
REMARK                         _______ _______ _______ _____ _____    ______ ____
ROOT
ATOM      1  C   UNL     1      46.308   7.390  12.293  0.00  0.00    +0.000 C 
ATOM      2  C   UNL     1      46.286   8.839  11.798  0.00  0.00    +0.000 C 
ATOM      3  C   UNL     1      45.649   8.493  13.101  0.00  0.00    +0.000 C 
ENDROOT
BRANCH   1   4
ATOM      4  C   UNL     1      45.380   6.367  11.649  0.00  0.00    +0.000 A 
ATOM      5  C   UNL     1      43.991   6.424  11.843  0.00  0.00    +0.000 A 
ATOM      6  C   UNL     1      43.121   5.565  11.174  0.00  0.00    +0.000 A 
ATOM      7  C   UNL     1      43.626   4.640  10.264  0.00  0.00    +0.000 A 
ATOM      8  C   UNL     1      45.005   4.543  10.020  0.00  0.00    +0.000 A 
ATOM      9  C   UNL     1      45.859   5.390  10.757  0.00  0.00    +0.000 A 
BRANCH   8  10
ATOM     10  C   UNL     1      45.545   3.649   8.979  0.00  0.00    +0.000 A 
ATOM     11  C   UNL     1      45.509   2.253   9.091  0.00  0.00    +0.000 A 
ATOM     12  C   UNL     1      46.085   1.445   8.112  0.00  0.00    +0.000 A 
ATOM     13  C   UNL     1      46.678   2.056   7.022  0.00  0.00    +0.000 A 
ATOM     14  N   UNL     1      46.735   3.392   6.856  0.00  0.00    +0.000 NA
ATOM     15  C   UNL     1      46.179   4.147   7.834  0.00  0.00    +0.000 A 
ENDBRANCH   8  10
ENDBRANCH   1   4
BRANCH   1  16
ATOM     16  O   UNL     1      47.673   6.999  12.576  0.00  0.00    +0.000 OA
BRANCH  16  23
ATOM     17  C   UNL     1      50.060   8.057  16.662  0.00  0.00    +0.000 C 
ATOM     18  C   UNL     1      49.175   7.142  15.872  0.00  0.00    +0.000 A 
ATOM     19  C   UNL     1      48.706   5.937  16.406  0.00  0.00    +0.000 A 
ATOM     20  C   UNL     1      47.891   5.121  15.623  0.00  0.00    +0.000 A 
ATOM     21  C   UNL     1      47.398   3.804  16.142  0.00  0.00    +0.000 C 
ATOM     22  N   UNL     1      47.511   5.450  14.366  0.00  0.00    +0.000 NA
ATOM     23  C   UNL     1      47.987   6.606  13.861  0.00  0.00    +0.000 A 
ATOM     24  C   UNL     1      48.799   7.480  14.575  0.00  0.00    +0.000 A 
ENDBRANCH  16  23
ENDBRANCH   1  16
TORSDOF 4
ENDMDL
MODEL 5
REMARK VINA RESULT:    -6.952      2.732      5.445
REMARK INTER + INTRA:          -9.151
REMARK INTER:                  -8.218
REMARK INTRA:                  -0.934
REMARK UNBOUND:                -0.574
REMARK  Name = 
REMARK  6 active torsions:
REMARK  status: ('A' for Active; 'I' for Inactive)
REMARK    1  A    between atoms: C_1  and  C_2
REMARK    2  A    between atoms: C_4  and  C_5
REMARK    3  A    between atoms: C_7  and  O_8
REMARK    4  A    between atoms: O_8  and  C_9
REMARK    5  A    between atoms: C_9  and  C_10
REMARK    6  A    between atoms: C_14  and  C_15
REMARK                            x       y       z     vdW  Elec       q    Type
REMARK                         _______ _______ _______ _____ _____    ______ ____
ROOT
ATOM      1  C   UNL     1      49.073   7.651  14.018  0.00  0.00    +0.000 C 
ATOM      2  C   UNL     1      50.206   8.225  13.166  0.00  0.00    +0.000 C 
ATOM      3  C   UNL     1      49.651   9.027  14.293  0.00  0.00    +0.000 C 
ENDROOT
BRANCH   1   4
ATOM      4  C   UNL     1      47.659   7.605  13.450  0.00  0.00    +0.000 A 
ATOM      5  C   UNL     1      46.810   8.720  13.527  0.00  0.00    +0.000 A 
ATOM      6  C   UNL     1      45.557   8.731  12.916  0.00  0.00    +0.000 A 
ATOM      7  C   UNL     1      45.136   7.626  12.181  0.00  0.00    +0.000 A 
ATOM      8  C   UNL     1      45.947   6.486  12.059  0.00  0.00    +0.000 A 
ATOM      9  C   UNL     1      47.182   6.489  12.738  0.00  0.00    +0.000 A 
BRANCH   8  10
ATOM     10  C   UNL     1      45.564   5.355  11.193  0.00  0.00    +0.000 A 
ATOM     11  C   UNL     1      45.645   5.414   9.796  0.00  0.00    +0.000 A 
ATOM     12  C   UNL     1      45.216   4.345   9.012  0.00  0.00    +0.000 A 
ATOM     13  C   UNL     1      44.723   3.220   9.648  0.00  0.00    +0.000 A 
ATOM     14  N   UNL     1      44.628   3.103  10.987  0.00  0.00    +0.000 NA
ATOM     15  C   UNL     1      45.041   4.168  11.718  0.00  0.00    +0.000 A 
ENDBRANCH   8  10
ENDBRANCH   1   4
BRANCH   1  16
ATOM     16  O   UNL     1      49.557   6.500  14.751  0.00  0.00    +0.000 OA
BRANCH  16  23
ATOM     17  C   UNL     1      48.212   7.838  19.212  0.00  0.00    +0.000 C 
ATOM     18  C   UNL     1      48.250   6.818  18.117  0.00  0.00    +0.000 A 
ATOM     19  C   UNL     1      47.670   5.554  18.273  0.00  0.00    +0.000 A 
ATOM     20  C   UNL     1      47.743   4.641  17.222  0.00  0.00    +0.000 A 
ATOM     21  C   UNL     1      47.169   3.263  17.361  0.00  0.00    +0.000 C 
ATOM     22  N   UNL     1      48.336   4.926  16.039  0.00  0.00    +0.000 NA
ATOM     23  C   UNL     1      48.906   6.142  15.913  0.00  0.00    +0.000 A 
ATOM     24  C   UNL     1      48.874   7.112  16.908  0.00  0.00    +0.000 A 
ENDBRANCH  16  23
ENDBRANCH   1  16
TORSDOF 4
ENDMDL
MODEL 6
REMARK VINA RESULT:    -6.654      2.767      5.614
REMARK INTER + INTRA:          -8.785
REMARK INTER:                  -7.750
REMARK INTRA:                  -1.035
REMARK UNBOUND:                -0.574
REMARK  Name = 
REMARK  6 active torsions:
REMARK  status: ('A' for Active; 'I' for Inactive)
REMARK    1  A    between atoms: C_1  and  C_2
REMARK    2  A    between atoms: C_4  and  C_5
REMARK    3  A    between atoms: C_7  and  O_8
REMARK    4  A    between atoms: O_8  and  C_9
REMARK    5  A    between atoms: C_9  and  C_10
REMARK    6  A    between atoms: C_14  and  C_15
REMARK                            x       y       z     vdW  Elec       q    Type
REMARK                         _______ _______ _______ _____ _____    ______ ____
ROOT
ATOM      1  C   UNL     1      49.075   7.641  13.990  0.00  0.00    +0.000 C 
ATOM      2  C   UNL     1      50.203   8.127  13.077  0.00  0.00    +0.000 C 
ATOM      3  C   UNL     1      49.687   9.020  14.154  0.00  0.00    +0.000 C 
ENDROOT
BRANCH   1   4
ATOM      4  C   UNL     1      47.649   7.586  13.452  0.00  0.00    +0.000 A 
ATOM      5  C   UNL     1      46.809   8.709  13.507  0.00  0.00    +0.000 A 
ATOM      6  C   UNL     1      45.545   8.709  12.922  0.00  0.00    +0.000 A 
ATOM      7  C   UNL     1      45.101   7.582  12.235  0.00  0.00    +0.000 A 
ATOM      8  C   UNL     1      45.901   6.432  12.136  0.00  0.00    +0.000 A 
ATOM      9  C   UNL     1      47.150   6.450  12.789  0.00  0.00    +0.000 A 
BRANCH   8  10
ATOM     10  C   UNL     1      45.493   5.275  11.318  0.00  0.00    +0.000 A 
ATOM     11  C   UNL     1      45.520   5.294   9.918  0.00  0.00    +0.000 A 
ATOM     12  C   UNL     1      45.068   4.200   9.182  0.00  0.00    +0.000 A 
ATOM     13  C   UNL     1      44.608   3.091   9.868  0.00  0.00    +0.000 A 
ATOM     14  N   UNL     1      44.566   3.012  11.213  0.00  0.00    +0.000 NA
ATOM     15  C   UNL     1      44.999   4.100  11.896  0.00  0.00    +0.000 A 
ENDBRANCH   8  10
ENDBRANCH   1   4
BRANCH   1  16
ATOM     16  O   UNL     1      49.549   6.536  14.795  0.00  0.00    +0.000 OA
BRANCH  16  23
ATOM     17  C   UNL     1      47.137   3.311  17.494  0.00  0.00    +0.000 C 
ATOM     18  C   UNL     1      47.724   4.676  17.315  0.00  0.00    +0.000 A 
ATOM     19  C   UNL     1      47.620   5.655  18.311  0.00  0.00    +0.000 A 
ATOM     20  C   UNL     1      48.179   6.911  18.087  0.00  0.00    +0.000 A 
ATOM     21  C   UNL     1      48.056   7.999  19.110  0.00  0.00    +0.000 C 
ATOM     22  N   UNL     1      48.842   7.230  16.951  0.00  0.00    +0.000 NA
ATOM     23  C   UNL     1      48.917   6.281  15.995  0.00  0.00    +0.000 A 
ATOM     24  C   UNL     1      48.393   5.002  16.138  0.00  0.00    +0.000 A 
ENDBRANCH  16  23
ENDBRANCH   1  16
TORSDOF 4
ENDMDL
MODEL 7
REMARK VINA RESULT:    -6.249      3.706      6.599
REMARK INTER + INTRA:          -8.285
REMARK INTER:                  -7.581
REMARK INTRA:                  -0.704
REMARK UNBOUND:                -0.574
REMARK  Name = 
REMARK  6 active torsions:
REMARK  status: ('A' for Active; 'I' for Inactive)
REMARK    1  A    between atoms: C_1  and  C_2
REMARK    2  A    between atoms: C_4  and  C_5
REMARK    3  A    between atoms: C_7  and  O_8
REMARK    4  A    between atoms: O_8  and  C_9
REMARK    5  A    between atoms: C_9  and  C_10
REMARK    6  A    between atoms: C_14  and  C_15
REMARK                            x       y       z     vdW  Elec       q    Type
REMARK                         _______ _______ _______ _____ _____    ______ ____
ROOT
ATOM      1  C   UNL     1      49.478   7.508  15.428  0.00  0.00    +0.000 C 
ATOM      2  C   UNL     1      50.075   8.839  15.890  0.00  0.00    +0.000 C 
ATOM      3  C   UNL     1      48.756   8.396  16.425  0.00  0.00    +0.000 C 
ENDROOT
BRANCH   1   4
ATOM      4  C   UNL     1      48.866   7.406  14.035  0.00  0.00    +0.000 A 
ATOM      5  C   UNL     1      49.540   7.907  12.910  0.00  0.00    +0.000 A 
ATOM      6  C   UNL     1      49.047   7.724  11.619  0.00  0.00    +0.000 A 
ATOM      7  C   UNL     1      47.872   7.003  11.423  0.00  0.00    +0.000 A 
ATOM      8  C   UNL     1      47.161   6.469  12.509  0.00  0.00    +0.000 A 
ATOM      9  C   UNL     1      47.659   6.722  13.803  0.00  0.00    +0.000 A 
BRANCH   8  10
ATOM     10  C   UNL     1      45.979   5.608  12.311  0.00  0.00    +0.000 A 
ATOM     11  C   UNL     1      45.235   5.610  11.124  0.00  0.00    +0.000 A 
ATOM     12  C   UNL     1      44.089   4.826  11.001  0.00  0.00    +0.000 A 
ATOM     13  C   UNL     1      43.716   4.036  12.072  0.00  0.00    +0.000 A 
ATOM     14  N   UNL     1      44.396   3.986  13.235  0.00  0.00    +0.000 NA
ATOM     15  C   UNL     1      45.497   4.773  13.325  0.00  0.00    +0.000 A 
ENDBRANCH   8  10
ENDBRANCH   1   4
BRANCH   1  16
ATOM     16  O   UNL     1      50.310   6.419  15.895  0.00  0.00    +0.000 OA
BRANCH  16  23
ATOM     17  C   UNL     1      50.685   5.002  20.516  0.00  0.00    +0.000 C 
ATOM     18  C   UNL     1      50.019   4.910  19.178  0.00  0.00    +0.000 A 
ATOM     19  C   UNL     1      48.963   4.022  18.945  0.00  0.00    +0.000 A 
ATOM     20  C   UNL     1      48.386   3.974  17.677  0.00  0.00    +0.000 A 
ATOM     21  C   UNL     1      47.278   3.011  17.374  0.00  0.00    +0.000 C 
ATOM     22  N   UNL     1      48.788   4.765  16.655  0.00  0.00    +0.000 NA
ATOM     23  C   UNL     1      49.819   5.601  16.892  0.00  0.00    +0.000 A 
ATOM     24  C   UNL     1      50.447   5.717  18.127  0.00  0.00    +0.000 A 
ENDBRANCH  16  23
ENDBRANCH   1  16
TORSDOF 4
ENDMDL
MODEL 8
REMARK VINA RESULT:    -6.169      4.467      9.775
REMARK INTER + INTRA:          -8.186
REMARK INTER:                  -7.289
REMARK INTRA:                  -0.896
REMARK UNBOUND:                -0.574
REMARK  Name = 
REMARK  6 active torsions:
REMARK  status: ('A' for Active; 'I' for Inactive)
REMARK    1  A    between atoms: C_1  and  C_2
REMARK    2  A    between atoms: C_4  and  C_5
REMARK    3  A    between atoms: C_7  and  O_8
REMARK    4  A    between atoms: O_8  and  C_9
REMARK    5  A    between atoms: C_9  and  C_10
REMARK    6  A    between atoms: C_14  and  C_15
REMARK                            x       y       z     vdW  Elec       q    Type
REMARK                         _______ _______ _______ _____ _____    ______ ____
ROOT
ATOM      1  C   UNL     1      47.935   4.410  16.375  0.00  0.00    +0.000 C 
ATOM      2  C   UNL     1      48.223   3.065  17.047  0.00  0.00    +0.000 C 
ATOM      3  C   UNL     1      46.891   3.709  17.226  0.00  0.00    +0.000 C 
ENDROOT
BRANCH   1   4
ATOM      4  C   UNL     1      48.548   5.680  16.953  0.00  0.00    +0.000 A 
ATOM      5  C   UNL     1      49.624   6.319  16.318  0.00  0.00    +0.000 A 
ATOM      6  C   UNL     1      50.124   7.539  16.771  0.00  0.00    +0.000 A 
ATOM      7  C   UNL     1      49.531   8.166  17.863  0.00  0.00    +0.000 A 
ATOM      8  C   UNL     1      48.444   7.581  18.533  0.00  0.00    +0.000 A 
ATOM      9  C   UNL     1      48.003   6.320  18.081  0.00  0.00    +0.000 A 
BRANCH   8  10
ATOM     10  C   UNL     1      47.735   8.285  19.618  0.00  0.00    +0.000 A 
ATOM     11  C   UNL     1      47.154   9.547  19.444  0.00  0.00    +0.000 A 
ATOM     12  C   UNL     1      46.545  10.204  20.512  0.00  0.00    +0.000 A 
ATOM     13  C   UNL     1      46.516   9.572  21.741  0.00  0.00    +0.000 A 
ATOM     14  N   UNL     1      47.051   8.355  21.967  0.00  0.00    +0.000 NA
ATOM     15  C   UNL     1      47.648   7.752  20.909  0.00  0.00    +0.000 A 
ENDBRANCH   8  10
ENDBRANCH   1   4
BRANCH   1  16
ATOM     16  O   UNL     1      47.932   4.239  14.938  0.00  0.00    +0.000 OA
BRANCH  16  23
ATOM     17  C   UNL     1      46.685   8.203  12.440  0.00  0.00    +0.000 C 
ATOM     18  C   UNL     1      46.352   6.845  12.975  0.00  0.00    +0.000 A 
ATOM     19  C   UNL     1      45.099   6.261  12.759  0.00  0.00    +0.000 A 
ATOM     20  C   UNL     1      44.841   4.997  13.287  0.00  0.00    +0.000 A 
ATOM     21  C   UNL     1      43.499   4.351  13.112  0.00  0.00    +0.000 C 
ATOM     22  N   UNL     1      45.758   4.292  13.990  0.00  0.00    +0.000 NA
ATOM     23  C   UNL     1      46.953   4.878  14.205  0.00  0.00    +0.000 A 
ATOM     24  C   UNL     1      47.295   6.131  13.709  0.00  0.00    +0.000 A 
ENDBRANCH  16  23
ENDBRANCH   1  16
TORSDOF 4
ENDMDL
MODEL 9
REMARK VINA RESULT:    -5.933      4.042      6.840
REMARK INTER + INTRA:          -7.895
REMARK INTER:                  -7.145
REMARK INTRA:                  -0.749
REMARK UNBOUND:                -0.574
REMARK  Name = 
REMARK  6 active torsions:
REMARK  status: ('A' for Active; 'I' for Inactive)
REMARK    1  A    between atoms: C_1  and  C_2
REMARK    2  A    between atoms: C_4  and  C_5
REMARK    3  A    between atoms: C_7  and  O_8
REMARK    4  A    between atoms: O_8  and  C_9
REMARK    5  A    between atoms: C_9  and  C_10
REMARK    6  A    between atoms: C_14  and  C_15
REMARK                            x       y       z     vdW  Elec       q    Type
REMARK                         _______ _______ _______ _____ _____    ______ ____
ROOT
ATOM      1  C   UNL     1      47.989   4.239  16.896  0.00  0.00    +0.000 C 
ATOM      2  C   UNL     1      48.296   2.744  16.782  0.00  0.00    +0.000 C 
ATOM      3  C   UNL     1      49.402   3.707  17.050  0.00  0.00    +0.000 C 
ENDROOT
BRANCH   1   4
ATOM      4  C   UNL     1      47.694   5.039  15.633  0.00  0.00    +0.000 A 
ATOM      5  C   UNL     1      48.480   6.147  15.276  0.00  0.00    +0.000 A 
ATOM      6  C   UNL     1      48.292   6.821  14.071  0.00  0.00    +0.000 A 
ATOM      7  C   UNL     1      47.324   6.378  13.174  0.00  0.00    +0.000 A 
ATOM      8  C   UNL     1      46.515   5.269  13.471  0.00  0.00    +0.000 A 
ATOM      9  C   UNL     1      46.694   4.648  14.724  0.00  0.00    +0.000 A 
BRANCH   8  10
ATOM     10  C   UNL     1      45.564   4.720  12.486  0.00  0.00    +0.000 A 
ATOM     11  C   UNL     1      44.651   3.706  12.802  0.00  0.00    +0.000 A 
ATOM     12  C   UNL     1      43.812   3.173  11.825  0.00  0.00    +0.000 A 
ATOM     13  C   UNL     1      43.893   3.680  10.542  0.00  0.00    +0.000 A 
ATOM     14  N   UNL     1      44.746   4.660  10.180  0.00  0.00    +0.000 NA
ATOM     15  C   UNL     1      45.557   5.144  11.152  0.00  0.00    +0.000 A 
ENDBRANCH   8  10
ENDBRANCH   1   4
BRANCH   1  16
ATOM     16  O   UNL     1      47.171   4.474  18.067  0.00  0.00    +0.000 OA
BRANCH  16  23
ATOM     17  C   UNL     1      47.332   9.045  19.676  0.00  0.00    +0.000 C 
ATOM     18  C   UNL     1      47.714   7.604  19.813  0.00  0.00    +0.000 A 
ATOM     19  C   UNL     1      48.529   7.159  20.861  0.00  0.00    +0.000 A 
ATOM     20  C   UNL     1      48.860   5.808  20.934  0.00  0.00    +0.000 A 
ATOM     21  C   UNL     1      49.761   5.296  22.018  0.00  0.00    +0.000 C 
ATOM     22  N   UNL     1      48.412   4.891  20.046  0.00  0.00    +0.000 NA
ATOM     23  C   UNL     1      47.643   5.339  19.032  0.00  0.00    +0.000 A 
ATOM     24  C   UNL     1      47.261   6.668  18.887  0.00  0.00    +0.000 A 
ENDBRANCH  16  23
ENDBRANCH   1  16
TORSDOF 4
ENDMDL
