MODEL 1
REMARK VINA RESULT:    -8.427      0.000      0.000
REMARK INTER + INTRA:         -14.048
REMARK INTER:                 -12.614
REMARK INTRA:                  -1.434
REMARK UNBOUND:                -1.434
REMARK  Name = 
REMARK  9 active torsions:
REMARK  status: ('A' for Active; 'I' for Inactive)
REMARK    1  A    between atoms: C_2  and  C_3
REMARK    2  A    between atoms: C_2  and  C_20
REMARK    3  A    between atoms: C_3  and  C_4
REMARK    4  A    between atoms: C_4  and  C_5
REMARK    5  A    between atoms: C_8  and  C_9
REMARK    6  A    between atoms: C_9  and  N_10
REMARK    7  A    between atoms: N_10  and  C_11
REMARK    8  A    between atoms: C_11  and  C_12
REMARK    9  A    between atoms: C_24  and  O_25
REMARK                            x       y       z     vdW  Elec       q    Type
REMARK                         _______ _______ _______ _____ _____    ______ ____
ROOT
ATOM      1  C   UNL     1      47.131   8.512  12.476  0.00  0.00    +0.000 C 
ENDROOT
BRANCH   1   2
ATOM      2  C   UNL     1      46.180   7.462  11.963  0.00  0.00    +0.000 A 
ATOM      3  C   UNL     1      46.571   6.591  10.941  0.00  0.00    +0.000 A 
ATOM      4  C   UNL     1      45.718   5.580  10.515  0.00  0.00    +0.000 A 
ATOM      5  C   UNL     1      44.482   5.371  11.144  0.00  0.00    +0.000 A 
ATOM      6  C   UNL     1      44.078   6.264  12.144  0.00  0.00    +0.000 A 
ATOM      7  C   UNL     1      44.918   7.304  12.546  0.00  0.00    +0.000 A 
BRANCH   5   8
ATOM      8  C   UNL     1      43.576   4.219  10.775  0.00  0.00    +0.000 C 
BRANCH   8   9
ATOM      9  N   UNL     1      43.761   3.695   9.422  0.00  0.00    +0.000 NA
ATOM     10  H   UNL     1      44.264   4.374   8.856  0.00  0.00    +0.000 HD
BRANCH   9  11
ATOM     11  C   UNL     1      44.444   2.399   9.394  0.00  0.00    +0.000 C 
BRANCH  11  12
ATOM     12  C   UNL     1      45.745   2.512   8.585  0.00  0.00    +0.000 C 
ATOM     13  C   UNL     1      45.582   3.511   7.429  0.00  0.00    +0.000 C 
ATOM     14  C   UNL     1      46.826   3.577   6.557  0.00  0.00    +0.000 C 
ATOM     15  C   UNL     1      47.205   2.198   6.033  0.00  0.00    +0.000 C 
ATOM     16  C   UNL     1      47.405   1.207   7.175  0.00  0.00    +0.000 C 
ATOM     17  C   UNL     1      46.171   1.127   8.069  0.00  0.00    +0.000 C 
ENDBRANCH  11  12
ENDBRANCH   9  11
ENDBRANCH   8   9
ENDBRANCH   5   8
ENDBRANCH   1   2
BRANCH   1  18
ATOM     18  C   UNL     1      47.605   8.235  13.897  0.00  0.00    +0.000 C 
BRANCH  18  20
ATOM     19  O   UNL     1      49.545   6.895  13.447  0.00  0.00    +0.000 OA
ATOM     20  C   UNL     1      48.430   6.966  13.965  0.00  0.00    +0.000 C 
BRANCH  20  21
ATOM     21  C   UNL     1      47.871   5.824  14.677  0.00  0.00    +0.000 A 
ATOM     22  C   UNL     1      46.987   4.910  14.125  0.00  0.00    +0.000 A 
ATOM     23  N   UNL     1      46.667   3.981  15.079  0.00  0.00    +0.000 N 
ATOM     24  C   UNL     1      47.322   4.270  16.248  0.00  0.00    +0.000 A 
ATOM     25  C   UNL     1      47.356   3.681  17.495  0.00  0.00    +0.000 A 
ATOM     26  N   UNL     1      48.126   4.215  18.456  0.00  0.00    +0.000 NA
ATOM     27  C   UNL     1      48.832   5.315  18.144  0.00  0.00    +0.000 A 
ATOM     28  N   UNL     1      48.868   5.961  16.974  0.00  0.00    +0.000 NA
ATOM     29  C   UNL     1      48.086   5.410  16.020  0.00  0.00    +0.000 A 
ATOM     30  H   UNL     1      46.038   3.203  14.930  0.00  0.00    +0.000 HD
BRANCH  25  31
ATOM     31  O   UNL     1      46.645   2.566  17.852  0.00  0.00    +0.000 OA
ATOM     32  H   UNL     1      46.635   1.959  17.104  0.00  0.00    +0.000 HD
ENDBRANCH  25  31
ENDBRANCH  20  21
ENDBRANCH  18  20
ENDBRANCH   1  18
TORSDOF 9
ENDMDL
MODEL 2
REMARK VINA RESULT:    -8.156      1.347      2.107
REMARK INTER + INTRA:         -13.643
REMARK INTER:                 -12.391
REMARK INTRA:                  -1.252
REMARK UNBOUND:                -1.434
REMARK  Name = 
REMARK  9 active torsions:
REMARK  status: ('A' for Active; 'I' for Inactive)
REMARK    1  A    between atoms: C_2  and  C_3
REMARK    2  A    between atoms: C_2  and  C_20
REMARK    3  A    between atoms: C_3  and  C_4
REMARK    4  A    between atoms: C_4  and  C_5
REMARK    5  A    between atoms: C_8  and  C_9
REMARK    6  A    between atoms: C_9  and  N_10
REMARK    7  A    between atoms: N_10  and  C_11
REMARK    8  A    between atoms: C_11  and  C_12
REMARK    9  A    between atoms: C_24  and  O_25
REMARK                            x       y       z     vdW  Elec       q    Type
REMARK                         _______ _______ _______ _____ _____    ______ ____
ROOT
ATOM      1  C   UNL     1      48.386   6.573  13.067  0.00  0.00    +0.000 C 
ENDROOT
BRANCH   1   2
ATOM      2  C   UNL     1      47.102   5.943  12.595  0.00  0.00    +0.000 A 
ATOM      3  C   UNL     1      46.531   6.327  11.378  0.00  0.00    +0.000 A 
ATOM      4  C   UNL     1      45.382   5.698  10.911  0.00  0.00    +0.000 A 
ATOM      5  C   UNL     1      44.814   4.627  11.615  0.00  0.00    +0.000 A 
ATOM      6  C   UNL     1      45.367   4.266  12.850  0.00  0.00    +0.000 A 
ATOM      7  C   UNL     1      46.499   4.922  13.338  0.00  0.00    +0.000 A 
BRANCH   5   8
ATOM      8  C   UNL     1      43.627   3.855  11.086  0.00  0.00    +0.000 C 
BRANCH   8   9
ATOM      9  N   UNL     1      43.740   3.426   9.693  0.00  0.00    +0.000 NA
ATOM     10  H   UNL     1      44.160   4.167   9.137  0.00  0.00    +0.000 HD
BRANCH   9  11
ATOM     11  C   UNL     1      44.492   2.178   9.533  0.00  0.00    +0.000 C 
BRANCH  11  12
ATOM     12  C   UNL     1      45.738   2.427   8.670  0.00  0.00    +0.000 C 
ATOM     13  C   UNL     1      45.444   3.465   7.576  0.00  0.00    +0.000 C 
ATOM     14  C   UNL     1      46.634   3.666   6.650  0.00  0.00    +0.000 C 
ATOM     15  C   UNL     1      47.084   2.346   6.039  0.00  0.00    +0.000 C 
ATOM     16  C   UNL     1      47.414   1.318   7.117  0.00  0.00    +0.000 C 
ATOM     17  C   UNL     1      46.236   1.104   8.063  0.00  0.00    +0.000 C 
ENDBRANCH  11  12
ENDBRANCH   9  11
ENDBRANCH   8   9
ENDBRANCH   5   8
ENDBRANCH   1   2
BRANCH   1  18
ATOM     18  C   UNL     1      48.244   7.260  14.419  0.00  0.00    +0.000 C 
BRANCH  18  20
ATOM     19  O   UNL     1      50.599   7.409  14.858  0.00  0.00    +0.000 OA
ATOM     20  C   UNL     1      49.486   7.073  15.266  0.00  0.00    +0.000 C 
BRANCH  20  21
ATOM     21  C   UNL     1      49.329   6.494  16.594  0.00  0.00    +0.000 A 
ATOM     22  C   UNL     1      49.616   7.154  17.778  0.00  0.00    +0.000 A 
ATOM     23  N   UNL     1      49.360   6.308  18.823  0.00  0.00    +0.000 N 
ATOM     24  C   UNL     1      48.914   5.102  18.347  0.00  0.00    +0.000 A 
ATOM     25  C   UNL     1      48.527   3.921  18.947  0.00  0.00    +0.000 A 
ATOM     26  N   UNL     1      48.120   2.896  18.182  0.00  0.00    +0.000 NA
ATOM     27  C   UNL     1      48.115   3.079  16.852  0.00  0.00    +0.000 A 
ATOM     28  N   UNL     1      48.470   4.176  16.174  0.00  0.00    +0.000 NA
ATOM     29  C   UNL     1      48.878   5.197  16.959  0.00  0.00    +0.000 A 
ATOM     30  H   UNL     1      49.487   6.548  19.797  0.00  0.00    +0.000 HD
BRANCH  25  31
ATOM     31  O   UNL     1      48.526   3.695  20.298  0.00  0.00    +0.000 OA
ATOM     32  H   UNL     1      49.186   4.269  20.702  0.00  0.00    +0.000 HD
ENDBRANCH  25  31
ENDBRANCH  20  21
ENDBRANCH  18  20
ENDBRANCH   1  18
TORSDOF 9
ENDMDL
MODEL 3
REMARK VINA RESULT:    -7.838      2.341      3.484
REMARK INTER + INTRA:         -13.167
REMARK INTER:                 -12.001
REMARK INTRA:                  -1.166
REMARK UNBOUND:                -1.434
REMARK  Name = 
REMARK  9 active torsions:
REMARK  status: ('A' for Active; 'I' for Inactive)
REMARK    1  A    between atoms: C_2  and  C_3
REMARK    2  A    between atoms: C_2  and  C_20
REMARK    3  A    between atoms: C_3  and  C_4
REMARK    4  A    between atoms: C_4  and  C_5
REMARK    5  A    between atoms: C_8  and  C_9
REMARK    6  A    between atoms: C_9  and  N_10
REMARK    7  A    between atoms: N_10  and  C_11
REMARK    8  A    between atoms: C_11  and  C_12
REMARK    9  A    between atoms: C_24  and  O_25
REMARK                            x       y       z     vdW  Elec       q    Type
REMARK                         _______ _______ _______ _____ _____    ______ ____
ROOT
ATOM      1  C   UNL     1      47.878   4.970  14.842  0.00  0.00    +0.000 C 
ENDROOT
BRANCH   1   2
ATOM      2  C   UNL     1      46.816   4.796  13.788  0.00  0.00    +0.000 A 
ATOM      3  C   UNL     1      46.401   3.516  13.406  0.00  0.00    +0.000 A 
ATOM      4  C   UNL     1      45.374   3.357  12.482  0.00  0.00    +0.000 A 
ATOM      5  C   UNL     1      44.693   4.470  11.967  0.00  0.00    +0.000 A 
ATOM      6  C   UNL     1      45.133   5.750  12.324  0.00  0.00    +0.000 A 
ATOM      7  C   UNL     1      46.189   5.912  13.223  0.00  0.00    +0.000 A 
BRANCH   5   8
ATOM      8  C   UNL     1      43.507   4.329  11.041  0.00  0.00    +0.000 C 
BRANCH   8   9
ATOM      9  N   UNL     1      43.749   3.525   9.844  0.00  0.00    +0.000 NA
ATOM     10  H   UNL     1      42.862   3.269   9.417  0.00  0.00    +0.000 HD
BRANCH   9  11
ATOM     11  C   UNL     1      44.615   4.191   8.868  0.00  0.00    +0.000 C 
BRANCH  11  12
ATOM     12  C   UNL     1      45.255   3.146   7.940  0.00  0.00    +0.000 C 
ATOM     13  C   UNL     1      45.773   1.946   8.747  0.00  0.00    +0.000 C 
ATOM     14  C   UNL     1      46.490   0.936   7.865  0.00  0.00    +0.000 C 
ATOM     15  C   UNL     1      47.620   1.593   7.083  0.00  0.00    +0.000 C 
ATOM     16  C   UNL     1      47.110   2.764   6.249  0.00  0.00    +0.000 C 
ATOM     17  C   UNL     1      46.381   3.789   7.113  0.00  0.00    +0.000 C 
ENDBRANCH  11  12
ENDBRANCH   9  11
ENDBRANCH   8   9
ENDBRANCH   5   8
ENDBRANCH   1   2
BRANCH   1  18
ATOM     18  C   UNL     1      47.310   4.970  16.256  0.00  0.00    +0.000 C 
BRANCH  18  20
ATOM     19  O   UNL     1      46.479   3.010  17.364  0.00  0.00    +0.000 OA
ATOM     20  C   UNL     1      47.453   3.609  16.907  0.00  0.00    +0.000 C 
BRANCH  20  21
ATOM     21  C   UNL     1      48.782   3.015  16.967  0.00  0.00    +0.000 A 
ATOM     22  C   UNL     1      49.142   1.831  16.344  0.00  0.00    +0.000 A 
ATOM     23  N   UNL     1      50.458   1.573  16.622  0.00  0.00    +0.000 N 
ATOM     24  C   UNL     1      50.968   2.566  17.419  0.00  0.00    +0.000 A 
ATOM     25  C   UNL     1      52.205   2.796  17.985  0.00  0.00    +0.000 A 
ATOM     26  N   UNL     1      52.394   3.896  18.729  0.00  0.00    +0.000 NA
ATOM     27  C   UNL     1      51.349   4.725  18.887  0.00  0.00    +0.000 A 
ATOM     28  N   UNL     1      50.116   4.594  18.387  0.00  0.00    +0.000 NA
ATOM     29  C   UNL     1      49.943   3.481  17.641  0.00  0.00    +0.000 A 
ATOM     30  H   UNL     1      50.965   0.767  16.284  0.00  0.00    +0.000 HD
BRANCH  25  31
ATOM     31  O   UNL     1      53.290   1.970  17.853  0.00  0.00    +0.000 OA
ATOM     32  H   UNL     1      53.478   1.577  18.712  0.00  0.00    +0.000 HD
ENDBRANCH  25  31
ENDBRANCH  20  21
ENDBRANCH  18  20
ENDBRANCH   1  18
TORSDOF 9
ENDMDL
MODEL 4
REMARK VINA RESULT:    -7.575      2.001      3.460
REMARK INTER + INTRA:         -12.773
REMARK INTER:                 -12.076
REMARK INTRA:                  -0.696
REMARK UNBOUND:                -1.434
REMARK  Name = 
REMARK  9 active torsions:
REMARK  status: ('A' for Active; 'I' for Inactive)
REMARK    1  A    between atoms: C_2  and  C_3
REMARK    2  A    between atoms: C_2  and  C_20
REMARK    3  A    between atoms: C_3  and  C_4
REMARK    4  A    between atoms: C_4  and  C_5
REMARK    5  A    between atoms: C_8  and  C_9
REMARK    6  A    between atoms: C_9  and  N_10
REMARK    7  A    between atoms: N_10  and  C_11
REMARK    8  A    between atoms: C_11  and  C_12
REMARK    9  A    between atoms: C_24  and  O_25
REMARK                            x       y       z     vdW  Elec       q    Type
REMARK                         _______ _______ _______ _____ _____    ______ ____
ROOT
ATOM      1  C   UNL     1      47.466   4.682  14.944  0.00  0.00    +0.000 C 
ENDROOT
BRANCH   1   2
ATOM      2  C   UNL     1      46.511   4.639  13.781  0.00  0.00    +0.000 A 
ATOM      3  C   UNL     1      46.117   3.413  13.233  0.00  0.00    +0.000 A 
ATOM      4  C   UNL     1      45.184   3.371  12.203  0.00  0.00    +0.000 A 
ATOM      5  C   UNL     1      44.572   4.544  11.740  0.00  0.00    +0.000 A 
ATOM      6  C   UNL     1      44.992   5.772  12.267  0.00  0.00    +0.000 A 
ATOM      7  C   UNL     1      45.957   5.819  13.274  0.00  0.00    +0.000 A 
BRANCH   5   8
ATOM      8  C   UNL     1      43.481   4.524  10.695  0.00  0.00    +0.000 C 
BRANCH   8   9
ATOM      9  N   UNL     1      43.764   3.701   9.521  0.00  0.00    +0.000 NA
ATOM     10  H   UNL     1      42.913   3.568   8.980  0.00  0.00    +0.000 HD
BRANCH   9  11
ATOM     11  C   UNL     1      44.828   4.250   8.676  0.00  0.00    +0.000 C 
BRANCH  11  12
ATOM     12  C   UNL     1      45.405   3.143   7.779  0.00  0.00    +0.000 C 
ATOM     13  C   UNL     1      45.890   1.955   8.624  0.00  0.00    +0.000 C 
ATOM     14  C   UNL     1      46.547   0.882   7.771  0.00  0.00    +0.000 C 
ATOM     15  C   UNL     1      47.687   1.460   6.942  0.00  0.00    +0.000 C 
ATOM     16  C   UNL     1      47.209   2.617   6.071  0.00  0.00    +0.000 C 
ATOM     17  C   UNL     1      46.540   3.705   6.906  0.00  0.00    +0.000 C 
ENDBRANCH  11  12
ENDBRANCH   9  11
ENDBRANCH   8   9
ENDBRANCH   5   8
ENDBRANCH   1   2
BRANCH   1  18
ATOM     18  C   UNL     1      47.202   3.583  15.966  0.00  0.00    +0.000 C 
BRANCH  18  20
ATOM     19  O   UNL     1      48.946   1.934  15.923  0.00  0.00    +0.000 OA
ATOM     20  C   UNL     1      48.494   2.954  16.445  0.00  0.00    +0.000 C 
BRANCH  20  21
ATOM     21  C   UNL     1      49.203   3.600  17.542  0.00  0.00    +0.000 A 
ATOM     22  C   UNL     1      50.530   3.364  17.866  0.00  0.00    +0.000 A 
ATOM     23  N   UNL     1      50.858   4.133  18.950  0.00  0.00    +0.000 N 
ATOM     24  C   UNL     1      49.770   4.867  19.347  0.00  0.00    +0.000 A 
ATOM     25  C   UNL     1      49.548   5.776  20.361  0.00  0.00    +0.000 A 
ATOM     26  N   UNL     1      48.339   6.345  20.483  0.00  0.00    +0.000 NA
ATOM     27  C   UNL     1      47.394   5.989  19.597  0.00  0.00    +0.000 A 
ATOM     28  N   UNL     1      47.505   5.121  18.586  0.00  0.00    +0.000 NA
ATOM     29  C   UNL     1      48.728   4.558  18.478  0.00  0.00    +0.000 A 
ATOM     30  H   UNL     1      51.771   4.147  19.385  0.00  0.00    +0.000 HD
BRANCH  25  31
ATOM     31  O   UNL     1      50.483   6.158  21.286  0.00  0.00    +0.000 OA
ATOM     32  H   UNL     1      50.431   5.556  22.036  0.00  0.00    +0.000 HD
ENDBRANCH  25  31
ENDBRANCH  20  21
ENDBRANCH  18  20
ENDBRANCH   1  18
TORSDOF 9
ENDMDL
MODEL 5
REMARK VINA RESULT:    -7.393      1.807      2.546
REMARK INTER + INTRA:         -12.501
REMARK INTER:                 -11.359
REMARK INTRA:                  -1.142
REMARK UNBOUND:                -1.434
REMARK  Name = 
REMARK  9 active torsions:
REMARK  status: ('A' for Active; 'I' for Inactive)
REMARK    1  A    between atoms: C_2  and  C_3
REMARK    2  A    between atoms: C_2  and  C_20
REMARK    3  A    between atoms: C_3  and  C_4
REMARK    4  A    between atoms: C_4  and  C_5
REMARK    5  A    between atoms: C_8  and  C_9
REMARK    6  A    between atoms: C_9  and  N_10
REMARK    7  A    between atoms: N_10  and  C_11
REMARK    8  A    between atoms: C_11  and  C_12
REMARK    9  A    between atoms: C_24  and  O_25
REMARK                            x       y       z     vdW  Elec       q    Type
REMARK                         _______ _______ _______ _____ _____    ______ ____
ROOT
ATOM      1  C   UNL     1      48.582   6.793  13.519  0.00  0.00    +0.000 C 
ENDROOT
BRANCH   1   2
ATOM      2  C   UNL     1      47.311   6.211  12.958  0.00  0.00    +0.000 A 
ATOM      3  C   UNL     1      46.796   6.674  11.743  0.00  0.00    +0.000 A 
ATOM      4  C   UNL     1      45.660   6.091  11.193  0.00  0.00    +0.000 A 
ATOM      5  C   UNL     1      45.050   4.988  11.808  0.00  0.00    +0.000 A 
ATOM      6  C   UNL     1      45.547   4.547  13.040  0.00  0.00    +0.000 A 
ATOM      7  C   UNL     1      46.664   5.157  13.613  0.00  0.00    +0.000 A 
BRANCH   5   8
ATOM      8  C   UNL     1      43.877   4.266  11.185  0.00  0.00    +0.000 C 
BRANCH   8   9
ATOM      9  N   UNL     1      44.024   3.960   9.763  0.00  0.00    +0.000 NA
ATOM     10  H   UNL     1      44.687   4.604   9.339  0.00  0.00    +0.000 HD
BRANCH   9  11
ATOM     11  C   UNL     1      44.425   2.573   9.510  0.00  0.00    +0.000 C 
BRANCH  11  12
ATOM     12  C   UNL     1      45.224   2.491   8.201  0.00  0.00    +0.000 C 
ATOM     13  C   UNL     1      46.204   1.308   8.235  0.00  0.00    +0.000 C 
ATOM     14  C   UNL     1      47.072   1.254   6.988  0.00  0.00    +0.000 C 
ATOM     15  C   UNL     1      47.814   2.568   6.777  0.00  0.00    +0.000 C 
ATOM     16  C   UNL     1      46.848   3.746   6.705  0.00  0.00    +0.000 C 
ATOM     17  C   UNL     1      45.961   3.817   7.945  0.00  0.00    +0.000 C 
ENDBRANCH  11  12
ENDBRANCH   9  11
ENDBRANCH   8   9
ENDBRANCH   5   8
ENDBRANCH   1   2
BRANCH   1  18
ATOM     18  C   UNL     1      48.412   7.320  14.938  0.00  0.00    +0.000 C 
BRANCH  18  20
ATOM     19  O   UNL     1      50.455   6.338  15.730  0.00  0.00    +0.000 OA
ATOM     20  C   UNL     1      49.254   6.533  15.922  0.00  0.00    +0.000 C 
BRANCH  20  21
ATOM     21  C   UNL     1      48.603   6.019  17.121  0.00  0.00    +0.000 A 
ATOM     22  C   UNL     1      48.058   4.750  17.235  0.00  0.00    +0.000 A 
ATOM     23  N   UNL     1      47.527   4.615  18.490  0.00  0.00    +0.000 N 
ATOM     24  C   UNL     1      47.711   5.773  19.201  0.00  0.00    +0.000 A 
ATOM     25  C   UNL     1      47.376   6.174  20.478  0.00  0.00    +0.000 A 
ATOM     26  N   UNL     1      47.715   7.405  20.892  0.00  0.00    +0.000 NA
ATOM     27  C   UNL     1      48.370   8.192  20.023  0.00  0.00    +0.000 A 
ATOM     28  N   UNL     1      48.737   7.903  18.771  0.00  0.00    +0.000 NA
ATOM     29  C   UNL     1      48.388   6.661  18.370  0.00  0.00    +0.000 A 
ATOM     30  H   UNL     1      47.069   3.779  18.829  0.00  0.00    +0.000 HD
BRANCH  25  31
ATOM     31  O   UNL     1      46.703   5.403  21.387  0.00  0.00    +0.000 OA
ATOM     32  H   UNL     1      46.857   4.476  21.174  0.00  0.00    +0.000 HD
ENDBRANCH  25  31
ENDBRANCH  20  21
ENDBRANCH  18  20
ENDBRANCH   1  18
TORSDOF 9
ENDMDL
MODEL 6
REMARK VINA RESULT:    -7.330      2.968      8.790
REMARK INTER + INTRA:         -12.407
REMARK INTER:                 -11.123
REMARK INTRA:                  -1.284
REMARK UNBOUND:                -1.434
REMARK  Name = 
REMARK  9 active torsions:
REMARK  status: ('A' for Active; 'I' for Inactive)
REMARK    1  A    between atoms: C_2  and  C_3
REMARK    2  A    between atoms: C_2  and  C_20
REMARK    3  A    between atoms: C_3  and  C_4
REMARK    4  A    between atoms: C_4  and  C_5
REMARK    5  A    between atoms: C_8  and  C_9
REMARK    6  A    between atoms: C_9  and  N_10
REMARK    7  A    between atoms: N_10  and  C_11
REMARK    8  A    between atoms: C_11  and  C_12
REMARK    9  A    between atoms: C_24  and  O_25
REMARK                            x       y       z     vdW  Elec       q    Type
REMARK                         _______ _______ _______ _____ _____    ______ ____
ROOT
ATOM      1  C   UNL     1      44.527   4.087  12.290  0.00  0.00    +0.000 C 
ENDROOT
BRANCH   1   2
ATOM      2  C   UNL     1      45.681   4.880  12.844  0.00  0.00    +0.000 A 
ATOM      3  C   UNL     1      45.779   6.253  12.596  0.00  0.00    +0.000 A 
ATOM      4  C   UNL     1      46.808   6.997  13.162  0.00  0.00    +0.000 A 
ATOM      5  C   UNL     1      47.724   6.403  14.042  0.00  0.00    +0.000 A 
ATOM      6  C   UNL     1      47.644   5.022  14.262  0.00  0.00    +0.000 A 
ATOM      7  C   UNL     1      46.634   4.266  13.664  0.00  0.00    +0.000 A 
BRANCH   5   8
ATOM      8  C   UNL     1      48.790   7.203  14.755  0.00  0.00    +0.000 C 
BRANCH   8   9
ATOM      9  N   UNL     1      48.464   7.584  16.127  0.00  0.00    +0.000 NA
ATOM     10  H   UNL     1      47.676   7.033  16.460  0.00  0.00    +0.000 HD
BRANCH   9  11
ATOM     11  C   UNL     1      49.599   7.460  17.046  0.00  0.00    +0.000 C 
BRANCH  11  12
ATOM     12  C   UNL     1      49.549   6.099  17.756  0.00  0.00    +0.000 C 
ATOM     13  C   UNL     1      50.505   5.100  17.086  0.00  0.00    +0.000 C 
ATOM     14  C   UNL     1      50.412   3.717  17.712  0.00  0.00    +0.000 C 
ATOM     15  C   UNL     1      48.980   3.198  17.690  0.00  0.00    +0.000 C 
ATOM     16  C   UNL     1      48.028   4.166  18.385  0.00  0.00    +0.000 C 
ATOM     17  C   UNL     1      48.108   5.563  17.777  0.00  0.00    +0.000 C 
ENDBRANCH  11  12
ENDBRANCH   9  11
ENDBRANCH   8   9
ENDBRANCH   5   8
ENDBRANCH   1   2
BRANCH   1  18
ATOM     18  C   UNL     1      44.941   3.154  11.159  0.00  0.00    +0.000 C 
BRANCH  18  20
ATOM     19  O   UNL     1      43.508   4.311   9.620  0.00  0.00    +0.000 OA
ATOM     20  C   UNL     1      44.580   3.733   9.807  0.00  0.00    +0.000 C 
BRANCH  20  21
ATOM     21  C   UNL     1      45.547   3.600   8.724  0.00  0.00    +0.000 A 
ATOM     22  C   UNL     1      46.132   4.666   8.059  0.00  0.00    +0.000 A 
ATOM     23  N   UNL     1      46.978   4.172   7.102  0.00  0.00    +0.000 N 
ATOM     24  C   UNL     1      46.956   2.801   7.125  0.00  0.00    +0.000 A 
ATOM     25  C   UNL     1      47.596   1.822   6.392  0.00  0.00    +0.000 A 
ATOM     26  N   UNL     1      47.362   0.531   6.671  0.00  0.00    +0.000 NA
ATOM     27  C   UNL     1      46.501   0.258   7.665  0.00  0.00    +0.000 A 
ATOM     28  N   UNL     1      45.830   1.126   8.430  0.00  0.00    +0.000 NA
ATOM     29  C   UNL     1      46.077   2.421   8.134  0.00  0.00    +0.000 A 
ATOM     30  H   UNL     1      47.530   4.744   6.477  0.00  0.00    +0.000 HD
BRANCH  25  31
ATOM     31  O   UNL     1      48.473   2.062   5.368  0.00  0.00    +0.000 OA
ATOM     32  H   UNL     1      48.325   1.404   4.680  0.00  0.00    +0.000 HD
ENDBRANCH  25  31
ENDBRANCH  20  21
ENDBRANCH  18  20
ENDBRANCH   1  18
TORSDOF 9
ENDMDL
MODEL 7
REMARK VINA RESULT:    -7.328      3.349      8.357
REMARK INTER + INTRA:         -12.403
REMARK INTER:                 -11.248
REMARK INTRA:                  -1.154
REMARK UNBOUND:                -1.434
REMARK  Name = 
REMARK  9 active torsions:
REMARK  status: ('A' for Active; 'I' for Inactive)
REMARK    1  A    between atoms: C_2  and  C_3
REMARK    2  A    between atoms: C_2  and  C_20
REMARK    3  A    between atoms: C_3  and  C_4
REMARK    4  A    between atoms: C_4  and  C_5
REMARK    5  A    between atoms: C_8  and  C_9
REMARK    6  A    between atoms: C_9  and  N_10
REMARK    7  A    between atoms: N_10  and  C_11
REMARK    8  A    between atoms: C_11  and  C_12
REMARK    9  A    between atoms: C_24  and  O_25
REMARK                            x       y       z     vdW  Elec       q    Type
REMARK                         _______ _______ _______ _____ _____    ______ ____
ROOT
ATOM      1  C   UNL     1      44.247   3.921  12.311  0.00  0.00    +0.000 C 
ENDROOT
BRANCH   1   2
ATOM      2  C   UNL     1      45.346   4.803  12.841  0.00  0.00    +0.000 A 
ATOM      3  C   UNL     1      46.293   4.295  13.735  0.00  0.00    +0.000 A 
ATOM      4  C   UNL     1      47.346   5.091  14.172  0.00  0.00    +0.000 A 
ATOM      5  C   UNL     1      47.517   6.391  13.676  0.00  0.00    +0.000 A 
ATOM      6  C   UNL     1      46.550   6.910  12.807  0.00  0.00    +0.000 A 
ATOM      7  C   UNL     1      45.470   6.124  12.397  0.00  0.00    +0.000 A 
BRANCH   5   8
ATOM      8  C   UNL     1      48.706   7.245  14.050  0.00  0.00    +0.000 C 
BRANCH   8   9
ATOM      9  N   UNL     1      49.894   7.049  13.222  0.00  0.00    +0.000 NA
ATOM     10  H   UNL     1      49.973   6.070  12.959  0.00  0.00    +0.000 HD
BRANCH   9  11
ATOM     11  C   UNL     1      49.913   7.902  12.030  0.00  0.00    +0.000 C 
BRANCH  11  12
ATOM     12  C   UNL     1      49.555   9.345  12.416  0.00  0.00    +0.000 C 
ATOM     13  C   UNL     1      48.593   9.961  11.388  0.00  0.00    +0.000 C 
ATOM     14  C   UNL     1      48.291  11.419  11.695  0.00  0.00    +0.000 C 
ATOM     15  C   UNL     1      49.572  12.237  11.799  0.00  0.00    +0.000 C 
ATOM     16  C   UNL     1      50.519  11.655  12.843  0.00  0.00    +0.000 C 
ATOM     17  C   UNL     1      50.833  10.189  12.558  0.00  0.00    +0.000 C 
ENDBRANCH  11  12
ENDBRANCH   9  11
ENDBRANCH   8   9
ENDBRANCH   5   8
ENDBRANCH   1   2
BRANCH   1  18
ATOM     18  C   UNL     1      44.684   3.092  11.109  0.00  0.00    +0.000 C 
BRANCH  18  20
ATOM     19  O   UNL     1      43.560   4.631   9.650  0.00  0.00    +0.000 OA
ATOM     20  C   UNL     1      44.507   3.861   9.816  0.00  0.00    +0.000 C 
BRANCH  20  21
ATOM     21  C   UNL     1      45.503   3.676   8.768  0.00  0.00    +0.000 A 
ATOM     22  C   UNL     1      46.124   4.710   8.084  0.00  0.00    +0.000 A 
ATOM     23  N   UNL     1      46.989   4.170   7.170  0.00  0.00    +0.000 N 
ATOM     24  C   UNL     1      46.945   2.801   7.240  0.00  0.00    +0.000 A 
ATOM     25  C   UNL     1      47.591   1.789   6.560  0.00  0.00    +0.000 A 
ATOM     26  N   UNL     1      47.329   0.511   6.877  0.00  0.00    +0.000 NA
ATOM     27  C   UNL     1      46.435   0.286   7.854  0.00  0.00    +0.000 A 
ATOM     28  N   UNL     1      45.756   1.190   8.568  0.00  0.00    +0.000 NA
ATOM     29  C   UNL     1      46.031   2.470   8.235  0.00  0.00    +0.000 A 
ATOM     30  H   UNL     1      47.568   4.712   6.543  0.00  0.00    +0.000 HD
BRANCH  25  31
ATOM     31  O   UNL     1      48.501   1.979   5.555  0.00  0.00    +0.000 OA
ATOM     32  H   UNL     1      48.469   2.904   5.287  0.00  0.00    +0.000 HD
ENDBRANCH  25  31
ENDBRANCH  20  21
ENDBRANCH  18  20
ENDBRANCH   1  18
TORSDOF 9
ENDMDL
MODEL 8
REMARK VINA RESULT:    -7.103      2.837      7.629
REMARK INTER + INTRA:         -12.067
REMARK INTER:                 -10.045
REMARK INTRA:                  -2.021
REMARK UNBOUND:                -1.434
REMARK  Name = 
REMARK  9 active torsions:
REMARK  status: ('A' for Active; 'I' for Inactive)
REMARK    1  A    between atoms: C_2  and  C_3
REMARK    2  A    between atoms: C_2  and  C_20
REMARK    3  A    between atoms: C_3  and  C_4
REMARK    4  A    between atoms: C_4  and  C_5
REMARK    5  A    between atoms: C_8  and  C_9
REMARK    6  A    between atoms: C_9  and  N_10
REMARK    7  A    between atoms: N_10  and  C_11
REMARK    8  A    between atoms: C_11  and  C_12
REMARK    9  A    between atoms: C_24  and  O_25
REMARK                            x       y       z     vdW  Elec       q    Type
REMARK                         _______ _______ _______ _____ _____    ______ ____
ROOT
ATOM      1  C   UNL     1      49.194   8.180  12.683  0.00  0.00    +0.000 C 
ENDROOT
BRANCH   1   2
ATOM      2  C   UNL     1      49.061   8.200  14.183  0.00  0.00    +0.000 A 
ATOM      3  C   UNL     1      48.522   9.316  14.831  0.00  0.00    +0.000 A 
ATOM      4  C   UNL     1      48.338   9.308  16.209  0.00  0.00    +0.000 A 
ATOM      5  C   UNL     1      48.626   8.162  16.965  0.00  0.00    +0.000 A 
ATOM      6  C   UNL     1      49.197   7.059  16.319  0.00  0.00    +0.000 A 
ATOM      7  C   UNL     1      49.418   7.080  14.941  0.00  0.00    +0.000 A 
BRANCH   5   8
ATOM      8  C   UNL     1      48.342   8.085  18.447  0.00  0.00    +0.000 C 
BRANCH   8   9
ATOM      9  N   UNL     1      47.473   6.981  18.853  0.00  0.00    +0.000 NA
ATOM     10  H   UNL     1      47.107   6.511  18.030  0.00  0.00    +0.000 HD
BRANCH   9  11
ATOM     11  C   UNL     1      48.137   6.021  19.739  0.00  0.00    +0.000 C 
BRANCH  11  12
ATOM     12  C   UNL     1      48.196   4.643  19.064  0.00  0.00    +0.000 C 
ATOM     13  C   UNL     1      49.610   4.355  18.535  0.00  0.00    +0.000 C 
ATOM     14  C   UNL     1      49.678   3.035  17.784  0.00  0.00    +0.000 C 
ATOM     15  C   UNL     1      48.656   2.992  16.654  0.00  0.00    +0.000 C 
ATOM     16  C   UNL     1      47.244   3.240  17.173  0.00  0.00    +0.000 C 
ATOM     17  C   UNL     1      47.153   4.558  17.937  0.00  0.00    +0.000 C 
ENDBRANCH  11  12
ENDBRANCH   9  11
ENDBRANCH   8   9
ENDBRANCH   5   8
ENDBRANCH   1   2
BRANCH   1  18
ATOM     18  C   UNL     1      48.518   6.971  12.048  0.00  0.00    +0.000 C 
BRANCH  18  20
ATOM     19  O   UNL     1      46.407   8.111  11.981  0.00  0.00    +0.000 OA
ATOM     20  C   UNL     1      47.011   7.054  12.171  0.00  0.00    +0.000 C 
BRANCH  20  21
ATOM     21  C   UNL     1      46.284   5.837  12.509  0.00  0.00    +0.000 A 
ATOM     22  C   UNL     1      46.422   5.146  13.703  0.00  0.00    +0.000 A 
ATOM     23  N   UNL     1      45.597   4.054  13.673  0.00  0.00    +0.000 N 
ATOM     24  C   UNL     1      44.922   4.013  12.481  0.00  0.00    +0.000 A 
ATOM     25  C   UNL     1      43.994   3.148  11.937  0.00  0.00    +0.000 A 
ATOM     26  N   UNL     1      43.501   3.396  10.714  0.00  0.00    +0.000 NA
ATOM     27  C   UNL     1      43.947   4.490  10.075  0.00  0.00    +0.000 A 
ATOM     28  N   UNL     1      44.840   5.385  10.510  0.00  0.00    +0.000 NA
ATOM     29  C   UNL     1      45.327   5.120  11.741  0.00  0.00    +0.000 A 
ATOM     30  H   UNL     1      45.510   3.384  14.426  0.00  0.00    +0.000 HD
BRANCH  25  31
ATOM     31  O   UNL     1      43.522   2.020  12.554  0.00  0.00    +0.000 OA
ATOM     32  H   UNL     1      44.151   1.761  13.236  0.00  0.00    +0.000 HD
ENDBRANCH  25  31
ENDBRANCH  20  21
ENDBRANCH  18  20
ENDBRANCH   1  18
TORSDOF 9
ENDMDL
MODEL 9
REMARK VINA RESULT:    -6.983      4.143      8.048
REMARK INTER + INTRA:         -11.886
REMARK INTER:                 -10.909
REMARK INTRA:                  -0.977
REMARK UNBOUND:                -1.434
REMARK  Name = 
REMARK  9 active torsions:
REMARK  status: ('A' for Active; 'I' for Inactive)
REMARK    1  A    between atoms: C_2  and  C_3
REMARK    2  A    between atoms: C_2  and  C_20
REMARK    3  A    between atoms: C_3  and  C_4
REMARK    4  A    between atoms: C_4  and  C_5
REMARK    5  A    between atoms: C_8  and  C_9
REMARK    6  A    between atoms: C_9  and  N_10
REMARK    7  A    between atoms: N_10  and  C_11
REMARK    8  A    between atoms: C_11  and  C_12
REMARK    9  A    between atoms: C_24  and  O_25
REMARK                            x       y       z     vdW  Elec       q    Type
REMARK                         _______ _______ _______ _____ _____    ______ ____
ROOT
ATOM      1  C   UNL     1      44.724   4.209  12.620  0.00  0.00    +0.000 C 
ENDROOT
BRANCH   1   2
ATOM      2  C   UNL     1      45.845   5.166  12.931  0.00  0.00    +0.000 A 
ATOM      3  C   UNL     1      46.687   4.938  14.024  0.00  0.00    +0.000 A 
ATOM      4  C   UNL     1      47.762   5.785  14.272  0.00  0.00    +0.000 A 
ATOM      5  C   UNL     1      48.061   6.840  13.397  0.00  0.00    +0.000 A 
ATOM      6  C   UNL     1      47.197   7.086  12.323  0.00  0.00    +0.000 A 
ATOM      7  C   UNL     1      46.095   6.260  12.095  0.00  0.00    +0.000 A 
BRANCH   5   8
ATOM      8  C   UNL     1      49.280   7.714  13.580  0.00  0.00    +0.000 C 
BRANCH   8   9
ATOM      9  N   UNL     1      50.403   7.402  12.698  0.00  0.00    +0.000 NA
ATOM     10  H   UNL     1      50.354   6.427  12.411  0.00  0.00    +0.000 HD
BRANCH   9  11
ATOM     11  C   UNL     1      50.477   8.278  11.526  0.00  0.00    +0.000 C 
BRANCH  11  12
ATOM     12  C   UNL     1      51.886   8.213  10.915  0.00  0.00    +0.000 C 
ATOM     13  C   UNL     1      52.270   9.563  10.290  0.00  0.00    +0.000 C 
ATOM     14  C   UNL     1      53.624   9.504   9.599  0.00  0.00    +0.000 C 
ATOM     15  C   UNL     1      53.662   8.392   8.558  0.00  0.00    +0.000 C 
ATOM     16  C   UNL     1      53.317   7.041   9.176  0.00  0.00    +0.000 C 
ATOM     17  C   UNL     1      51.964   7.078   9.881  0.00  0.00    +0.000 C 
ENDBRANCH  11  12
ENDBRANCH   9  11
ENDBRANCH   8   9
ENDBRANCH   5   8
ENDBRANCH   1   2
BRANCH   1  18
ATOM     18  C   UNL     1      45.127   3.136  11.616  0.00  0.00    +0.000 C 
BRANCH  18  20
ATOM     19  O   UNL     1      43.297   3.533  10.115  0.00  0.00    +0.000 OA
ATOM     20  C   UNL     1      44.513   3.395  10.256  0.00  0.00    +0.000 C 
BRANCH  20  21
ATOM     21  C   UNL     1      45.407   3.490   9.109  0.00  0.00    +0.000 A 
ATOM     22  C   UNL     1      45.810   4.681   8.524  0.00  0.00    +0.000 A 
ATOM     23  N   UNL     1      46.636   4.393   7.471  0.00  0.00    +0.000 N 
ATOM     24  C   UNL     1      46.780   3.034   7.351  0.00  0.00    +0.000 A 
ATOM     25  C   UNL     1      47.477   2.221   6.482  0.00  0.00    +0.000 A 
ATOM     26  N   UNL     1      47.421   0.889   6.638  0.00  0.00    +0.000 NA
ATOM     27  C   UNL     1      46.673   0.414   7.648  0.00  0.00    +0.000 A 
ATOM     28  N   UNL     1      45.962   1.113   8.540  0.00  0.00    +0.000 NA
ATOM     29  C   UNL     1      46.029   2.451   8.367  0.00  0.00    +0.000 A 
ATOM     30  H   UNL     1      47.067   5.088   6.877  0.00  0.00    +0.000 HD
BRANCH  25  31
ATOM     31  O   UNL     1      48.241   2.667   5.437  0.00  0.00    +0.000 OA
ATOM     32  H   UNL     1      47.944   3.552   5.199  0.00  0.00    +0.000 HD
ENDBRANCH  25  31
ENDBRANCH  20  21
ENDBRANCH  18  20
ENDBRANCH   1  18
TORSDOF 9
ENDMDL
