MODEL 1
REMARK VINA RESULT:    -7.563      0.000      0.000
REMARK INTER + INTRA:         -10.541
REMARK INTER:                  -9.774
REMARK INTRA:                  -0.767
REMARK UNBOUND:                -0.767
REMARK  Name = 
REMARK  5 active torsions:
REMARK  status: ('A' for Active; 'I' for Inactive)
REMARK    1  A    between atoms: C_2  and  C_4
REMARK    2  A    between atoms: C_9  and  C_10
REMARK    3  A    between atoms: C_10  and  O_11
REMARK    4  A    between atoms: O_11  and  C_12
REMARK    5  A    between atoms: C_16  and  N_17
REMARK                            x       y       z     vdW  Elec       q    Type
REMARK                         _______ _______ _______ _____ _____    ______ ____
ROOT
ATOM      1  C   UNL     1      47.134   6.144  12.751  0.00  0.00    +0.000 C 
ENDROOT
BRANCH   1   7
ATOM      2  C   UNL     1      47.888   4.633  16.186  0.00  0.00    +0.000 A 
ATOM      3  C   UNL     1      48.670   5.633  16.767  0.00  0.00    +0.000 A 
ATOM      4  C   UNL     1      48.936   6.789  16.044  0.00  0.00    +0.000 A 
ATOM      5  F   UNL     1      49.691   7.746  16.597  0.00  0.00    +0.000 F 
ATOM      6  C   UNL     1      48.442   6.970  14.755  0.00  0.00    +0.000 A 
ATOM      7  C   UNL     1      47.664   5.971  14.155  0.00  0.00    +0.000 A 
ATOM      8  C   UNL     1      47.400   4.797  14.880  0.00  0.00    +0.000 A 
BRANCH   2  10
ATOM      9  N   UNL     1      48.605   2.500  17.114  0.00  0.00    +0.000 N 
ATOM     10  C   UNL     1      47.573   3.373  16.906  0.00  0.00    +0.000 C 
ATOM     11  O   UNL     1      46.449   3.144  17.332  0.00  0.00    +0.000 OA
ATOM     12  H   UNL     1      48.403   1.700  17.701  0.00  0.00    +0.000 HD
ATOM     13  H   UNL     1      49.572   2.765  17.003  0.00  0.00    +0.000 HD
ENDBRANCH   2  10
ENDBRANCH   1   7
BRANCH   1  14
ATOM     14  O   UNL     1      45.706   6.204  12.800  0.00  0.00    +0.000 OA
BRANCH  14  15
ATOM     15  C   UNL     1      45.049   5.176  12.182  0.00  0.00    +0.000 A 
ATOM     16  C   UNL     1      44.068   4.530  12.921  0.00  0.00    +0.000 A 
ATOM     17  N   UNL     1      43.337   3.491  12.461  0.00  0.00    +0.000 NA
ATOM     18  C   UNL     1      43.622   3.073  11.203  0.00  0.00    +0.000 A 
ATOM     19  C   UNL     1      44.596   3.620  10.358  0.00  0.00    +0.000 A 
ATOM     20  C   UNL     1      45.313   4.698  10.900  0.00  0.00    +0.000 A 
BRANCH  19  21
ATOM     21  N   UNL     1      44.841   3.146   9.082  0.00  0.00    +0.000 N 
ATOM     22  C   UNL     1      44.913   1.711   8.797  0.00  0.00    +0.000 C 
ATOM     23  C   UNL     1      46.287   1.365   8.229  0.00  0.00    +0.000 C 
ATOM     24  C   UNL     1      46.614   2.238   7.018  0.00  0.00    +0.000 C 
ATOM     25  C   UNL     1      46.476   3.721   7.357  0.00  0.00    +0.000 C 
ATOM     26  C   UNL     1      45.105   4.044   7.955  0.00  0.00    +0.000 C 
ENDBRANCH  19  21
ENDBRANCH  14  15
ENDBRANCH   1  14
TORSDOF 5
ENDMDL
MODEL 2
REMARK VINA RESULT:    -7.511      2.231      2.691
REMARK INTER + INTRA:         -10.474
REMARK INTER:                  -9.576
REMARK INTRA:                  -0.898
REMARK UNBOUND:                -0.767
REMARK  Name = 
REMARK  5 active torsions:
REMARK  status: ('A' for Active; 'I' for Inactive)
REMARK    1  A    between atoms: C_2  and  C_4
REMARK    2  A    between atoms: C_9  and  C_10
REMARK    3  A    between atoms: C_10  and  O_11
REMARK    4  A    between atoms: O_11  and  C_12
REMARK    5  A    between atoms: C_16  and  N_17
REMARK                            x       y       z     vdW  Elec       q    Type
REMARK                         _______ _______ _______ _____ _____    ______ ____
ROOT
ATOM      1  C   UNL     1      45.720   7.316  11.840  0.00  0.00    +0.000 C 
ENDROOT
BRANCH   1   7
ATOM      2  C   UNL     1      48.797   7.148  14.111  0.00  0.00    +0.000 A 
ATOM      3  C   UNL     1      49.828   7.410  13.206  0.00  0.00    +0.000 A 
ATOM      4  C   UNL     1      49.515   7.647  11.874  0.00  0.00    +0.000 A 
ATOM      5  F   UNL     1      50.503   7.891  11.004  0.00  0.00    +0.000 F 
ATOM      6  C   UNL     1      48.197   7.628  11.422  0.00  0.00    +0.000 A 
ATOM      7  C   UNL     1      47.153   7.357  12.316  0.00  0.00    +0.000 A 
ATOM      8  C   UNL     1      47.467   7.108  13.663  0.00  0.00    +0.000 A 
BRANCH   2  10
ATOM      9  N   UNL     1      48.292   7.538  16.460  0.00  0.00    +0.000 N 
ATOM     10  C   UNL     1      49.069   6.881  15.546  0.00  0.00    +0.000 C 
ATOM     11  O   UNL     1      49.923   6.078  15.896  0.00  0.00    +0.000 OA
ATOM     12  H   UNL     1      48.412   7.265  17.428  0.00  0.00    +0.000 HD
ATOM     13  H   UNL     1      47.432   8.003  16.210  0.00  0.00    +0.000 HD
ENDBRANCH   2  10
ENDBRANCH   1   7
BRANCH   1  14
ATOM     14  O   UNL     1      44.971   6.457  12.703  0.00  0.00    +0.000 OA
BRANCH  14  15
ATOM     15  C   UNL     1      44.618   5.247  12.173  0.00  0.00    +0.000 A 
ATOM     16  C   UNL     1      43.973   4.358  13.022  0.00  0.00    +0.000 A 
ATOM     17  N   UNL     1      43.570   3.121  12.657  0.00  0.00    +0.000 NA
ATOM     18  C   UNL     1      43.847   2.758  11.380  0.00  0.00    +0.000 A 
ATOM     19  C   UNL     1      44.506   3.545  10.428  0.00  0.00    +0.000 A 
ATOM     20  C   UNL     1      44.892   4.818  10.875  0.00  0.00    +0.000 A 
BRANCH  19  21
ATOM     21  N   UNL     1      44.761   3.115   9.139  0.00  0.00    +0.000 N 
ATOM     22  C   UNL     1      44.834   1.690   8.806  0.00  0.00    +0.000 C 
ATOM     23  C   UNL     1      46.212   1.362   8.237  0.00  0.00    +0.000 C 
ATOM     24  C   UNL     1      46.549   2.276   7.060  0.00  0.00    +0.000 C 
ATOM     25  C   UNL     1      46.410   3.746   7.447  0.00  0.00    +0.000 C 
ATOM     26  C   UNL     1      45.035   4.050   8.045  0.00  0.00    +0.000 C 
ENDBRANCH  19  21
ENDBRANCH  14  15
ENDBRANCH   1  14
TORSDOF 5
ENDMDL
MODEL 3
REMARK VINA RESULT:    -7.478      3.065      4.712
REMARK INTER + INTRA:         -10.430
REMARK INTER:                  -9.616
REMARK INTRA:                  -0.814
REMARK UNBOUND:                -0.767
REMARK  Name = 
REMARK  5 active torsions:
REMARK  status: ('A' for Active; 'I' for Inactive)
REMARK    1  A    between atoms: C_2  and  C_4
REMARK    2  A    between atoms: C_9  and  C_10
REMARK    3  A    between atoms: C_10  and  O_11
REMARK    4  A    between atoms: O_11  and  C_12
REMARK    5  A    between atoms: C_16  and  N_17
REMARK                            x       y       z     vdW  Elec       q    Type
REMARK                         _______ _______ _______ _____ _____    ______ ____
ROOT
ATOM      1  C   UNL     1      46.848   6.462  12.526  0.00  0.00    +0.000 C 
ENDROOT
BRANCH   1   7
ATOM      2  C   UNL     1      45.990  10.138  11.887  0.00  0.00    +0.000 A 
ATOM      3  C   UNL     1      47.249  10.676  11.613  0.00  0.00    +0.000 A 
ATOM      4  C   UNL     1      48.360   9.841  11.629  0.00  0.00    +0.000 A 
ATOM      5  F   UNL     1      49.568  10.358  11.373  0.00  0.00    +0.000 F 
ATOM      6  C   UNL     1      48.244   8.483  11.913  0.00  0.00    +0.000 A 
ATOM      7  C   UNL     1      46.989   7.931  12.199  0.00  0.00    +0.000 A 
ATOM      8  C   UNL     1      45.865   8.773  12.193  0.00  0.00    +0.000 A 
BRANCH   2  10
ATOM      9  N   UNL     1      43.568  10.336  12.027  0.00  0.00    +0.000 N 
ATOM     10  C   UNL     1      44.767  10.979  11.891  0.00  0.00    +0.000 C 
ATOM     11  O   UNL     1      44.831  12.199  11.817  0.00  0.00    +0.000 OA
ATOM     12  H   UNL     1      42.753  10.927  12.138  0.00  0.00    +0.000 HD
ATOM     13  H   UNL     1      43.496   9.379  12.337  0.00  0.00    +0.000 HD
ENDBRANCH   2  10
ENDBRANCH   1   7
BRANCH   1  14
ATOM     14  O   UNL     1      45.485   6.194  12.867  0.00  0.00    +0.000 OA
BRANCH  14  15
ATOM     15  C   UNL     1      44.934   5.091  12.274  0.00  0.00    +0.000 A 
ATOM     16  C   UNL     1      44.095   4.315  13.060  0.00  0.00    +0.000 A 
ATOM     17  N   UNL     1      43.482   3.190  12.630  0.00  0.00    +0.000 NA
ATOM     18  C   UNL     1      43.743   2.822  11.351  0.00  0.00    +0.000 A 
ATOM     19  C   UNL     1      44.582   3.500  10.458  0.00  0.00    +0.000 A 
ATOM     20  C   UNL     1      45.180   4.660  10.971  0.00  0.00    +0.000 A 
BRANCH  19  21
ATOM     21  N   UNL     1      44.809   3.071   9.163  0.00  0.00    +0.000 N 
ATOM     22  C   UNL     1      44.932   1.649   8.836  0.00  0.00    +0.000 C 
ATOM     23  C   UNL     1      46.302   1.377   8.220  0.00  0.00    +0.000 C 
ATOM     24  C   UNL     1      46.556   2.296   7.026  0.00  0.00    +0.000 C 
ATOM     25  C   UNL     1      46.367   3.761   7.409  0.00  0.00    +0.000 C 
ATOM     26  C   UNL     1      45.002   4.009   8.055  0.00  0.00    +0.000 C 
ENDBRANCH  19  21
ENDBRANCH  14  15
ENDBRANCH   1  14
TORSDOF 5
ENDMDL
MODEL 4
REMARK VINA RESULT:    -7.158      3.207      3.951
REMARK INTER + INTRA:         -10.018
REMARK INTER:                  -9.175
REMARK INTRA:                  -0.843
REMARK UNBOUND:                -0.767
REMARK  Name = 
REMARK  5 active torsions:
REMARK  status: ('A' for Active; 'I' for Inactive)
REMARK    1  A    between atoms: C_2  and  C_4
REMARK    2  A    between atoms: C_9  and  C_10
REMARK    3  A    between atoms: C_10  and  O_11
REMARK    4  A    between atoms: O_11  and  C_12
REMARK    5  A    between atoms: C_16  and  N_17
REMARK                            x       y       z     vdW  Elec       q    Type
REMARK                         _______ _______ _______ _____ _____    ______ ____
ROOT
ATOM      1  C   UNL     1      44.830   7.216  12.401  0.00  0.00    +0.000 C 
ENDROOT
BRANCH   1   7
ATOM      2  C   UNL     1      48.451   8.401  12.033  0.00  0.00    +0.000 A 
ATOM      3  C   UNL     1      48.280   9.774  11.846  0.00  0.00    +0.000 A 
ATOM      4  C   UNL     1      46.995  10.301  11.850  0.00  0.00    +0.000 A 
ATOM      5  F   UNL     1      46.828  11.617  11.665  0.00  0.00    +0.000 F 
ATOM      6  C   UNL     1      45.877   9.492  12.036  0.00  0.00    +0.000 A 
ATOM      7  C   UNL     1      46.033   8.111  12.215  0.00  0.00    +0.000 A 
ATOM      8  C   UNL     1      47.331   7.573  12.203  0.00  0.00    +0.000 A 
BRANCH   2  10
ATOM      9  N   UNL     1      50.283   7.338  13.233  0.00  0.00    +0.000 N 
ATOM     10  C   UNL     1      49.799   7.777  12.032  0.00  0.00    +0.000 C 
ATOM     11  O   UNL     1      50.432   7.624  10.996  0.00  0.00    +0.000 OA
ATOM     12  H   UNL     1      51.151   6.817  13.203  0.00  0.00    +0.000 HD
ATOM     13  H   UNL     1      49.697   7.221  14.047  0.00  0.00    +0.000 HD
ENDBRANCH   2  10
ENDBRANCH   1   7
BRANCH   1  14
ATOM     14  O   UNL     1      45.265   5.963  12.936  0.00  0.00    +0.000 OA
BRANCH  14  15
ATOM     15  C   UNL     1      44.789   4.851  12.298  0.00  0.00    +0.000 A 
ATOM     16  C   UNL     1      43.991   3.997  13.047  0.00  0.00    +0.000 A 
ATOM     17  N   UNL     1      43.453   2.853  12.571  0.00  0.00    +0.000 NA
ATOM     18  C   UNL     1      43.747   2.548  11.283  0.00  0.00    +0.000 A 
ATOM     19  C   UNL     1      44.551   3.308  10.423  0.00  0.00    +0.000 A 
ATOM     20  C   UNL     1      45.072   4.483  10.984  0.00  0.00    +0.000 A 
BRANCH  19  21
ATOM     21  N   UNL     1      44.816   2.941   9.117  0.00  0.00    +0.000 N 
ATOM     22  C   UNL     1      45.019   1.540   8.739  0.00  0.00    +0.000 C 
ATOM     23  C   UNL     1      46.408   1.365   8.132  0.00  0.00    +0.000 C 
ATOM     24  C   UNL     1      46.627   2.339   6.976  0.00  0.00    +0.000 C 
ATOM     25  C   UNL     1      46.355   3.778   7.411  0.00  0.00    +0.000 C 
ATOM     26  C   UNL     1      44.971   3.929   8.047  0.00  0.00    +0.000 C 
ENDBRANCH  19  21
ENDBRANCH  14  15
ENDBRANCH   1  14
TORSDOF 5
ENDMDL
MODEL 5
REMARK VINA RESULT:    -6.971      3.294      4.563
REMARK INTER + INTRA:          -9.775
REMARK INTER:                  -8.992
REMARK INTRA:                  -0.783
REMARK UNBOUND:                -0.767
REMARK  Name = 
REMARK  5 active torsions:
REMARK  status: ('A' for Active; 'I' for Inactive)
REMARK    1  A    between atoms: C_2  and  C_4
REMARK    2  A    between atoms: C_9  and  C_10
REMARK    3  A    between atoms: C_10  and  O_11
REMARK    4  A    between atoms: O_11  and  C_12
REMARK    5  A    between atoms: C_16  and  N_17
REMARK                            x       y       z     vdW  Elec       q    Type
REMARK                         _______ _______ _______ _____ _____    ______ ____
ROOT
ATOM      1  C   UNL     1      45.195   7.769  11.914  0.00  0.00    +0.000 C 
ENDROOT
BRANCH   1   7
ATOM      2  C   UNL     1      48.256  10.053  12.182  0.00  0.00    +0.000 A 
ATOM      3  C   UNL     1      49.302   9.134  12.071  0.00  0.00    +0.000 A 
ATOM      4  C   UNL     1      49.004   7.788  11.900  0.00  0.00    +0.000 A 
ATOM      5  F   UNL     1      50.006   6.906  11.800  0.00  0.00    +0.000 F 
ATOM      6  C   UNL     1      47.688   7.336  11.840  0.00  0.00    +0.000 A 
ATOM      7  C   UNL     1      46.629   8.245  11.960  0.00  0.00    +0.000 A 
ATOM      8  C   UNL     1      46.926   9.606  12.141  0.00  0.00    +0.000 A 
BRANCH   2  10
ATOM      9  N   UNL     1      47.709  12.165  13.259  0.00  0.00    +0.000 N 
ATOM     10  C   UNL     1      48.510  11.503  12.371  0.00  0.00    +0.000 C 
ATOM     11  O   UNL     1      49.423  12.073  11.789  0.00  0.00    +0.000 OA
ATOM     12  H   UNL     1      47.962  13.125  13.462  0.00  0.00    +0.000 HD
ATOM     13  H   UNL     1      47.126  11.686  13.929  0.00  0.00    +0.000 HD
ENDBRANCH   2  10
ENDBRANCH   1   7
BRANCH   1  14
ATOM     14  O   UNL     1      45.021   6.734  12.884  0.00  0.00    +0.000 OA
BRANCH  14  15
ATOM     15  C   UNL     1      44.659   5.512  12.387  0.00  0.00    +0.000 A 
ATOM     16  C   UNL     1      44.066   4.628  13.277  0.00  0.00    +0.000 A 
ATOM     17  N   UNL     1      43.662   3.381  12.948  0.00  0.00    +0.000 NA
ATOM     18  C   UNL     1      43.883   3.003  11.664  0.00  0.00    +0.000 A 
ATOM     19  C   UNL     1      44.487   3.785  10.672  0.00  0.00    +0.000 A 
ATOM     20  C   UNL     1      44.876   5.068  11.083  0.00  0.00    +0.000 A 
BRANCH  19  21
ATOM     21  N   UNL     1      44.686   3.340   9.378  0.00  0.00    +0.000 N 
ATOM     22  C   UNL     1      44.674   1.914   9.046  0.00  0.00    +0.000 C 
ATOM     23  C   UNL     1      46.017   1.512   8.444  0.00  0.00    +0.000 C 
ATOM     24  C   UNL     1      46.374   2.404   7.257  0.00  0.00    +0.000 C 
ATOM     25  C   UNL     1      46.324   3.880   7.644  0.00  0.00    +0.000 C 
ATOM     26  C   UNL     1      44.982   4.258   8.276  0.00  0.00    +0.000 C 
ENDBRANCH  19  21
ENDBRANCH  14  15
ENDBRANCH   1  14
TORSDOF 5
ENDMDL
MODEL 6
REMARK VINA RESULT:    -6.812      2.106      2.489
REMARK INTER + INTRA:          -9.570
REMARK INTER:                  -8.811
REMARK INTRA:                  -0.759
REMARK UNBOUND:                -0.767
REMARK  Name = 
REMARK  5 active torsions:
REMARK  status: ('A' for Active; 'I' for Inactive)
REMARK    1  A    between atoms: C_2  and  C_4
REMARK    2  A    between atoms: C_9  and  C_10
REMARK    3  A    between atoms: C_10  and  O_11
REMARK    4  A    between atoms: O_11  and  C_12
REMARK    5  A    between atoms: C_16  and  N_17
REMARK                            x       y       z     vdW  Elec       q    Type
REMARK                         _______ _______ _______ _____ _____    ______ ____
ROOT
ATOM      1  C   UNL     1      47.486   5.390  13.554  0.00  0.00    +0.000 C 
ENDROOT
BRANCH   1   7
ATOM      2  C   UNL     1      48.466   5.826  17.228  0.00  0.00    +0.000 A 
ATOM      3  C   UNL     1      47.958   4.655  17.795  0.00  0.00    +0.000 A 
ATOM      4  C   UNL     1      47.314   3.734  16.979  0.00  0.00    +0.000 A 
ATOM      5  F   UNL     1      46.822   2.613  17.522  0.00  0.00    +0.000 F 
ATOM      6  C   UNL     1      47.162   3.953  15.613  0.00  0.00    +0.000 A 
ATOM      7  C   UNL     1      47.657   5.128  15.032  0.00  0.00    +0.000 A 
ATOM      8  C   UNL     1      48.302   6.066  15.855  0.00  0.00    +0.000 A 
BRANCH   2  10
ATOM      9  N   UNL     1      48.940   8.162  17.724  0.00  0.00    +0.000 N 
ATOM     10  C   UNL     1      49.158   6.852  18.048  0.00  0.00    +0.000 C 
ATOM     11  O   UNL     1      49.863   6.540  19.000  0.00  0.00    +0.000 OA
ATOM     12  H   UNL     1      49.328   8.851  18.357  0.00  0.00    +0.000 HD
ATOM     13  H   UNL     1      48.185   8.455  17.122  0.00  0.00    +0.000 HD
ENDBRANCH   2  10
ENDBRANCH   1   7
BRANCH   1  14
ATOM     14  O   UNL     1      46.183   5.933  13.329  0.00  0.00    +0.000 OA
BRANCH  14  15
ATOM     15  C   UNL     1      45.322   5.135  12.627  0.00  0.00    +0.000 A 
ATOM     16  C   UNL     1      44.185   4.704  13.297  0.00  0.00    +0.000 A 
ATOM     17  N   UNL     1      43.244   3.903  12.750  0.00  0.00    +0.000 NA
ATOM     18  C   UNL     1      43.470   3.504  11.474  0.00  0.00    +0.000 A 
ATOM     19  C   UNL     1      44.580   3.847  10.692  0.00  0.00    +0.000 A 
ATOM     20  C   UNL     1      45.513   4.684  11.322  0.00  0.00    +0.000 A 
BRANCH  19  21
ATOM     21  N   UNL     1      44.754   3.404   9.394  0.00  0.00    +0.000 N 
ATOM     22  C   UNL     1      44.688   1.982   9.052  0.00  0.00    +0.000 C 
ATOM     23  C   UNL     1      46.012   1.535   8.438  0.00  0.00    +0.000 C 
ATOM     24  C   UNL     1      46.393   2.423   7.254  0.00  0.00    +0.000 C 
ATOM     25  C   UNL     1      46.399   3.897   7.653  0.00  0.00    +0.000 C 
ATOM     26  C   UNL     1      45.076   4.319   8.296  0.00  0.00    +0.000 C 
ENDBRANCH  19  21
ENDBRANCH  14  15
ENDBRANCH   1  14
TORSDOF 5
ENDMDL
MODEL 7
REMARK VINA RESULT:    -6.765      2.939      7.388
REMARK INTER + INTRA:          -9.509
REMARK INTER:                  -8.618
REMARK INTRA:                  -0.892
REMARK UNBOUND:                -0.767
REMARK  Name = 
REMARK  5 active torsions:
REMARK  status: ('A' for Active; 'I' for Inactive)
REMARK    1  A    between atoms: C_2  and  C_4
REMARK    2  A    between atoms: C_9  and  C_10
REMARK    3  A    between atoms: C_10  and  O_11
REMARK    4  A    between atoms: O_11  and  C_12
REMARK    5  A    between atoms: C_16  and  N_17
REMARK                            x       y       z     vdW  Elec       q    Type
REMARK                         _______ _______ _______ _____ _____    ______ ____
ROOT
ATOM      1  C   UNL     1      46.393   7.315  11.907  0.00  0.00    +0.000 C 
ENDROOT
BRANCH   1   7
ATOM      2  C   UNL     1      44.492   4.026  11.442  0.00  0.00    +0.000 A 
ATOM      3  C   UNL     1      44.676   3.785  10.079  0.00  0.00    +0.000 A 
ATOM      4  C   UNL     1      45.422   4.686   9.328  0.00  0.00    +0.000 A 
ATOM      5  F   UNL     1      45.595   4.459   8.020  0.00  0.00    +0.000 F 
ATOM      6  C   UNL     1      45.987   5.820   9.905  0.00  0.00    +0.000 A 
ATOM      7  C   UNL     1      45.802   6.080  11.269  0.00  0.00    +0.000 A 
ATOM      8  C   UNL     1      45.041   5.176  12.029  0.00  0.00    +0.000 A 
BRANCH   2  10
ATOM      9  N   UNL     1      43.334   1.907  11.746  0.00  0.00    +0.000 N 
ATOM     10  C   UNL     1      43.700   3.104  12.295  0.00  0.00    +0.000 C 
ATOM     11  O   UNL     1      43.422   3.385  13.453  0.00  0.00    +0.000 OA
ATOM     12  H   UNL     1      42.891   1.244  12.371  0.00  0.00    +0.000 HD
ATOM     13  H   UNL     1      43.751   1.545  10.902  0.00  0.00    +0.000 HD
ENDBRANCH   2  10
ENDBRANCH   1   7
BRANCH   1  14
ATOM     14  O   UNL     1      47.819   7.205  11.891  0.00  0.00    +0.000 OA
BRANCH  14  15
ATOM     15  C   UNL     1      48.416   7.088  13.116  0.00  0.00    +0.000 A 
ATOM     16  C   UNL     1      49.599   7.790  13.303  0.00  0.00    +0.000 A 
ATOM     17  N   UNL     1      50.317   7.772  14.447  0.00  0.00    +0.000 NA
ATOM     18  C   UNL     1      49.827   6.995  15.444  0.00  0.00    +0.000 A 
ATOM     19  C   UNL     1      48.660   6.222  15.384  0.00  0.00    +0.000 A 
ATOM     20  C   UNL     1      47.964   6.293  14.168  0.00  0.00    +0.000 A 
BRANCH  19  21
ATOM     21  N   UNL     1      48.213   5.447  16.438  0.00  0.00    +0.000 N 
ATOM     22  C   UNL     1      48.682   5.669  17.808  0.00  0.00    +0.000 C 
ATOM     23  C   UNL     1      49.364   4.408  18.332  0.00  0.00    +0.000 C 
ATOM     24  C   UNL     1      48.446   3.194  18.198  0.00  0.00    +0.000 C 
ATOM     25  C   UNL     1      47.947   3.038  16.763  0.00  0.00    +0.000 C 
ATOM     26  C   UNL     1      47.296   4.321  16.243  0.00  0.00    +0.000 C 
ENDBRANCH  19  21
ENDBRANCH  14  15
ENDBRANCH   1  14
TORSDOF 5
ENDMDL
MODEL 8
REMARK VINA RESULT:    -6.750      2.806      7.772
REMARK INTER + INTRA:          -9.490
REMARK INTER:                  -8.649
REMARK INTRA:                  -0.841
REMARK UNBOUND:                -0.767
REMARK  Name = 
REMARK  5 active torsions:
REMARK  status: ('A' for Active; 'I' for Inactive)
REMARK    1  A    between atoms: C_2  and  C_4
REMARK    2  A    between atoms: C_9  and  C_10
REMARK    3  A    between atoms: C_10  and  O_11
REMARK    4  A    between atoms: O_11  and  C_12
REMARK    5  A    between atoms: C_16  and  N_17
REMARK                            x       y       z     vdW  Elec       q    Type
REMARK                         _______ _______ _______ _____ _____    ______ ____
ROOT
ATOM      1  C   UNL     1      46.518   7.492  12.295  0.00  0.00    +0.000 C 
ENDROOT
BRANCH   1   7
ATOM      2  C   UNL     1      45.031   4.737  10.092  0.00  0.00    +0.000 A 
ATOM      3  C   UNL     1      44.140   4.122  10.974  0.00  0.00    +0.000 A 
ATOM      4  C   UNL     1      44.024   4.613  12.268  0.00  0.00    +0.000 A 
ATOM      5  F   UNL     1      43.174   4.021  13.117  0.00  0.00    +0.000 F 
ATOM      6  C   UNL     1      44.776   5.701  12.704  0.00  0.00    +0.000 A 
ATOM      7  C   UNL     1      45.681   6.321  11.833  0.00  0.00    +0.000 A 
ATOM      8  C   UNL     1      45.808   5.822  10.526  0.00  0.00    +0.000 A 
BRANCH   2  10
ATOM      9  N   UNL     1      44.332   3.300   8.256  0.00  0.00    +0.000 N 
ATOM     10  C   UNL     1      45.205   4.255   8.698  0.00  0.00    +0.000 C 
ATOM     11  O   UNL     1      46.065   4.721   7.963  0.00  0.00    +0.000 OA
ATOM     12  H   UNL     1      44.390   3.060   7.274  0.00  0.00    +0.000 HD
ATOM     13  H   UNL     1      43.473   3.082   8.739  0.00  0.00    +0.000 HD
ENDBRANCH   2  10
ENDBRANCH   1   7
BRANCH   1  14
ATOM     14  O   UNL     1      47.898   7.122  12.243  0.00  0.00    +0.000 OA
BRANCH  14  15
ATOM     15  C   UNL     1      48.525   7.009  13.453  0.00  0.00    +0.000 A 
ATOM     16  C   UNL     1      49.723   7.694  13.601  0.00  0.00    +0.000 A 
ATOM     17  N   UNL     1      50.470   7.677  14.727  0.00  0.00    +0.000 NA
ATOM     18  C   UNL     1      49.994   6.918  15.745  0.00  0.00    +0.000 A 
ATOM     19  C   UNL     1      48.815   6.164  15.724  0.00  0.00    +0.000 A 
ATOM     20  C   UNL     1      48.088   6.233  14.526  0.00  0.00    +0.000 A 
BRANCH  19  21
ATOM     21  N   UNL     1      48.383   5.408  16.798  0.00  0.00    +0.000 N 
ATOM     22  C   UNL     1      49.052   5.471  18.100  0.00  0.00    +0.000 C 
ATOM     23  C   UNL     1      49.578   4.089  18.479  0.00  0.00    +0.000 C 
ATOM     24  C   UNL     1      48.463   3.046  18.423  0.00  0.00    +0.000 C 
ATOM     25  C   UNL     1      47.768   3.056  17.064  0.00  0.00    +0.000 C 
ATOM     26  C   UNL     1      47.276   4.455  16.686  0.00  0.00    +0.000 C 
ENDBRANCH  19  21
ENDBRANCH  14  15
ENDBRANCH   1  14
TORSDOF 5
ENDMDL
MODEL 9
REMARK VINA RESULT:    -6.659      3.050      8.612
REMARK INTER + INTRA:          -9.373
REMARK INTER:                  -8.778
REMARK INTRA:                  -0.595
REMARK UNBOUND:                -0.767
REMARK  Name = 
REMARK  5 active torsions:
REMARK  status: ('A' for Active; 'I' for Inactive)
REMARK    1  A    between atoms: C_2  and  C_4
REMARK    2  A    between atoms: C_9  and  C_10
REMARK    3  A    between atoms: C_10  and  O_11
REMARK    4  A    between atoms: O_11  and  C_12
REMARK    5  A    between atoms: C_16  and  N_17
REMARK                            x       y       z     vdW  Elec       q    Type
REMARK                         _______ _______ _______ _____ _____    ______ ____
ROOT
ATOM      1  C   UNL     1      47.186   5.118  14.273  0.00  0.00    +0.000 C 
ENDROOT
BRANCH   1   7
ATOM      2  C   UNL     1      44.648   4.226  11.551  0.00  0.00    +0.000 A 
ATOM      3  C   UNL     1      44.225   5.490  11.135  0.00  0.00    +0.000 A 
ATOM      4  C   UNL     1      44.774   6.617  11.735  0.00  0.00    +0.000 A 
ATOM      5  F   UNL     1      44.365   7.830  11.342  0.00  0.00    +0.000 F 
ATOM      6  C   UNL     1      45.733   6.512  12.739  0.00  0.00    +0.000 A 
ATOM      7  C   UNL     1      46.159   5.250  13.173  0.00  0.00    +0.000 A 
ATOM      8  C   UNL     1      45.600   4.108  12.575  0.00  0.00    +0.000 A 
BRANCH   2  10
ATOM      9  N   UNL     1      44.875   2.330  10.041  0.00  0.00    +0.000 N 
ATOM     10  C   UNL     1      44.094   2.985  10.953  0.00  0.00    +0.000 C 
ATOM     11  O   UNL     1      43.004   2.543  11.291  0.00  0.00    +0.000 OA
ATOM     12  H   UNL     1      44.536   1.430   9.724  0.00  0.00    +0.000 HD
ATOM     13  H   UNL     1      45.859   2.523   9.929  0.00  0.00    +0.000 HD
ENDBRANCH   2  10
ENDBRANCH   1   7
BRANCH   1  14
ATOM     14  O   UNL     1      46.678   4.233  15.274  0.00  0.00    +0.000 OA
BRANCH  14  15
ATOM     15  C   UNL     1      47.483   4.051  16.365  0.00  0.00    +0.000 A 
ATOM     16  C   UNL     1      48.215   2.873  16.411  0.00  0.00    +0.000 A 
ATOM     17  N   UNL     1      49.046   2.537  17.422  0.00  0.00    +0.000 NA
ATOM     18  C   UNL     1      49.127   3.424  18.444  0.00  0.00    +0.000 A 
ATOM     19  C   UNL     1      48.432   4.637  18.536  0.00  0.00    +0.000 A 
ATOM     20  C   UNL     1      47.592   4.922  17.449  0.00  0.00    +0.000 A 
BRANCH  19  21
ATOM     21  N   UNL     1      48.558   5.500  19.609  0.00  0.00    +0.000 N 
ATOM     22  C   UNL     1      48.497   5.020  20.991  0.00  0.00    +0.000 C 
ATOM     23  C   UNL     1      47.342   5.697  21.723  0.00  0.00    +0.000 C 
ATOM     24  C   UNL     1      47.443   7.218  21.617  0.00  0.00    +0.000 C 
ATOM     25  C   UNL     1      47.553   7.660  20.159  0.00  0.00    +0.000 C 
ATOM     26  C   UNL     1      48.696   6.947  19.432  0.00  0.00    +0.000 C 
ENDBRANCH  19  21
ENDBRANCH  14  15
ENDBRANCH   1  14
TORSDOF 5
ENDMDL
