MODEL 1
REMARK VINA RESULT:    -8.220      0.000      0.000
REMARK INTER + INTRA:         -11.568
REMARK INTER:                 -10.622
REMARK INTRA:                  -0.946
REMARK UNBOUND:                -0.946
REMARK  Name = 
REMARK  6 active torsions:
REMARK  status: ('A' for Active; 'I' for Inactive)
REMARK    1  A    between atoms: C_1  and  C_2
REMARK    2  A    between atoms: C_2  and  C_3
REMARK    3  A    between atoms: C_2  and  N_16
REMARK    4  A    between atoms: C_3  and  C_4
REMARK    5  A    between atoms: C_8  and  C_9
REMARK    6  A    between atoms: C_20  and  C_21
REMARK                            x       y       z     vdW  Elec       q    Type
REMARK                         _______ _______ _______ _____ _____    ______ ____
ROOT
ATOM      1  C   UNL     1      48.739   7.662  11.393  0.00  0.00    +0.000 C 
ATOM      2  C   UNL     1      47.772   7.034  12.406  0.00  0.00    +0.000 C 
ENDROOT
BRANCH   2   3
ATOM      3  N   UNL     1      48.249   7.340  13.768  0.00  0.00    +0.000 N 
ATOM      4  C   UNL     1      48.095   6.315  14.715  0.00  0.00    +0.000 A 
ATOM      5  C   UNL     1      48.586   6.524  16.002  0.00  0.00    +0.000 A 
ATOM      6  C   UNL     1      48.443   5.523  16.967  0.00  0.00    +0.000 A 
ATOM      7  C   UNL     1      47.809   4.325  16.635  0.00  0.00    +0.000 A 
ATOM      8  C   UNL     1      47.365   4.197  15.330  0.00  0.00    +0.000 A 
ATOM      9  N   UNL     1      47.500   5.155  14.378  0.00  0.00    +0.000 NA
ATOM     10  H   UNL     1      47.844   8.190  14.150  0.00  0.00    +0.000 HD
BRANCH   7  11
ATOM     11  C   UNL     1      47.645   3.271  17.661  0.00  0.00    +0.000 C 
ATOM     12  N   UNL     1      48.617   3.091  18.602  0.00  0.00    +0.000 N 
ATOM     13  O   UNL     1      46.649   2.555  17.670  0.00  0.00    +0.000 OA
ATOM     14  H   UNL     1      49.473   3.615  18.680  0.00  0.00    +0.000 HD
ATOM     15  H   UNL     1      48.457   2.355  19.276  0.00  0.00    +0.000 HD
ENDBRANCH   7  11
ENDBRANCH   2   3
BRANCH   2  16
ATOM     16  C   UNL     1      46.334   7.578  12.227  0.00  0.00    +0.000 C 
BRANCH  16  17
ATOM     17  C   UNL     1      45.372   6.587  11.606  0.00  0.00    +0.000 A 
ATOM     18  C   UNL     1      43.993   6.676  11.838  0.00  0.00    +0.000 A 
ATOM     19  C   UNL     1      43.128   5.727  11.305  0.00  0.00    +0.000 A 
ATOM     20  C   UNL     1      43.624   4.715  10.484  0.00  0.00    +0.000 A 
ATOM     21  C   UNL     1      44.987   4.647  10.147  0.00  0.00    +0.000 A 
ATOM     22  C   UNL     1      45.852   5.575  10.758  0.00  0.00    +0.000 A 
BRANCH  21  23
ATOM     23  C   UNL     1      45.468   3.716   9.100  0.00  0.00    +0.000 A 
ATOM     24  C   UNL     1      46.120   4.221   7.957  0.00  0.00    +0.000 A 
ATOM     25  C   UNL     1      46.678   3.376   6.993  0.00  0.00    +0.000 A 
ATOM     26  C   UNL     1      46.601   1.999   7.156  0.00  0.00    +0.000 A 
ATOM     27  C   UNL     1      45.949   1.471   8.268  0.00  0.00    +0.000 A 
ATOM     28  C   UNL     1      45.381   2.319   9.226  0.00  0.00    +0.000 A 
ENDBRANCH  21  23
ENDBRANCH  16  17
ENDBRANCH   2  16
TORSDOF 5
ENDMDL
MODEL 2
REMARK VINA RESULT:    -7.324      1.137      1.948
REMARK INTER + INTRA:         -10.410
REMARK INTER:                  -9.367
REMARK INTRA:                  -1.043
REMARK UNBOUND:                -0.946
REMARK  Name = 
REMARK  6 active torsions:
REMARK  status: ('A' for Active; 'I' for Inactive)
REMARK    1  A    between atoms: C_1  and  C_2
REMARK    2  A    between atoms: C_2  and  C_3
REMARK    3  A    between atoms: C_2  and  N_16
REMARK    4  A    between atoms: C_3  and  C_4
REMARK    5  A    between atoms: C_8  and  C_9
REMARK    6  A    between atoms: C_20  and  C_21
REMARK                            x       y       z     vdW  Elec       q    Type
REMARK                         _______ _______ _______ _____ _____    ______ ____
ROOT
ATOM      1  C   UNL     1      50.401   7.645  11.541  0.00  0.00    +0.000 C 
ATOM      2  C   UNL     1      49.246   7.428  12.526  0.00  0.00    +0.000 C 
ENDROOT
BRANCH   2   3
ATOM      3  N   UNL     1      49.782   7.453  13.900  0.00  0.00    +0.000 N 
ATOM      4  C   UNL     1      49.194   6.555  14.805  0.00  0.00    +0.000 A 
ATOM      5  C   UNL     1      49.704   6.489  16.100  0.00  0.00    +0.000 A 
ATOM      6  C   UNL     1      49.135   5.607  17.022  0.00  0.00    +0.000 A 
ATOM      7  C   UNL     1      48.062   4.801  16.641  0.00  0.00    +0.000 A 
ATOM      8  C   UNL     1      47.629   4.921  15.332  0.00  0.00    +0.000 A 
ATOM      9  N   UNL     1      48.172   5.767  14.420  0.00  0.00    +0.000 NA
ATOM     10  H   UNL     1      49.766   8.380  14.317  0.00  0.00    +0.000 HD
BRANCH   7  11
ATOM     11  C   UNL     1      47.451   3.878  17.623  0.00  0.00    +0.000 C 
ATOM     12  N   UNL     1      47.929   3.842  18.901  0.00  0.00    +0.000 N 
ATOM     13  O   UNL     1      46.527   3.140  17.298  0.00  0.00    +0.000 OA
ATOM     14  H   UNL     1      48.685   4.396  19.268  0.00  0.00    +0.000 HD
ATOM     15  H   UNL     1      47.480   3.191  19.529  0.00  0.00    +0.000 HD
ENDBRANCH   7  11
ENDBRANCH   2   3
BRANCH   2  16
ATOM     16  C   UNL     1      48.160   8.521  12.375  0.00  0.00    +0.000 C 
BRANCH  16  17
ATOM     17  C   UNL     1      46.792   7.986  12.007  0.00  0.00    +0.000 A 
ATOM     18  C   UNL     1      45.634   8.741  12.237  0.00  0.00    +0.000 A 
ATOM     19  C   UNL     1      44.381   8.215  11.943  0.00  0.00    +0.000 A 
ATOM     20  C   UNL     1      44.275   6.953  11.359  0.00  0.00    +0.000 A 
ATOM     21  C   UNL     1      45.416   6.204  11.021  0.00  0.00    +0.000 A 
ATOM     22  C   UNL     1      46.669   6.726  11.396  0.00  0.00    +0.000 A 
BRANCH  21  23
ATOM     23  C   UNL     1      45.306   4.976  10.200  0.00  0.00    +0.000 A 
ATOM     24  C   UNL     1      44.630   3.848  10.708  0.00  0.00    +0.000 A 
ATOM     25  C   UNL     1      44.416   2.706   9.934  0.00  0.00    +0.000 A 
ATOM     26  C   UNL     1      44.869   2.667   8.622  0.00  0.00    +0.000 A 
ATOM     27  C   UNL     1      45.554   3.760   8.096  0.00  0.00    +0.000 A 
ATOM     28  C   UNL     1      45.778   4.900   8.878  0.00  0.00    +0.000 A 
ENDBRANCH  21  23
ENDBRANCH  16  17
ENDBRANCH   2  16
TORSDOF 5
ENDMDL
MODEL 3
REMARK VINA RESULT:    -7.138      3.345      4.558
REMARK INTER + INTRA:         -10.170
REMARK INTER:                  -9.481
REMARK INTRA:                  -0.689
REMARK UNBOUND:                -0.946
REMARK  Name = 
REMARK  6 active torsions:
REMARK  status: ('A' for Active; 'I' for Inactive)
REMARK    1  A    between atoms: C_1  and  C_2
REMARK    2  A    between atoms: C_2  and  C_3
REMARK    3  A    between atoms: C_2  and  N_16
REMARK    4  A    between atoms: C_3  and  C_4
REMARK    5  A    between atoms: C_8  and  C_9
REMARK    6  A    between atoms: C_20  and  C_21
REMARK                            x       y       z     vdW  Elec       q    Type
REMARK                         _______ _______ _______ _____ _____    ______ ____
ROOT
ATOM      1  C   UNL     1      45.926   5.484  13.489  0.00  0.00    +0.000 C 
ATOM      2  C   UNL     1      45.673   6.681  12.563  0.00  0.00    +0.000 C 
ENDROOT
BRANCH   2   3
ATOM      3  N   UNL     1      46.875   6.906  11.739  0.00  0.00    +0.000 N 
ATOM      4  C   UNL     1      47.774   7.874  12.216  0.00  0.00    +0.000 A 
ATOM      5  C   UNL     1      48.958   8.082  11.512  0.00  0.00    +0.000 A 
ATOM      6  C   UNL     1      49.868   9.042  11.962  0.00  0.00    +0.000 A 
ATOM      7  C   UNL     1      49.584   9.784  13.109  0.00  0.00    +0.000 A 
ATOM      8  C   UNL     1      48.393   9.502  13.753  0.00  0.00    +0.000 A 
ATOM      9  N   UNL     1      47.499   8.570  13.336  0.00  0.00    +0.000 NA
ATOM     10  H   UNL     1      46.659   7.123  10.770  0.00  0.00    +0.000 HD
BRANCH   7  11
ATOM     11  C   UNL     1      50.543  10.811  13.576  0.00  0.00    +0.000 C 
ATOM     12  N   UNL     1      51.867  10.684  13.271  0.00  0.00    +0.000 N 
ATOM     13  O   UNL     1      50.160  11.770  14.238  0.00  0.00    +0.000 OA
ATOM     14  H   UNL     1      52.286   9.936  12.743  0.00  0.00    +0.000 HD
ATOM     15  H   UNL     1      52.479  11.410  13.619  0.00  0.00    +0.000 HD
ENDBRANCH   7  11
ENDBRANCH   2   3
BRANCH   2  16
ATOM     16  C   UNL     1      44.453   6.436  11.642  0.00  0.00    +0.000 C 
BRANCH  16  17
ATOM     17  C   UNL     1      44.300   4.999  11.190  0.00  0.00    +0.000 A 
ATOM     18  C   UNL     1      43.358   4.150  11.787  0.00  0.00    +0.000 A 
ATOM     19  C   UNL     1      43.266   2.818  11.398  0.00  0.00    +0.000 A 
ATOM     20  C   UNL     1      44.071   2.336  10.367  0.00  0.00    +0.000 A 
ATOM     21  C   UNL     1      44.959   3.179   9.676  0.00  0.00    +0.000 A 
ATOM     22  C   UNL     1      45.087   4.503  10.136  0.00  0.00    +0.000 A 
BRANCH  21  23
ATOM     23  C   UNL     1      45.638   2.722   8.441  0.00  0.00    +0.000 A 
ATOM     24  C   UNL     1      45.876   3.633   7.392  0.00  0.00    +0.000 A 
ATOM     25  C   UNL     1      46.600   3.273   6.252  0.00  0.00    +0.000 A 
ATOM     26  C   UNL     1      47.111   1.986   6.138  0.00  0.00    +0.000 A 
ATOM     27  C   UNL     1      46.879   1.059   7.152  0.00  0.00    +0.000 A 
ATOM     28  C   UNL     1      46.143   1.420   8.288  0.00  0.00    +0.000 A 
ENDBRANCH  21  23
ENDBRANCH  16  17
ENDBRANCH   2  16
TORSDOF 5
ENDMDL
MODEL 4
REMARK VINA RESULT:    -6.610      3.386      5.173
REMARK INTER + INTRA:          -9.488
REMARK INTER:                  -9.155
REMARK INTRA:                  -0.332
REMARK UNBOUND:                -0.946
REMARK  Name = 
REMARK  6 active torsions:
REMARK  status: ('A' for Active; 'I' for Inactive)
REMARK    1  A    between atoms: C_1  and  C_2
REMARK    2  A    between atoms: C_2  and  C_3
REMARK    3  A    between atoms: C_2  and  N_16
REMARK    4  A    between atoms: C_3  and  C_4
REMARK    5  A    between atoms: C_8  and  C_9
REMARK    6  A    between atoms: C_20  and  C_21
REMARK                            x       y       z     vdW  Elec       q    Type
REMARK                         _______ _______ _______ _____ _____    ______ ____
ROOT
ATOM      1  C   UNL     1      46.376   4.302  13.739  0.00  0.00    +0.000 C 
ATOM      2  C   UNL     1      46.137   5.755  13.309  0.00  0.00    +0.000 C 
ENDROOT
BRANCH   2   3
ATOM      3  N   UNL     1      47.346   6.253  12.627  0.00  0.00    +0.000 N 
ATOM      4  C   UNL     1      47.398   7.639  12.407  0.00  0.00    +0.000 A 
ATOM      5  C   UNL     1      48.545   8.175  11.825  0.00  0.00    +0.000 A 
ATOM      6  C   UNL     1      48.623   9.550  11.591  0.00  0.00    +0.000 A 
ATOM      7  C   UNL     1      47.553  10.375  11.940  0.00  0.00    +0.000 A 
ATOM      8  C   UNL     1      46.460   9.761  12.526  0.00  0.00    +0.000 A 
ATOM      9  N   UNL     1      46.368   8.429  12.767  0.00  0.00    +0.000 NA
ATOM     10  H   UNL     1      47.527   5.784  11.744  0.00  0.00    +0.000 HD
BRANCH   7  11
ATOM     11  C   UNL     1      47.631  11.830  11.678  0.00  0.00    +0.000 C 
ATOM     12  N   UNL     1      47.442  12.709  12.705  0.00  0.00    +0.000 N 
ATOM     13  O   UNL     1      47.854  12.251  10.548  0.00  0.00    +0.000 OA
ATOM     14  H   UNL     1      47.246  12.471  13.663  0.00  0.00    +0.000 HD
ATOM     15  H   UNL     1      47.501  13.691  12.470  0.00  0.00    +0.000 HD
ENDBRANCH   7  11
ENDBRANCH   2   3
BRANCH   2  16
ATOM     16  C   UNL     1      44.921   5.870  12.356  0.00  0.00    +0.000 C 
BRANCH  16  17
ATOM     17  C   UNL     1      44.619   4.602  11.585  0.00  0.00    +0.000 A 
ATOM     18  C   UNL     1      43.531   3.789  11.928  0.00  0.00    +0.000 A 
ATOM     19  C   UNL     1      43.298   2.601  11.246  0.00  0.00    +0.000 A 
ATOM     20  C   UNL     1      44.113   2.243  10.173  0.00  0.00    +0.000 A 
ATOM     21  C   UNL     1      45.155   3.078   9.733  0.00  0.00    +0.000 A 
ATOM     22  C   UNL     1      45.417   4.238  10.486  0.00  0.00    +0.000 A 
BRANCH  21  23
ATOM     23  C   UNL     1      45.865   2.806   8.462  0.00  0.00    +0.000 A 
ATOM     24  C   UNL     1      46.342   1.508   8.187  0.00  0.00    +0.000 A 
ATOM     25  C   UNL     1      46.928   1.182   6.961  0.00  0.00    +0.000 A 
ATOM     26  C   UNL     1      47.047   2.152   5.975  0.00  0.00    +0.000 A 
ATOM     27  C   UNL     1      46.599   3.448   6.222  0.00  0.00    +0.000 A 
ATOM     28  C   UNL     1      46.022   3.774   7.456  0.00  0.00    +0.000 A 
ENDBRANCH  21  23
ENDBRANCH  16  17
ENDBRANCH   2  16
TORSDOF 5
ENDMDL
MODEL 5
REMARK VINA RESULT:    -6.386      3.544      7.856
REMARK INTER + INTRA:          -9.199
REMARK INTER:                 -10.165
REMARK INTRA:                   0.967
REMARK UNBOUND:                -0.946
REMARK  Name = 
REMARK  6 active torsions:
REMARK  status: ('A' for Active; 'I' for Inactive)
REMARK    1  A    between atoms: C_1  and  C_2
REMARK    2  A    between atoms: C_2  and  C_3
REMARK    3  A    between atoms: C_2  and  N_16
REMARK    4  A    between atoms: C_3  and  C_4
REMARK    5  A    between atoms: C_8  and  C_9
REMARK    6  A    between atoms: C_20  and  C_21
REMARK                            x       y       z     vdW  Elec       q    Type
REMARK                         _______ _______ _______ _____ _____    ______ ____
ROOT
ATOM      1  C   UNL     1      42.892   5.410  11.197  0.00  0.00    +0.000 C 
ATOM      2  C   UNL     1      44.277   4.844  11.535  0.00  0.00    +0.000 C 
ENDROOT
BRANCH   2   3
ATOM      3  N   UNL     1      44.366   3.466  11.017  0.00  0.00    +0.000 N 
ATOM      4  C   UNL     1      45.069   3.307   9.812  0.00  0.00    +0.000 A 
ATOM      5  C   UNL     1      45.240   2.020   9.308  0.00  0.00    +0.000 A 
ATOM      6  C   UNL     1      45.933   1.833   8.110  0.00  0.00    +0.000 A 
ATOM      7  C   UNL     1      46.445   2.936   7.426  0.00  0.00    +0.000 A 
ATOM      8  C   UNL     1      46.241   4.176   8.004  0.00  0.00    +0.000 A 
ATOM      9  N   UNL     1      45.577   4.378   9.170  0.00  0.00    +0.000 NA
ATOM     10  H   UNL     1      43.458   3.019  10.916  0.00  0.00    +0.000 HD
BRANCH   7  11
ATOM     11  C   UNL     1      47.166   2.738   6.147  0.00  0.00    +0.000 C 
ATOM     12  N   UNL     1      48.513   2.520   6.161  0.00  0.00    +0.000 N 
ATOM     13  O   UNL     1      46.566   2.777   5.078  0.00  0.00    +0.000 OA
ATOM     14  H   UNL     1      49.100   2.477   6.978  0.00  0.00    +0.000 HD
ATOM     15  H   UNL     1      48.956   2.396   5.261  0.00  0.00    +0.000 HD
ENDBRANCH   7  11
ENDBRANCH   2   3
BRANCH   2  16
ATOM     16  C   UNL     1      45.406   5.703  10.913  0.00  0.00    +0.000 C 
BRANCH  16  17
ATOM     17  C   UNL     1      46.404   6.233  11.922  0.00  0.00    +0.000 A 
ATOM     18  C   UNL     1      46.998   7.491  11.758  0.00  0.00    +0.000 A 
ATOM     19  C   UNL     1      47.953   7.941  12.662  0.00  0.00    +0.000 A 
ATOM     20  C   UNL     1      48.280   7.165  13.774  0.00  0.00    +0.000 A 
ATOM     21  C   UNL     1      47.636   5.941  14.028  0.00  0.00    +0.000 A 
ATOM     22  C   UNL     1      46.727   5.474  13.060  0.00  0.00    +0.000 A 
BRANCH  21  23
ATOM     23  C   UNL     1      47.819   5.237  15.318  0.00  0.00    +0.000 A 
ATOM     24  C   UNL     1      48.557   5.848  16.353  0.00  0.00    +0.000 A 
ATOM     25  C   UNL     1      48.672   5.266  17.618  0.00  0.00    +0.000 A 
ATOM     26  C   UNL     1      48.043   4.056  17.881  0.00  0.00    +0.000 A 
ATOM     27  C   UNL     1      47.319   3.421  16.874  0.00  0.00    +0.000 A 
ATOM     28  C   UNL     1      47.215   4.001  15.603  0.00  0.00    +0.000 A 
ENDBRANCH  21  23
ENDBRANCH  16  17
ENDBRANCH   2  16
TORSDOF 5
ENDMDL
MODEL 6
REMARK VINA RESULT:    -6.092      2.826      7.292
REMARK INTER + INTRA:          -8.818
REMARK INTER:                  -8.951
REMARK INTRA:                   0.133
REMARK UNBOUND:                -0.946
REMARK  Name = 
REMARK  6 active torsions:
REMARK  status: ('A' for Active; 'I' for Inactive)
REMARK    1  A    between atoms: C_1  and  C_2
REMARK    2  A    between atoms: C_2  and  C_3
REMARK    3  A    between atoms: C_2  and  N_16
REMARK    4  A    between atoms: C_3  and  C_4
REMARK    5  A    between atoms: C_8  and  C_9
REMARK    6  A    between atoms: C_20  and  C_21
REMARK                            x       y       z     vdW  Elec       q    Type
REMARK                         _______ _______ _______ _____ _____    ______ ____
ROOT
ATOM      1  C   UNL     1      49.134   7.673  12.230  0.00  0.00    +0.000 C 
ATOM      2  C   UNL     1      47.977   8.261  13.048  0.00  0.00    +0.000 C 
ENDROOT
BRANCH   2   3
ATOM      3  N   UNL     1      47.212   7.154  13.652  0.00  0.00    +0.000 N 
ATOM      4  C   UNL     1      46.462   6.370  12.760  0.00  0.00    +0.000 A 
ATOM      5  C   UNL     1      45.771   5.270  13.265  0.00  0.00    +0.000 A 
ATOM      6  C   UNL     1      45.013   4.475  12.401  0.00  0.00    +0.000 A 
ATOM      7  C   UNL     1      44.954   4.788  11.043  0.00  0.00    +0.000 A 
ATOM      8  C   UNL     1      45.682   5.888  10.625  0.00  0.00    +0.000 A 
ATOM      9  N   UNL     1      46.428   6.669  11.447  0.00  0.00    +0.000 NA
ATOM     10  H   UNL     1      46.598   7.456  14.403  0.00  0.00    +0.000 HD
BRANCH   7  11
ATOM     11  C   UNL     1      44.139   3.953  10.132  0.00  0.00    +0.000 C 
ATOM     12  N   UNL     1      44.028   4.303   8.817  0.00  0.00    +0.000 N 
ATOM     13  O   UNL     1      43.557   2.956  10.547  0.00  0.00    +0.000 OA
ATOM     14  H   UNL     1      44.455   5.101   8.377  0.00  0.00    +0.000 HD
ATOM     15  H   UNL     1      43.456   3.702   8.240  0.00  0.00    +0.000 HD
ENDBRANCH   7  11
ENDBRANCH   2   3
BRANCH   2  16
ATOM     16  C   UNL     1      48.493   9.201  14.165  0.00  0.00    +0.000 C 
BRANCH  16  17
ATOM     17  C   UNL     1      48.490   8.579  15.546  0.00  0.00    +0.000 A 
ATOM     18  C   UNL     1      48.039   9.297  16.661  0.00  0.00    +0.000 A 
ATOM     19  C   UNL     1      48.092   8.733  17.930  0.00  0.00    +0.000 A 
ATOM     20  C   UNL     1      48.540   7.422  18.090  0.00  0.00    +0.000 A 
ATOM     21  C   UNL     1      48.909   6.633  16.987  0.00  0.00    +0.000 A 
ATOM     22  C   UNL     1      48.916   7.251  15.722  0.00  0.00    +0.000 A 
BRANCH  21  23
ATOM     23  C   UNL     1      49.162   5.182  17.138  0.00  0.00    +0.000 A 
ATOM     24  C   UNL     1      48.163   4.253  16.782  0.00  0.00    +0.000 A 
ATOM     25  C   UNL     1      48.391   2.875  16.814  0.00  0.00    +0.000 A 
ATOM     26  C   UNL     1      49.635   2.392  17.198  0.00  0.00    +0.000 A 
ATOM     27  C   UNL     1      50.638   3.284  17.570  0.00  0.00    +0.000 A 
ATOM     28  C   UNL     1      50.403   4.664  17.549  0.00  0.00    +0.000 A 
ENDBRANCH  21  23
ENDBRANCH  16  17
ENDBRANCH   2  16
TORSDOF 5
ENDMDL
MODEL 7
REMARK VINA RESULT:    -6.080      2.614      3.446
REMARK INTER + INTRA:          -8.804
REMARK INTER:                  -7.744
REMARK INTRA:                  -1.060
REMARK UNBOUND:                -0.946
REMARK  Name = 
REMARK  6 active torsions:
REMARK  status: ('A' for Active; 'I' for Inactive)
REMARK    1  A    between atoms: C_1  and  C_2
REMARK    2  A    between atoms: C_2  and  C_3
REMARK    3  A    between atoms: C_2  and  N_16
REMARK    4  A    between atoms: C_3  and  C_4
REMARK    5  A    between atoms: C_8  and  C_9
REMARK    6  A    between atoms: C_20  and  C_21
REMARK                            x       y       z     vdW  Elec       q    Type
REMARK                         _______ _______ _______ _____ _____    ______ ____
ROOT
ATOM      1  C   UNL     1      51.770   8.507  12.616  0.00  0.00    +0.000 C 
ATOM      2  C   UNL     1      50.334   8.031  12.871  0.00  0.00    +0.000 C 
ENDROOT
BRANCH   2   3
ATOM      3  N   UNL     1      49.802   8.740  14.050  0.00  0.00    +0.000 N 
ATOM      4  C   UNL     1      49.374   7.927  15.112  0.00  0.00    +0.000 A 
ATOM      5  C   UNL     1      48.921   8.543  16.277  0.00  0.00    +0.000 A 
ATOM      6  C   UNL     1      48.486   7.759  17.349  0.00  0.00    +0.000 A 
ATOM      7  C   UNL     1      48.506   6.368  17.244  0.00  0.00    +0.000 A 
ATOM      8  C   UNL     1      48.983   5.841  16.057  0.00  0.00    +0.000 A 
ATOM      9  N   UNL     1      49.417   6.585  15.008  0.00  0.00    +0.000 NA
ATOM     10  H   UNL     1      49.051   9.385  13.821  0.00  0.00    +0.000 HD
BRANCH   7  11
ATOM     11  C   UNL     1      48.030   5.539  18.374  0.00  0.00    +0.000 C 
ATOM     12  N   UNL     1      46.700   5.516  18.679  0.00  0.00    +0.000 N 
ATOM     13  O   UNL     1      48.819   4.879  19.042  0.00  0.00    +0.000 OA
ATOM     14  H   UNL     1      45.972   6.023  18.202  0.00  0.00    +0.000 HD
ATOM     15  H   UNL     1      46.430   4.938  19.462  0.00  0.00    +0.000 HD
ENDBRANCH   7  11
ENDBRANCH   2   3
BRANCH   2  16
ATOM     16  C   UNL     1      49.423   8.303  11.649  0.00  0.00    +0.000 C 
BRANCH  16  17
ATOM     17  C   UNL     1      47.941   8.233  11.957  0.00  0.00    +0.000 A 
ATOM     18  C   UNL     1      47.197   9.396  12.195  0.00  0.00    +0.000 A 
ATOM     19  C   UNL     1      45.850   9.313  12.528  0.00  0.00    +0.000 A 
ATOM     20  C   UNL     1      45.218   8.071  12.568  0.00  0.00    +0.000 A 
ATOM     21  C   UNL     1      45.904   6.889  12.240  0.00  0.00    +0.000 A 
ATOM     22  C   UNL     1      47.283   6.991  11.977  0.00  0.00    +0.000 A 
BRANCH  21  23
ATOM     23  C   UNL     1      45.177   5.610  12.061  0.00  0.00    +0.000 A 
ATOM     24  C   UNL     1      43.966   5.586  11.340  0.00  0.00    +0.000 A 
ATOM     25  C   UNL     1      43.298   4.391  11.061  0.00  0.00    +0.000 A 
ATOM     26  C   UNL     1      43.833   3.185  11.495  0.00  0.00    +0.000 A 
ATOM     27  C   UNL     1      45.020   3.178  12.223  0.00  0.00    +0.000 A 
ATOM     28  C   UNL     1      45.682   4.379  12.511  0.00  0.00    +0.000 A 
ENDBRANCH  21  23
ENDBRANCH  16  17
ENDBRANCH   2  16
TORSDOF 5
ENDMDL
MODEL 8
REMARK VINA RESULT:    -5.954      2.258      2.411
REMARK INTER + INTRA:          -8.641
REMARK INTER:                  -7.747
REMARK INTRA:                  -0.893
REMARK UNBOUND:                -0.946
REMARK  Name = 
REMARK  6 active torsions:
REMARK  status: ('A' for Active; 'I' for Inactive)
REMARK    1  A    between atoms: C_1  and  C_2
REMARK    2  A    between atoms: C_2  and  C_3
REMARK    3  A    between atoms: C_2  and  N_16
REMARK    4  A    between atoms: C_3  and  C_4
REMARK    5  A    between atoms: C_8  and  C_9
REMARK    6  A    between atoms: C_20  and  C_21
REMARK                            x       y       z     vdW  Elec       q    Type
REMARK                         _______ _______ _______ _____ _____    ______ ____
ROOT
ATOM      1  C   UNL     1      48.557   9.341  11.788  0.00  0.00    +0.000 C 
ATOM      2  C   UNL     1      47.568   8.542  12.646  0.00  0.00    +0.000 C 
ENDROOT
BRANCH   2   3
ATOM      3  N   UNL     1      47.473   9.176  13.975  0.00  0.00    +0.000 N 
ATOM      4  C   UNL     1      48.197   8.553  15.004  0.00  0.00    +0.000 A 
ATOM      5  C   UNL     1      48.197   9.144  16.266  0.00  0.00    +0.000 A 
ATOM      6  C   UNL     1      48.906   8.545  17.309  0.00  0.00    +0.000 A 
ATOM      7  C   UNL     1      49.606   7.360  17.081  0.00  0.00    +0.000 A 
ATOM      8  C   UNL     1      49.564   6.850  15.796  0.00  0.00    +0.000 A 
ATOM      9  N   UNL     1      48.887   7.420  14.768  0.00  0.00    +0.000 NA
ATOM     10  H   UNL     1      46.514   9.298  14.290  0.00  0.00    +0.000 HD
BRANCH   7  11
ATOM     11  C   UNL     1      50.345   6.717  18.192  0.00  0.00    +0.000 C 
ATOM     12  N   UNL     1      50.582   7.420  19.338  0.00  0.00    +0.000 N 
ATOM     13  O   UNL     1      50.752   5.565  18.090  0.00  0.00    +0.000 OA
ATOM     14  H   UNL     1      50.300   8.369  19.522  0.00  0.00    +0.000 HD
ATOM     15  H   UNL     1      51.094   6.936  20.062  0.00  0.00    +0.000 HD
ENDBRANCH   7  11
ENDBRANCH   2   3
BRANCH   2  16
ATOM     16  C   UNL     1      46.164   8.493  11.995  0.00  0.00    +0.000 C 
BRANCH  16  17
ATOM     17  C   UNL     1      45.539   7.114  11.976  0.00  0.00    +0.000 A 
ATOM     18  C   UNL     1      44.615   6.726  12.955  0.00  0.00    +0.000 A 
ATOM     19  C   UNL     1      44.091   5.438  12.956  0.00  0.00    +0.000 A 
ATOM     20  C   UNL     1      44.437   4.544  11.943  0.00  0.00    +0.000 A 
ATOM     21  C   UNL     1      45.285   4.925  10.888  0.00  0.00    +0.000 A 
ATOM     22  C   UNL     1      45.860   6.209  10.950  0.00  0.00    +0.000 A 
BRANCH  21  23
ATOM     23  C   UNL     1      45.465   4.054   9.703  0.00  0.00    +0.000 A 
ATOM     24  C   UNL     1      45.941   4.602   8.495  0.00  0.00    +0.000 A 
ATOM     25  C   UNL     1      46.221   3.804   7.383  0.00  0.00    +0.000 A 
ATOM     26  C   UNL     1      46.036   2.430   7.457  0.00  0.00    +0.000 A 
ATOM     27  C   UNL     1      45.553   1.860   8.633  0.00  0.00    +0.000 A 
ATOM     28  C   UNL     1      45.262   2.665   9.742  0.00  0.00    +0.000 A 
ENDBRANCH  21  23
ENDBRANCH  16  17
ENDBRANCH   2  16
TORSDOF 5
ENDMDL
MODEL 9
REMARK VINA RESULT:    -5.910      3.372      7.791
REMARK INTER + INTRA:          -8.584
REMARK INTER:                  -8.225
REMARK INTRA:                  -0.359
REMARK UNBOUND:                -0.946
REMARK  Name = 
REMARK  6 active torsions:
REMARK  status: ('A' for Active; 'I' for Inactive)
REMARK    1  A    between atoms: C_1  and  C_2
REMARK    2  A    between atoms: C_2  and  C_3
REMARK    3  A    between atoms: C_2  and  N_16
REMARK    4  A    between atoms: C_3  and  C_4
REMARK    5  A    between atoms: C_8  and  C_9
REMARK    6  A    between atoms: C_20  and  C_21
REMARK                            x       y       z     vdW  Elec       q    Type
REMARK                         _______ _______ _______ _____ _____    ______ ____
ROOT
ATOM      1  C   UNL     1      48.425   8.136  12.974  0.00  0.00    +0.000 C 
ATOM      2  C   UNL     1      48.134   7.558  14.366  0.00  0.00    +0.000 C 
ENDROOT
BRANCH   2   3
ATOM      3  N   UNL     1      47.952   6.100  14.244  0.00  0.00    +0.000 N 
ATOM      4  C   UNL     1      46.780   5.681  13.594  0.00  0.00    +0.000 A 
ATOM      5  C   UNL     1      46.585   4.316  13.394  0.00  0.00    +0.000 A 
ATOM      6  C   UNL     1      45.426   3.870  12.753  0.00  0.00    +0.000 A 
ATOM      7  C   UNL     1      44.474   4.794  12.321  0.00  0.00    +0.000 A 
ATOM      8  C   UNL     1      44.754   6.129  12.549  0.00  0.00    +0.000 A 
ATOM      9  N   UNL     1      45.876   6.582  13.163  0.00  0.00    +0.000 NA
ATOM     10  H   UNL     1      48.011   5.615  15.136  0.00  0.00    +0.000 HD
BRANCH   7  11
ATOM     11  C   UNL     1      43.239   4.319  11.656  0.00  0.00    +0.000 C 
ATOM     12  N   UNL     1      42.109   5.082  11.712  0.00  0.00    +0.000 N 
ATOM     13  O   UNL     1      43.220   3.246  11.062  0.00  0.00    +0.000 OA
ATOM     14  H   UNL     1      42.014   5.970  12.177  0.00  0.00    +0.000 HD
ATOM     15  H   UNL     1      41.293   4.710  11.246  0.00  0.00    +0.000 HD
ENDBRANCH   7  11
ENDBRANCH   2   3
BRANCH   2  16
ATOM     16  C   UNL     1      49.289   7.854  15.354  0.00  0.00    +0.000 C 
BRANCH  16  17
ATOM     17  C   UNL     1      49.318   6.940  16.561  0.00  0.00    +0.000 A 
ATOM     18  C   UNL     1      48.450   7.144  17.642  0.00  0.00    +0.000 A 
ATOM     19  C   UNL     1      48.525   6.330  18.767  0.00  0.00    +0.000 A 
ATOM     20  C   UNL     1      49.425   5.266  18.798  0.00  0.00    +0.000 A 
ATOM     21  C   UNL     1      50.244   4.967  17.695  0.00  0.00    +0.000 A 
ATOM     22  C   UNL     1      50.202   5.849  16.599  0.00  0.00    +0.000 A 
BRANCH  21  23
ATOM     23  C   UNL     1      51.026   3.710  17.645  0.00  0.00    +0.000 A 
ATOM     24  C   UNL     1      52.374   3.703  18.059  0.00  0.00    +0.000 A 
ATOM     25  C   UNL     1      53.120   2.524  18.123  0.00  0.00    +0.000 A 
ATOM     26  C   UNL     1      52.530   1.315  17.778  0.00  0.00    +0.000 A 
ATOM     27  C   UNL     1      51.204   1.291  17.351  0.00  0.00    +0.000 A 
ATOM     28  C   UNL     1      50.462   2.477  17.276  0.00  0.00    +0.000 A 
ENDBRANCH  21  23
ENDBRANCH  16  17
ENDBRANCH   2  16
TORSDOF 5
ENDMDL
