MODEL 1
REMARK VINA RESULT:    -7.446      0.000      0.000
REMARK INTER + INTRA:          -9.353
REMARK INTER:                  -8.751
REMARK INTRA:                  -0.602
REMARK UNBOUND:                -0.602
REMARK  Name = 
REMARK  3 active torsions:
REMARK  status: ('A' for Active; 'I' for Inactive)
REMARK    1  A    between atoms: N_5  and  C_6
REMARK    2  A    between atoms: C_6  and  C_7
REMARK    3  A    between atoms: C_11  and  N_12
REMARK                            x       y       z     vdW  Elec       q    Type
REMARK                         _______ _______ _______ _____ _____    ______ ____
ROOT
ATOM      1  C   UNL     1      45.389   4.316  11.977  0.00  0.00    +0.000 A 
ATOM      2  C   UNL     1      45.806   3.329  12.869  0.00  0.00    +0.000 A 
ATOM      3  N   UNL     1      46.761   3.489  13.812  0.00  0.00    +0.000 NA
ATOM      4  C   UNL     1      47.325   4.718  13.881  0.00  0.00    +0.000 A 
ATOM      5  C   UNL     1      47.026   5.803  13.050  0.00  0.00    +0.000 A 
ATOM      6  C   UNL     1      46.061   5.547  12.072  0.00  0.00    +0.000 A 
ENDROOT
BRANCH   5   7
ATOM      7  N   UNL     1      47.613   7.042  13.214  0.00  0.00    +0.000 N 
ATOM      8  C   UNL     1      46.829   8.277  13.363  0.00  0.00    +0.000 C 
ATOM      9  C   UNL     1      47.136   9.277  12.230  0.00  0.00    +0.000 C 
ATOM     10  N   UNL     1      48.582   9.534  12.043  0.00  0.00    +0.000 NA
ATOM     11  C   UNL     1      49.261   8.242  11.810  0.00  0.00    +0.000 C 
ATOM     12  C   UNL     1      49.048   7.218  12.950  0.00  0.00    +0.000 C 
ATOM     13  H   UNL     1      48.944   9.922  12.914  0.00  0.00    +0.000 HD
ENDBRANCH   5   7
BRANCH   1  14
ATOM     14  C   UNL     1      44.233   4.112  11.008  0.00  0.00    +0.000 C 
ATOM     15  C   UNL     1      42.815   4.309  11.540  0.00  0.00    +0.000 C 
ATOM     16  C   UNL     1      43.423   5.352  10.668  0.00  0.00    +0.000 C 
BRANCH  14  21
ATOM     17  C   UNL     1      46.960   2.450   6.965  0.00  0.00    +0.000 A 
ATOM     18  C   UNL     1      46.575   1.439   7.807  0.00  0.00    +0.000 A 
ATOM     19  N   UNL     1      45.748   1.619   8.851  0.00  0.00    +0.000 NA
ATOM     20  C   UNL     1      45.312   2.871   9.087  0.00  0.00    +0.000 A 
ATOM     21  N   UNL     1      44.371   2.961  10.114  0.00  0.00    +0.000 N 
ATOM     22  N   UNL     1      45.656   3.929   8.348  0.00  0.00    +0.000 NA
ATOM     23  C   UNL     1      46.462   3.693   7.288  0.00  0.00    +0.000 A 
ATOM     24  H   UNL     1      44.335   2.034  10.528  0.00  0.00    +0.000 HD
ENDBRANCH  14  21
ENDBRANCH   1  14
TORSDOF 3
ENDMDL
MODEL 2
REMARK VINA RESULT:    -7.187      0.998      1.294
REMARK INTER + INTRA:          -9.049
REMARK INTER:                  -8.476
REMARK INTRA:                  -0.572
REMARK UNBOUND:                -0.602
REMARK  Name = 
REMARK  3 active torsions:
REMARK  status: ('A' for Active; 'I' for Inactive)
REMARK    1  A    between atoms: N_5  and  C_6
REMARK    2  A    between atoms: C_6  and  C_7
REMARK    3  A    between atoms: C_11  and  N_12
REMARK                            x       y       z     vdW  Elec       q    Type
REMARK                         _______ _______ _______ _____ _____    ______ ____
ROOT
ATOM      1  C   UNL     1      45.214   4.787  12.100  0.00  0.00    +0.000 A 
ATOM      2  C   UNL     1      45.494   3.804  13.048  0.00  0.00    +0.000 A 
ATOM      3  N   UNL     1      46.486   3.870  13.964  0.00  0.00    +0.000 NA
ATOM      4  C   UNL     1      47.236   4.997  13.946  0.00  0.00    +0.000 A 
ATOM      5  C   UNL     1      47.089   6.063  13.051  0.00  0.00    +0.000 A 
ATOM      6  C   UNL     1      46.072   5.901  12.105  0.00  0.00    +0.000 A 
ENDROOT
BRANCH   5   7
ATOM      7  N   UNL     1      47.866   7.202  13.125  0.00  0.00    +0.000 N 
ATOM      8  C   UNL     1      48.443   7.845  11.936  0.00  0.00    +0.000 C 
ATOM      9  C   UNL     1      49.984   7.874  12.007  0.00  0.00    +0.000 C 
ATOM     10  N   UNL     1      50.508   8.433  13.274  0.00  0.00    +0.000 NA
ATOM     11  C   UNL     1      49.939   7.658  14.397  0.00  0.00    +0.000 C 
ATOM     12  C   UNL     1      48.392   7.651  14.421  0.00  0.00    +0.000 C 
ATOM     13  H   UNL     1      50.169   9.391  13.355  0.00  0.00    +0.000 HD
ENDBRANCH   5   7
BRANCH   1  14
ATOM     14  C   UNL     1      44.016   4.708  11.164  0.00  0.00    +0.000 C 
ATOM     15  C   UNL     1      42.637   5.005  11.747  0.00  0.00    +0.000 C 
ATOM     16  C   UNL     1      43.302   6.020  10.885  0.00  0.00    +0.000 C 
BRANCH  14  21
ATOM     17  C   UNL     1      46.708   2.759   7.228  0.00  0.00    +0.000 A 
ATOM     18  C   UNL     1      46.116   1.797   8.004  0.00  0.00    +0.000 A 
ATOM     19  N   UNL     1      45.262   2.074   9.004  0.00  0.00    +0.000 NA
ATOM     20  C   UNL     1      45.011   3.370   9.263  0.00  0.00    +0.000 A 
ATOM     21  N   UNL     1      44.031   3.578  10.235  0.00  0.00    +0.000 N 
ATOM     22  N   UNL     1      45.563   4.383   8.588  0.00  0.00    +0.000 NA
ATOM     23  C   UNL     1      46.389   4.055   7.569  0.00  0.00    +0.000 A 
ATOM     24  H   UNL     1      43.825   2.656  10.610  0.00  0.00    +0.000 HD
ENDBRANCH  14  21
ENDBRANCH   1  14
TORSDOF 3
ENDMDL
MODEL 3
REMARK VINA RESULT:    -6.377      1.727      6.574
REMARK INTER + INTRA:          -8.097
REMARK INTER:                  -8.200
REMARK INTRA:                   0.103
REMARK UNBOUND:                -0.602
REMARK  Name = 
REMARK  3 active torsions:
REMARK  status: ('A' for Active; 'I' for Inactive)
REMARK    1  A    between atoms: N_5  and  C_6
REMARK    2  A    between atoms: C_6  and  C_7
REMARK    3  A    between atoms: C_11  and  N_12
REMARK                            x       y       z     vdW  Elec       q    Type
REMARK                         _______ _______ _______ _____ _____    ______ ____
ROOT
ATOM      1  C   UNL     1      45.371   5.413  12.450  0.00  0.00    +0.000 A 
ATOM      2  C   UNL     1      44.545   4.702  13.319  0.00  0.00    +0.000 A 
ATOM      3  N   UNL     1      43.790   3.636  12.973  0.00  0.00    +0.000 NA
ATOM      4  C   UNL     1      43.878   3.242  11.681  0.00  0.00    +0.000 A 
ATOM      5  C   UNL     1      44.647   3.857  10.688  0.00  0.00    +0.000 A 
ATOM      6  C   UNL     1      45.365   4.980  11.112  0.00  0.00    +0.000 A 
ENDROOT
BRANCH   5   7
ATOM      7  N   UNL     1      44.721   3.367   9.400  0.00  0.00    +0.000 N 
ATOM      8  C   UNL     1      44.738   1.929   9.099  0.00  0.00    +0.000 C 
ATOM      9  C   UNL     1      46.035   1.523   8.369  0.00  0.00    +0.000 C 
ATOM     10  N   UNL     1      46.335   2.360   7.186  0.00  0.00    +0.000 NA
ATOM     11  C   UNL     1      46.386   3.775   7.614  0.00  0.00    +0.000 C 
ATOM     12  C   UNL     1      45.083   4.262   8.291  0.00  0.00    +0.000 C 
ATOM     13  H   UNL     1      45.559   2.262   6.531  0.00  0.00    +0.000 HD
ENDBRANCH   5   7
BRANCH   1  14
ATOM     14  C   UNL     1      46.283   6.538  12.919  0.00  0.00    +0.000 C 
ATOM     15  C   UNL     1      47.350   6.203  13.958  0.00  0.00    +0.000 C 
ATOM     16  C   UNL     1      47.748   6.410  12.538  0.00  0.00    +0.000 C 
BRANCH  14  21
ATOM     17  C   UNL     1      46.322  11.454  11.379  0.00  0.00    +0.000 A 
ATOM     18  C   UNL     1      45.076  11.015  11.745  0.00  0.00    +0.000 A 
ATOM     19  N   UNL     1      44.849   9.812  12.302  0.00  0.00    +0.000 NA
ATOM     20  C   UNL     1      45.907   8.998  12.470  0.00  0.00    +0.000 A 
ATOM     21  N   UNL     1      45.614   7.818  13.155  0.00  0.00    +0.000 N 
ATOM     22  N   UNL     1      47.155   9.318  12.116  0.00  0.00    +0.000 NA
ATOM     23  C   UNL     1      47.340  10.551  11.593  0.00  0.00    +0.000 A 
ATOM     24  H   UNL     1      44.603   7.810  13.257  0.00  0.00    +0.000 HD
ENDBRANCH  14  21
ENDBRANCH   1  14
TORSDOF 3
ENDMDL
MODEL 4
REMARK VINA RESULT:    -6.148      2.618      7.312
REMARK INTER + INTRA:          -7.828
REMARK INTER:                  -7.249
REMARK INTRA:                  -0.579
REMARK UNBOUND:                -0.602
REMARK  Name = 
REMARK  3 active torsions:
REMARK  status: ('A' for Active; 'I' for Inactive)
REMARK    1  A    between atoms: N_5  and  C_6
REMARK    2  A    between atoms: C_6  and  C_7
REMARK    3  A    between atoms: C_11  and  N_12
REMARK                            x       y       z     vdW  Elec       q    Type
REMARK                         _______ _______ _______ _____ _____    ______ ____
ROOT
ATOM      1  C   UNL     1      47.918   7.961  12.311  0.00  0.00    +0.000 A 
ATOM      2  C   UNL     1      47.084   9.078  12.306  0.00  0.00    +0.000 A 
ATOM      3  N   UNL     1      45.742   9.043  12.160  0.00  0.00    +0.000 NA
ATOM      4  C   UNL     1      45.192   7.813  12.029  0.00  0.00    +0.000 A 
ATOM      5  C   UNL     1      45.892   6.603  12.001  0.00  0.00    +0.000 A 
ATOM      6  C   UNL     1      47.281   6.724  12.112  0.00  0.00    +0.000 A 
ENDROOT
BRANCH   5   7
ATOM      7  N   UNL     1      45.255   5.382  11.910  0.00  0.00    +0.000 N 
ATOM      8  C   UNL     1      45.012   4.708  10.627  0.00  0.00    +0.000 C 
ATOM      9  C   UNL     1      43.504   4.503  10.377  0.00  0.00    +0.000 C 
ATOM     10  N   UNL     1      42.799   3.857  11.506  0.00  0.00    +0.000 NA
ATOM     11  C   UNL     1      43.031   4.662  12.725  0.00  0.00    +0.000 C 
ATOM     12  C   UNL     1      44.528   4.842  13.069  0.00  0.00    +0.000 C 
ATOM     13  H   UNL     1      43.222   2.941  11.654  0.00  0.00    +0.000 HD
ENDBRANCH   5   7
BRANCH   1  14
ATOM     14  C   UNL     1      49.413   8.052  12.588  0.00  0.00    +0.000 C 
ATOM     15  C   UNL     1      50.357   8.089  11.389  0.00  0.00    +0.000 C 
ATOM     16  C   UNL     1      50.093   9.340  12.154  0.00  0.00    +0.000 C 
BRANCH  14  21
ATOM     17  C   UNL     1      48.743   7.248  17.633  0.00  0.00    +0.000 A 
ATOM     18  C   UNL     1      49.072   6.109  16.945  0.00  0.00    +0.000 A 
ATOM     19  N   UNL     1      49.421   6.102  15.647  0.00  0.00    +0.000 NA
ATOM     20  C   UNL     1      49.409   7.280  14.996  0.00  0.00    +0.000 A 
ATOM     21  N   UNL     1      49.890   7.212  13.688  0.00  0.00    +0.000 N 
ATOM     22  N   UNL     1      49.071   8.440  15.566  0.00  0.00    +0.000 NA
ATOM     23  C   UNL     1      48.761   8.402  16.882  0.00  0.00    +0.000 A 
ATOM     24  H   UNL     1      50.024   6.222  13.501  0.00  0.00    +0.000 HD
ENDBRANCH  14  21
ENDBRANCH   1  14
TORSDOF 3
ENDMDL
MODEL 5
REMARK VINA RESULT:    -5.748      1.757      6.766
REMARK INTER + INTRA:          -7.358
REMARK INTER:                  -7.467
REMARK INTRA:                   0.109
REMARK UNBOUND:                -0.602
REMARK  Name = 
REMARK  3 active torsions:
REMARK  status: ('A' for Active; 'I' for Inactive)
REMARK    1  A    between atoms: N_5  and  C_6
REMARK    2  A    between atoms: C_6  and  C_7
REMARK    3  A    between atoms: C_11  and  N_12
REMARK                            x       y       z     vdW  Elec       q    Type
REMARK                         _______ _______ _______ _____ _____    ______ ____
ROOT
ATOM      1  C   UNL     1      45.788   6.028  12.319  0.00  0.00    +0.000 A 
ATOM      2  C   UNL     1      45.439   5.177  13.366  0.00  0.00    +0.000 A 
ATOM      3  N   UNL     1      44.955   3.924  13.218  0.00  0.00    +0.000 NA
ATOM      4  C   UNL     1      44.827   3.485  11.943  0.00  0.00    +0.000 A 
ATOM      5  C   UNL     1      45.120   4.222  10.791  0.00  0.00    +0.000 A 
ATOM      6  C   UNL     1      45.573   5.523  11.024  0.00  0.00    +0.000 A 
ENDROOT
BRANCH   5   7
ATOM      7  N   UNL     1      45.008   3.687   9.523  0.00  0.00    +0.000 N 
ATOM      8  C   UNL     1      44.777   2.255   9.285  0.00  0.00    +0.000 C 
ATOM      9  C   UNL     1      45.930   1.628   8.473  0.00  0.00    +0.000 C 
ATOM     10  N   UNL     1      46.253   2.371   7.235  0.00  0.00    +0.000 NA
ATOM     11  C   UNL     1      46.558   3.772   7.596  0.00  0.00    +0.000 C 
ATOM     12  C   UNL     1      45.408   4.479   8.351  0.00  0.00    +0.000 C 
ATOM     13  H   UNL     1      45.419   2.376   6.648  0.00  0.00    +0.000 HD
ENDBRANCH   5   7
BRANCH   1  14
ATOM     14  C   UNL     1      46.431   7.390  12.547  0.00  0.00    +0.000 C 
ATOM     15  C   UNL     1      46.001   8.540  11.639  0.00  0.00    +0.000 C 
ATOM     16  C   UNL     1      45.505   8.488  13.042  0.00  0.00    +0.000 C 
BRANCH  14  21
ATOM     17  C   UNL     1      49.845   8.118  16.335  0.00  0.00    +0.000 A 
ATOM     18  C   UNL     1      50.241   7.169  15.429  0.00  0.00    +0.000 A 
ATOM     19  N   UNL     1      49.574   6.907  14.292  0.00  0.00    +0.000 NA
ATOM     20  C   UNL     1      48.443   7.600  14.063  0.00  0.00    +0.000 A 
ATOM     21  N   UNL     1      47.869   7.357  12.815  0.00  0.00    +0.000 N 
ATOM     22  N   UNL     1      47.954   8.520  14.899  0.00  0.00    +0.000 NA
ATOM     23  C   UNL     1      48.678   8.774  16.013  0.00  0.00    +0.000 A 
ATOM     24  H   UNL     1      48.406   6.592  12.416  0.00  0.00    +0.000 HD
ENDBRANCH  14  21
ENDBRANCH   1  14
TORSDOF 3
ENDMDL
MODEL 6
REMARK VINA RESULT:    -5.572      2.375      7.264
REMARK INTER + INTRA:          -7.150
REMARK INTER:                  -7.565
REMARK INTRA:                   0.415
REMARK UNBOUND:                -0.602
REMARK  Name = 
REMARK  3 active torsions:
REMARK  status: ('A' for Active; 'I' for Inactive)
REMARK    1  A    between atoms: N_5  and  C_6
REMARK    2  A    between atoms: C_6  and  C_7
REMARK    3  A    between atoms: C_11  and  N_12
REMARK                            x       y       z     vdW  Elec       q    Type
REMARK                         _______ _______ _______ _____ _____    ______ ____
ROOT
ATOM      1  C   UNL     1      47.076   5.818  13.299  0.00  0.00    +0.000 A 
ATOM      2  C   UNL     1      47.158   4.721  14.155  0.00  0.00    +0.000 A 
ATOM      3  N   UNL     1      46.527   3.541  13.968  0.00  0.00    +0.000 NA
ATOM      4  C   UNL     1      45.779   3.442  12.843  0.00  0.00    +0.000 A 
ATOM      5  C   UNL     1      45.586   4.454  11.897  0.00  0.00    +0.000 A 
ATOM      6  C   UNL     1      46.235   5.659  12.183  0.00  0.00    +0.000 A 
ENDROOT
BRANCH   5   7
ATOM      7  N   UNL     1      44.844   4.260  10.749  0.00  0.00    +0.000 N 
ATOM      8  C   UNL     1      43.964   3.099  10.561  0.00  0.00    +0.000 C 
ATOM      9  C   UNL     1      44.400   2.255   9.346  0.00  0.00    +0.000 C 
ATOM     10  N   UNL     1      44.577   3.046   8.108  0.00  0.00    +0.000 NA
ATOM     11  C   UNL     1      45.548   4.129   8.380  0.00  0.00    +0.000 C 
ATOM     12  C   UNL     1      45.129   5.055   9.545  0.00  0.00    +0.000 C 
ATOM     13  H   UNL     1      43.682   3.481   7.886  0.00  0.00    +0.000 HD
ENDBRANCH   5   7
BRANCH   1  14
ATOM     14  C   UNL     1      47.896   7.084  13.504  0.00  0.00    +0.000 C 
ATOM     15  C   UNL     1      49.244   7.182  12.793  0.00  0.00    +0.000 C 
ATOM     16  C   UNL     1      48.084   7.962  12.278  0.00  0.00    +0.000 C 
BRANCH  14  21
ATOM     17  C   UNL     1      50.772   7.036  17.778  0.00  0.00    +0.000 A 
ATOM     18  C   UNL     1      50.061   8.198  17.621  0.00  0.00    +0.000 A 
ATOM     19  N   UNL     1      49.147   8.381  16.652  0.00  0.00    +0.000 NA
ATOM     20  C   UNL     1      48.957   7.373  15.781  0.00  0.00    +0.000 A 
ATOM     21  N   UNL     1      47.917   7.591  14.877  0.00  0.00    +0.000 N 
ATOM     22  N   UNL     1      49.623   6.216  15.828  0.00  0.00    +0.000 NA
ATOM     23  C   UNL     1      50.507   6.064  16.840  0.00  0.00    +0.000 A 
ATOM     24  H   UNL     1      47.624   8.552  15.030  0.00  0.00    +0.000 HD
ENDBRANCH  14  21
ENDBRANCH   1  14
TORSDOF 3
ENDMDL
MODEL 7
REMARK VINA RESULT:    -5.488      2.707      6.822
REMARK INTER + INTRA:          -7.052
REMARK INTER:                  -7.187
REMARK INTRA:                   0.135
REMARK UNBOUND:                -0.602
REMARK  Name = 
REMARK  3 active torsions:
REMARK  status: ('A' for Active; 'I' for Inactive)
REMARK    1  A    between atoms: N_5  and  C_6
REMARK    2  A    between atoms: C_6  and  C_7
REMARK    3  A    between atoms: C_11  and  N_12
REMARK                            x       y       z     vdW  Elec       q    Type
REMARK                         _______ _______ _______ _____ _____    ______ ____
ROOT
ATOM      1  C   UNL     1      47.067   8.116  12.829  0.00  0.00    +0.000 A 
ATOM      2  C   UNL     1      48.282   7.467  13.042  0.00  0.00    +0.000 A 
ATOM      3  N   UNL     1      48.427   6.137  13.236  0.00  0.00    +0.000 NA
ATOM      4  C   UNL     1      47.289   5.405  13.199  0.00  0.00    +0.000 A 
ATOM      5  C   UNL     1      45.998   5.909  13.010  0.00  0.00    +0.000 A 
ATOM      6  C   UNL     1      45.924   7.297  12.861  0.00  0.00    +0.000 A 
ENDROOT
BRANCH   5   7
ATOM      7  N   UNL     1      44.889   5.091  12.938  0.00  0.00    +0.000 N 
ATOM      8  C   UNL     1      44.976   3.667  12.585  0.00  0.00    +0.000 C 
ATOM      9  C   UNL     1      44.175   3.357  11.303  0.00  0.00    +0.000 C 
ATOM     10  N   UNL     1      42.782   3.854  11.340  0.00  0.00    +0.000 NA
ATOM     11  C   UNL     1      42.811   5.308  11.610  0.00  0.00    +0.000 C 
ATOM     12  C   UNL     1      43.541   5.677  12.923  0.00  0.00    +0.000 C 
ATOM     13  H   UNL     1      42.311   3.402  12.124  0.00  0.00    +0.000 HD
ENDBRANCH   5   7
BRANCH   1  14
ATOM     14  C   UNL     1      46.974   9.601  12.507  0.00  0.00    +0.000 C 
ATOM     15  C   UNL     1      48.122  10.500  12.960  0.00  0.00    +0.000 C 
ATOM     16  C   UNL     1      48.001  10.134  11.521  0.00  0.00    +0.000 C 
BRANCH  14  21
ATOM     17  C   UNL     1      43.077  11.712   9.881  0.00  0.00    +0.000 A 
ATOM     18  C   UNL     1      42.667  11.035  11.001  0.00  0.00    +0.000 A 
ATOM     19  N   UNL     1      43.517  10.518  11.905  0.00  0.00    +0.000 NA
ATOM     20  C   UNL     1      44.834  10.653  11.666  0.00  0.00    +0.000 A 
ATOM     21  N   UNL     1      45.650  10.194  12.701  0.00  0.00    +0.000 N 
ATOM     22  N   UNL     1      45.334  11.264  10.589  0.00  0.00    +0.000 NA
ATOM     23  C   UNL     1      44.442  11.799   9.724  0.00  0.00    +0.000 A 
ATOM     24  H   UNL     1      45.022   9.741  13.358  0.00  0.00    +0.000 HD
ENDBRANCH  14  21
ENDBRANCH   1  14
TORSDOF 3
ENDMDL
MODEL 8
REMARK VINA RESULT:    -5.485      2.584      6.514
REMARK INTER + INTRA:          -7.048
REMARK INTER:                  -6.812
REMARK INTRA:                  -0.236
REMARK UNBOUND:                -0.602
REMARK  Name = 
REMARK  3 active torsions:
REMARK  status: ('A' for Active; 'I' for Inactive)
REMARK    1  A    between atoms: N_5  and  C_6
REMARK    2  A    between atoms: C_6  and  C_7
REMARK    3  A    between atoms: C_11  and  N_12
REMARK                            x       y       z     vdW  Elec       q    Type
REMARK                         _______ _______ _______ _____ _____    ______ ____
ROOT
ATOM      1  C   UNL     1      47.937   7.194  13.212  0.00  0.00    +0.000 A 
ATOM      2  C   UNL     1      48.252   6.533  14.398  0.00  0.00    +0.000 A 
ATOM      3  N   UNL     1      47.711   5.362  14.800  0.00  0.00    +0.000 NA
ATOM      4  C   UNL     1      46.811   4.804  13.956  0.00  0.00    +0.000 A 
ATOM      5  C   UNL     1      46.381   5.350  12.742  0.00  0.00    +0.000 A 
ATOM      6  C   UNL     1      46.952   6.583  12.416  0.00  0.00    +0.000 A 
ENDROOT
BRANCH   5   7
ATOM      7  N   UNL     1      45.491   4.697  11.912  0.00  0.00    +0.000 N 
ATOM      8  C   UNL     1      44.582   5.412  11.006  0.00  0.00    +0.000 C 
ATOM      9  C   UNL     1      43.106   5.110  11.338  0.00  0.00    +0.000 C 
ATOM     10  N   UNL     1      42.804   3.664  11.430  0.00  0.00    +0.000 NA
ATOM     11  C   UNL     1      43.709   3.060  12.432  0.00  0.00    +0.000 C 
ATOM     12  C   UNL     1      45.208   3.269  12.114  0.00  0.00    +0.000 C 
ATOM     13  H   UNL     1      43.017   3.243  10.526  0.00  0.00    +0.000 HD
ENDBRANCH   5   7
BRANCH   1  14
ATOM     14  C   UNL     1      48.658   8.456  12.758  0.00  0.00    +0.000 C 
ATOM     15  C   UNL     1      47.898   9.778  12.839  0.00  0.00    +0.000 C 
ATOM     16  C   UNL     1      48.957   9.478  13.843  0.00  0.00    +0.000 C 
BRANCH  14  21
ATOM     17  C   UNL     1      53.499   7.690  11.169  0.00  0.00    +0.000 A 
ATOM     18  C   UNL     1      52.564   7.138  10.332  0.00  0.00    +0.000 A 
ATOM     19  N   UNL     1      51.240   7.324  10.476  0.00  0.00    +0.000 NA
ATOM     20  C   UNL     1      50.828   8.066  11.520  0.00  0.00    +0.000 A 
ATOM     21  N   UNL     1      49.454   8.309  11.539  0.00  0.00    +0.000 N 
ATOM     22  N   UNL     1      51.656   8.618  12.411  0.00  0.00    +0.000 NA
ATOM     23  C   UNL     1      52.980   8.433  12.206  0.00  0.00    +0.000 A 
ATOM     24  H   UNL     1      49.070   7.739  10.790  0.00  0.00    +0.000 HD
ENDBRANCH  14  21
ENDBRANCH   1  14
TORSDOF 3
ENDMDL
MODEL 9
REMARK VINA RESULT:    -5.376      3.218      7.699
REMARK INTER + INTRA:          -6.921
REMARK INTER:                  -6.673
REMARK INTRA:                  -0.248
REMARK UNBOUND:                -0.602
REMARK  Name = 
REMARK  3 active torsions:
REMARK  status: ('A' for Active; 'I' for Inactive)
REMARK    1  A    between atoms: N_5  and  C_6
REMARK    2  A    between atoms: C_6  and  C_7
REMARK    3  A    between atoms: C_11  and  N_12
REMARK                            x       y       z     vdW  Elec       q    Type
REMARK                         _______ _______ _______ _____ _____    ______ ____
ROOT
ATOM      1  C   UNL     1      47.732   6.157  14.371  0.00  0.00    +0.000 A 
ATOM      2  C   UNL     1      47.573   4.905  14.963  0.00  0.00    +0.000 A 
ATOM      3  N   UNL     1      46.693   3.962  14.560  0.00  0.00    +0.000 NA
ATOM      4  C   UNL     1      45.934   4.281  13.486  0.00  0.00    +0.000 A 
ATOM      5  C   UNL     1      45.965   5.496  12.794  0.00  0.00    +0.000 A 
ATOM      6  C   UNL     1      46.868   6.437  13.297  0.00  0.00    +0.000 A 
ENDROOT
BRANCH   5   7
ATOM      7  N   UNL     1      45.190   5.730  11.676  0.00  0.00    +0.000 N 
ATOM      8  C   UNL     1      43.722   5.650  11.697  0.00  0.00    +0.000 C 
ATOM      9  C   UNL     1      43.205   4.568  10.726  0.00  0.00    +0.000 C 
ATOM     10  N   UNL     1      43.752   4.692   9.357  0.00  0.00    +0.000 NA
ATOM     11  C   UNL     1      45.229   4.670   9.439  0.00  0.00    +0.000 C 
ATOM     12  C   UNL     1      45.813   5.780  10.345  0.00  0.00    +0.000 C 
ATOM     13  H   UNL     1      43.476   5.604   8.992  0.00  0.00    +0.000 HD
ENDBRANCH   5   7
BRANCH   1  14
ATOM     14  C   UNL     1      48.815   7.138  14.799  0.00  0.00    +0.000 C 
ATOM     15  C   UNL     1      49.837   7.571  13.751  0.00  0.00    +0.000 C 
ATOM     16  C   UNL     1      48.758   8.514  14.157  0.00  0.00    +0.000 C 
BRANCH  14  21
ATOM     17  C   UNL     1      47.969   7.966  19.813  0.00  0.00    +0.000 A 
ATOM     18  C   UNL     1      48.623   6.786  19.565  0.00  0.00    +0.000 A 
ATOM     19  N   UNL     1      49.063   6.426  18.347  0.00  0.00    +0.000 NA
ATOM     20  C   UNL     1      48.812   7.264  17.325  0.00  0.00    +0.000 A 
ATOM     21  N   UNL     1      49.396   6.879  16.117  0.00  0.00    +0.000 N 
ATOM     22  N   UNL     1      48.153   8.419  17.455  0.00  0.00    +0.000 NA
ATOM     23  C   UNL     1      47.760   8.756  18.705  0.00  0.00    +0.000 A 
ATOM     24  H   UNL     1      49.786   5.957  16.289  0.00  0.00    +0.000 HD
ENDBRANCH  14  21
ENDBRANCH   1  14
TORSDOF 3
ENDMDL
