MODEL 1
REMARK VINA RESULT:    -7.253      0.000      0.000
REMARK INTER + INTRA:         -11.444
REMARK INTER:                 -10.221
REMARK INTRA:                  -1.223
REMARK UNBOUND:                -1.223
REMARK  Name = 
REMARK  8 active torsions:
REMARK  status: ('A' for Active; 'I' for Inactive)
REMARK    1  A    between atoms: C_1  and  O_2
REMARK    2  A    between atoms: O_2  and  C_3
REMARK    3  A    between atoms: C_8  and  C_9
REMARK    4  A    between atoms: N_11  and  C_12
REMARK    5  A    between atoms: C_12  and  C_13
REMARK    6  A    between atoms: C_16  and  C_17
REMARK    7  A    between atoms: C_17  and  N_18
REMARK    8  A    between atoms: C_19  and  C_21
REMARK                            x       y       z     vdW  Elec       q    Type
REMARK                         _______ _______ _______ _____ _____    ______ ____
ROOT
ATOM      1  C   UNL     1      50.333   7.416  15.357  0.00  0.00    +0.000 A 
ATOM      2  C   UNL     1      50.722   8.093  14.194  0.00  0.00    +0.000 A 
ATOM      3  C   UNL     1      49.846   8.211  13.108  0.00  0.00    +0.000 A 
ATOM      4  C   UNL     1      48.554   7.674  13.173  0.00  0.00    +0.000 A 
ATOM      5  C   UNL     1      48.163   7.004  14.339  0.00  0.00    +0.000 A 
ATOM      6  C   UNL     1      49.038   6.886  15.424  0.00  0.00    +0.000 A 
ENDROOT
BRANCH   1   7
ATOM      7  C   UNL     1      51.289   7.253  16.512  0.00  0.00    +0.000 C 
BRANCH   7  10
ATOM      8  C   UNL     1      51.286   5.104  17.701  0.00  0.00    +0.000 C 
ATOM      9  O   UNL     1      50.513   5.537  18.553  0.00  0.00    +0.000 OA
ATOM     10  N   UNL     1      51.738   5.892  16.666  0.00  0.00    +0.000 N 
ATOM     11  H   UNL     1      52.417   5.508  16.018  0.00  0.00    +0.000 HD
BRANCH   8  17
ATOM     12  C   UNL     1      50.989   2.571  17.293  0.00  0.00    +0.000 A 
ATOM     13  C   UNL     1      51.509   1.275  17.449  0.00  0.00    +0.000 A 
ATOM     14  C   UNL     1      52.750   1.066  18.055  0.00  0.00    +0.000 A 
ATOM     15  C   UNL     1      53.499   2.147  18.502  0.00  0.00    +0.000 A 
ATOM     16  C   UNL     1      52.995   3.441  18.352  0.00  0.00    +0.000 A 
ATOM     17  C   UNL     1      51.741   3.673  17.754  0.00  0.00    +0.000 A 
BRANCH  12  19
ATOM     18  C   UNL     1      48.617   2.744  17.436  0.00  0.00    +0.000 C 
ATOM     19  O   UNL     1      49.803   2.818  16.651  0.00  0.00    +0.000 OA
ENDBRANCH  12  19
ENDBRANCH   8  17
ENDBRANCH   7  10
ENDBRANCH   1   7
BRANCH   4  20
ATOM     20  C   UNL     1      47.612   7.775  12.000  0.00  0.00    +0.000 C 
BRANCH  20  21
ATOM     21  N   UNL     1      46.923   6.531  11.764  0.00  0.00    +0.000 N 
ATOM     22  C   UNL     1      45.552   6.473  11.752  0.00  0.00    +0.000 C 
ATOM     23  O   UNL     1      44.860   7.478  11.907  0.00  0.00    +0.000 OA
ATOM     24  H   UNL     1      47.461   5.675  11.856  0.00  0.00    +0.000 HD
BRANCH  22  25
ATOM     25  C   UNL     1      44.944   5.163  11.486  0.00  0.00    +0.000 A 
ATOM     26  C   UNL     1      44.213   4.532  12.484  0.00  0.00    +0.000 A 
ATOM     27  S   UNL     1      43.528   3.047  11.999  0.00  0.00    +0.000 S 
ATOM     28  C   UNL     1      44.229   3.167  10.454  0.00  0.00    +0.000 A 
ATOM     29  N   UNL     1      44.050   2.187   9.528  0.00  0.00    +0.000 NA
ATOM     30  C   UNL     1      44.667   2.390   8.412  0.00  0.00    +0.000 A 
ATOM     31  N   UNL     1      45.438   3.488   8.134  0.00  0.00    +0.000 N 
ATOM     32  C   UNL     1      45.623   4.517   9.027  0.00  0.00    +0.000 A 
ATOM     33  O   UNL     1      46.288   5.503   8.734  0.00  0.00    +0.000 OA
ATOM     34  C   UNL     1      44.961   4.333  10.304  0.00  0.00    +0.000 A 
ATOM     35  H   UNL     1      45.890   3.589   7.237  0.00  0.00    +0.000 HD
ENDBRANCH  22  25
ENDBRANCH  20  21
ENDBRANCH   4  20
TORSDOF 7
ENDMDL
MODEL 2
REMARK VINA RESULT:    -6.953      5.042     10.830
REMARK INTER + INTRA:         -11.021
REMARK INTER:                  -9.689
REMARK INTRA:                  -1.332
REMARK UNBOUND:                -1.223
REMARK  Name = 
REMARK  8 active torsions:
REMARK  status: ('A' for Active; 'I' for Inactive)
REMARK    1  A    between atoms: C_1  and  O_2
REMARK    2  A    between atoms: O_2  and  C_3
REMARK    3  A    between atoms: C_8  and  C_9
REMARK    4  A    between atoms: N_11  and  C_12
REMARK    5  A    between atoms: C_12  and  C_13
REMARK    6  A    between atoms: C_16  and  C_17
REMARK    7  A    between atoms: C_17  and  N_18
REMARK    8  A    between atoms: C_19  and  C_21
REMARK                            x       y       z     vdW  Elec       q    Type
REMARK                         _______ _______ _______ _____ _____    ______ ____
ROOT
ATOM      1  C   UNL     1      44.515   9.162  11.729  0.00  0.00    +0.000 A 
ATOM      2  C   UNL     1      45.551   9.075  12.669  0.00  0.00    +0.000 A 
ATOM      3  C   UNL     1      46.047   7.830  13.073  0.00  0.00    +0.000 A 
ATOM      4  C   UNL     1      45.532   6.646  12.528  0.00  0.00    +0.000 A 
ATOM      5  C   UNL     1      44.502   6.734  11.583  0.00  0.00    +0.000 A 
ATOM      6  C   UNL     1      44.006   7.979  11.179  0.00  0.00    +0.000 A 
ENDROOT
BRANCH   1   7
ATOM      7  C   UNL     1      43.951  10.500  11.323  0.00  0.00    +0.000 C 
BRANCH   7  10
ATOM      8  C   UNL     1      41.578  10.896  10.828  0.00  0.00    +0.000 C 
ATOM      9  O   UNL     1      41.810  10.994   9.624  0.00  0.00    +0.000 OA
ATOM     10  N   UNL     1      42.584  10.672  11.743  0.00  0.00    +0.000 N 
ATOM     11  H   UNL     1      42.352  10.652  12.730  0.00  0.00    +0.000 HD
BRANCH   8  17
ATOM     12  C   UNL     1      39.786  11.598  12.550  0.00  0.00    +0.000 A 
ATOM     13  C   UNL     1      38.434  11.573  12.933  0.00  0.00    +0.000 A 
ATOM     14  C   UNL     1      37.471  10.956  12.131  0.00  0.00    +0.000 A 
ATOM     15  C   UNL     1      37.838  10.366  10.929  0.00  0.00    +0.000 A 
ATOM     16  C   UNL     1      39.179  10.384  10.535  0.00  0.00    +0.000 A 
ATOM     17  C   UNL     1      40.167  10.991  11.334  0.00  0.00    +0.000 A 
BRANCH  12  19
ATOM     18  C   UNL     1      40.355  12.765  14.548  0.00  0.00    +0.000 C 
ATOM     19  O   UNL     1      40.748  12.244  13.282  0.00  0.00    +0.000 OA
ENDBRANCH  12  19
ENDBRANCH   8  17
ENDBRANCH   7  10
ENDBRANCH   1   7
BRANCH   4  20
ATOM     20  C   UNL     1      46.044   5.300  12.974  0.00  0.00    +0.000 C 
BRANCH  20  21
ATOM     21  N   UNL     1      46.622   5.363  14.293  0.00  0.00    +0.000 N 
ATOM     22  C   UNL     1      47.171   4.249  14.878  0.00  0.00    +0.000 C 
ATOM     23  O   UNL     1      47.223   3.169  14.292  0.00  0.00    +0.000 OA
ATOM     24  H   UNL     1      46.392   6.169  14.866  0.00  0.00    +0.000 HD
BRANCH  22  25
ATOM     25  C   UNL     1      47.749   4.418  16.217  0.00  0.00    +0.000 A 
ATOM     26  C   UNL     1      47.328   3.595  17.254  0.00  0.00    +0.000 A 
ATOM     27  S   UNL     1      48.134   3.882  18.729  0.00  0.00    +0.000 S 
ATOM     28  C   UNL     1      49.038   5.152  18.050  0.00  0.00    +0.000 A 
ATOM     29  N   UNL     1      49.927   5.857  18.801  0.00  0.00    +0.000 NA
ATOM     30  C   UNL     1      50.517   6.815  18.169  0.00  0.00    +0.000 A 
ATOM     31  N   UNL     1      50.307   7.127  16.851  0.00  0.00    +0.000 N 
ATOM     32  C   UNL     1      49.442   6.425  16.045  0.00  0.00    +0.000 A 
ATOM     33  O   UNL     1      49.304   6.706  14.860  0.00  0.00    +0.000 OA
ATOM     34  C   UNL     1      48.741   5.344  16.711  0.00  0.00    +0.000 A 
ATOM     35  H   UNL     1      50.806   7.888  16.414  0.00  0.00    +0.000 HD
ENDBRANCH  22  25
ENDBRANCH  20  21
ENDBRANCH   4  20
TORSDOF 7
ENDMDL
MODEL 3
REMARK VINA RESULT:    -6.934      2.925      8.907
REMARK INTER + INTRA:         -10.994
REMARK INTER:                  -9.888
REMARK INTRA:                  -1.106
REMARK UNBOUND:                -1.223
REMARK  Name = 
REMARK  8 active torsions:
REMARK  status: ('A' for Active; 'I' for Inactive)
REMARK    1  A    between atoms: C_1  and  O_2
REMARK    2  A    between atoms: O_2  and  C_3
REMARK    3  A    between atoms: C_8  and  C_9
REMARK    4  A    between atoms: N_11  and  C_12
REMARK    5  A    between atoms: C_12  and  C_13
REMARK    6  A    between atoms: C_16  and  C_17
REMARK    7  A    between atoms: C_17  and  N_18
REMARK    8  A    between atoms: C_19  and  C_21
REMARK                            x       y       z     vdW  Elec       q    Type
REMARK                         _______ _______ _______ _____ _____    ______ ____
ROOT
ATOM      1  C   UNL     1      47.981   7.987  13.527  0.00  0.00    +0.000 A 
ATOM      2  C   UNL     1      48.064   9.141  14.319  0.00  0.00    +0.000 A 
ATOM      3  C   UNL     1      48.470   9.062  15.657  0.00  0.00    +0.000 A 
ATOM      4  C   UNL     1      48.823   7.830  16.223  0.00  0.00    +0.000 A 
ATOM      5  C   UNL     1      48.747   6.679  15.429  0.00  0.00    +0.000 A 
ATOM      6  C   UNL     1      48.342   6.757  14.092  0.00  0.00    +0.000 A 
ENDROOT
BRANCH   1   7
ATOM      7  C   UNL     1      47.506   8.065  12.098  0.00  0.00    +0.000 C 
BRANCH   7  10
ATOM      8  C   UNL     1      45.683   6.636  11.282  0.00  0.00    +0.000 C 
ATOM      9  O   UNL     1      44.864   7.543  11.419  0.00  0.00    +0.000 OA
ATOM     10  N   UNL     1      47.009   6.802  11.614  0.00  0.00    +0.000 N 
ATOM     11  H   UNL     1      47.637   6.009  11.534  0.00  0.00    +0.000 HD
BRANCH   8  17
ATOM     12  C   UNL     1      44.628   4.284  11.450  0.00  0.00    +0.000 A 
ATOM     13  C   UNL     1      44.324   3.071  10.808  0.00  0.00    +0.000 A 
ATOM     14  C   UNL     1      44.635   2.873   9.461  0.00  0.00    +0.000 A 
ATOM     15  C   UNL     1      45.242   3.885   8.729  0.00  0.00    +0.000 A 
ATOM     16  C   UNL     1      45.549   5.096   9.354  0.00  0.00    +0.000 A 
ATOM     17  C   UNL     1      45.254   5.313  10.713  0.00  0.00    +0.000 A 
BRANCH  12  19
ATOM     18  C   UNL     1      42.944   4.948  12.999  0.00  0.00    +0.000 C 
ATOM     19  O   UNL     1      44.284   4.536  12.753  0.00  0.00    +0.000 OA
ENDBRANCH  12  19
ENDBRANCH   8  17
ENDBRANCH   7  10
ENDBRANCH   1   7
BRANCH   4  20
ATOM     20  C   UNL     1      49.238   7.732  17.669  0.00  0.00    +0.000 C 
BRANCH  20  21
ATOM     21  N   UNL     1      50.287   6.760  17.855  0.00  0.00    +0.000 N 
ATOM     22  C   UNL     1      50.090   5.650  18.638  0.00  0.00    +0.000 C 
ATOM     23  O   UNL     1      49.011   5.423  19.182  0.00  0.00    +0.000 OA
ATOM     24  H   UNL     1      51.230   7.038  17.604  0.00  0.00    +0.000 HD
BRANCH  22  25
ATOM     25  C   UNL     1      51.214   4.711  18.752  0.00  0.00    +0.000 A 
ATOM     26  C   UNL     1      52.339   5.074  19.481  0.00  0.00    +0.000 A 
ATOM     27  S   UNL     1      53.527   3.853  19.563  0.00  0.00    +0.000 S 
ATOM     28  C   UNL     1      52.604   2.814  18.583  0.00  0.00    +0.000 A 
ATOM     29  N   UNL     1      53.068   1.582  18.240  0.00  0.00    +0.000 NA
ATOM     30  C   UNL     1      52.281   0.914  17.464  0.00  0.00    +0.000 A 
ATOM     31  N   UNL     1      51.070   1.361  17.007  0.00  0.00    +0.000 N 
ATOM     32  C   UNL     1      50.547   2.586  17.350  0.00  0.00    +0.000 A 
ATOM     33  O   UNL     1      49.443   2.942  16.954  0.00  0.00    +0.000 OA
ATOM     34  C   UNL     1      51.398   3.384  18.212  0.00  0.00    +0.000 A 
ATOM     35  H   UNL     1      50.499   0.786  16.404  0.00  0.00    +0.000 HD
ENDBRANCH  22  25
ENDBRANCH  20  21
ENDBRANCH   4  20
TORSDOF 7
ENDMDL
MODEL 4
REMARK VINA RESULT:    -6.916      1.280      2.086
REMARK INTER + INTRA:         -10.969
REMARK INTER:                  -9.845
REMARK INTRA:                  -1.125
REMARK UNBOUND:                -1.223
REMARK  Name = 
REMARK  8 active torsions:
REMARK  status: ('A' for Active; 'I' for Inactive)
REMARK    1  A    between atoms: C_1  and  O_2
REMARK    2  A    between atoms: O_2  and  C_3
REMARK    3  A    between atoms: C_8  and  C_9
REMARK    4  A    between atoms: N_11  and  C_12
REMARK    5  A    between atoms: C_12  and  C_13
REMARK    6  A    between atoms: C_16  and  C_17
REMARK    7  A    between atoms: C_17  and  N_18
REMARK    8  A    between atoms: C_19  and  C_21
REMARK                            x       y       z     vdW  Elec       q    Type
REMARK                         _______ _______ _______ _____ _____    ______ ____
ROOT
ATOM      1  C   UNL     1      50.409   7.298  15.588  0.00  0.00    +0.000 A 
ATOM      2  C   UNL     1      49.093   6.828  15.483  0.00  0.00    +0.000 A 
ATOM      3  C   UNL     1      48.316   7.122  14.356  0.00  0.00    +0.000 A 
ATOM      4  C   UNL     1      48.848   7.874  13.300  0.00  0.00    +0.000 A 
ATOM      5  C   UNL     1      50.165   8.338  13.402  0.00  0.00    +0.000 A 
ATOM      6  C   UNL     1      50.942   8.043  14.529  0.00  0.00    +0.000 A 
ENDROOT
BRANCH   1   7
ATOM      7  C   UNL     1      51.233   7.016  16.819  0.00  0.00    +0.000 C 
BRANCH   7  10
ATOM      8  C   UNL     1      51.527   4.871  17.978  0.00  0.00    +0.000 C 
ATOM      9  O   UNL     1      50.980   5.305  18.991  0.00  0.00    +0.000 OA
ATOM     10  N   UNL     1      51.711   5.658  16.862  0.00  0.00    +0.000 N 
ATOM     11  H   UNL     1      52.214   5.274  16.070  0.00  0.00    +0.000 HD
BRANCH   8  17
ATOM     12  C   UNL     1      51.260   2.385  17.331  0.00  0.00    +0.000 A 
ATOM     13  C   UNL     1      51.779   1.080  17.393  0.00  0.00    +0.000 A 
ATOM     14  C   UNL     1      52.994   0.819  18.031  0.00  0.00    +0.000 A 
ATOM     15  C   UNL     1      53.717   1.857  18.606  0.00  0.00    +0.000 A 
ATOM     16  C   UNL     1      53.213   3.159  18.551  0.00  0.00    +0.000 A 
ATOM     17  C   UNL     1      51.986   3.442  17.922  0.00  0.00    +0.000 A 
BRANCH  12  19
ATOM     18  C   UNL     1      48.889   2.604  17.404  0.00  0.00    +0.000 C 
ATOM     19  O   UNL     1      50.102   2.687  16.663  0.00  0.00    +0.000 OA
ENDBRANCH  12  19
ENDBRANCH   8  17
ENDBRANCH   7  10
ENDBRANCH   1   7
BRANCH   4  20
ATOM     20  C   UNL     1      48.011   8.216  12.093  0.00  0.00    +0.000 C 
BRANCH  20  21
ATOM     21  N   UNL     1      47.403   7.041  11.519  0.00  0.00    +0.000 N 
ATOM     22  C   UNL     1      46.041   6.947  11.381  0.00  0.00    +0.000 C 
ATOM     23  O   UNL     1      45.292   7.866  11.707  0.00  0.00    +0.000 OA
ATOM     24  H   UNL     1      47.974   6.205  11.455  0.00  0.00    +0.000 HD
BRANCH  22  25
ATOM     25  C   UNL     1      45.519   5.717  10.770  0.00  0.00    +0.000 A 
ATOM     26  C   UNL     1      45.749   5.471   9.422  0.00  0.00    +0.000 A 
ATOM     27  S   UNL     1      45.127   3.979   8.882  0.00  0.00    +0.000 S 
ATOM     28  C   UNL     1      44.480   3.631  10.415  0.00  0.00    +0.000 A 
ATOM     29  N   UNL     1      43.784   2.483  10.637  0.00  0.00    +0.000 NA
ATOM     30  C   UNL     1      43.320   2.364  11.835  0.00  0.00    +0.000 A 
ATOM     31  N   UNL     1      43.496   3.283  12.836  0.00  0.00    +0.000 N 
ATOM     32  C   UNL     1      44.217   4.442  12.668  0.00  0.00    +0.000 A 
ATOM     33  O   UNL     1      44.388   5.227  13.594  0.00  0.00    +0.000 OA
ATOM     34  C   UNL     1      44.750   4.632  11.333  0.00  0.00    +0.000 A 
ATOM     35  H   UNL     1      43.110   3.127  13.756  0.00  0.00    +0.000 HD
ENDBRANCH  22  25
ENDBRANCH  20  21
ENDBRANCH   4  20
TORSDOF 7
ENDMDL
MODEL 5
REMARK VINA RESULT:    -6.848      3.347      9.193
REMARK INTER + INTRA:         -10.873
REMARK INTER:                 -10.219
REMARK INTRA:                  -0.653
REMARK UNBOUND:                -1.223
REMARK  Name = 
REMARK  8 active torsions:
REMARK  status: ('A' for Active; 'I' for Inactive)
REMARK    1  A    between atoms: C_1  and  O_2
REMARK    2  A    between atoms: O_2  and  C_3
REMARK    3  A    between atoms: C_8  and  C_9
REMARK    4  A    between atoms: N_11  and  C_12
REMARK    5  A    between atoms: C_12  and  C_13
REMARK    6  A    between atoms: C_16  and  C_17
REMARK    7  A    between atoms: C_17  and  N_18
REMARK    8  A    between atoms: C_19  and  C_21
REMARK                            x       y       z     vdW  Elec       q    Type
REMARK                         _______ _______ _______ _____ _____    ______ ____
ROOT
ATOM      1  C   UNL     1      45.221   5.684  11.455  0.00  0.00    +0.000 A 
ATOM      2  C   UNL     1      46.342   5.283  12.195  0.00  0.00    +0.000 A 
ATOM      3  C   UNL     1      47.028   6.195  13.006  0.00  0.00    +0.000 A 
ATOM      4  C   UNL     1      46.593   7.523  13.111  0.00  0.00    +0.000 A 
ATOM      5  C   UNL     1      45.469   7.922  12.378  0.00  0.00    +0.000 A 
ATOM      6  C   UNL     1      44.783   7.010  11.567  0.00  0.00    +0.000 A 
ENDROOT
BRANCH   1   7
ATOM      7  C   UNL     1      44.506   4.714  10.550  0.00  0.00    +0.000 C 
BRANCH   7  10
ATOM      8  C   UNL     1      45.269   3.053   8.910  0.00  0.00    +0.000 C 
ATOM      9  O   UNL     1      44.591   2.172   9.435  0.00  0.00    +0.000 OA
ATOM     10  N   UNL     1      45.301   4.336   9.409  0.00  0.00    +0.000 N 
ATOM     11  H   UNL     1      45.916   5.015   8.975  0.00  0.00    +0.000 HD
BRANCH   8  17
ATOM     12  C   UNL     1      46.670   1.509   7.386  0.00  0.00    +0.000 A 
ATOM     13  C   UNL     1      47.436   1.374   6.215  0.00  0.00    +0.000 A 
ATOM     14  C   UNL     1      47.610   2.451   5.342  0.00  0.00    +0.000 A 
ATOM     15  C   UNL     1      47.012   3.674   5.615  0.00  0.00    +0.000 A 
ATOM     16  C   UNL     1      46.246   3.822   6.775  0.00  0.00    +0.000 A 
ATOM     17  C   UNL     1      46.067   2.752   7.673  0.00  0.00    +0.000 A 
BRANCH  12  19
ATOM     18  C   UNL     1      46.698  -0.847   7.738  0.00  0.00    +0.000 C 
ATOM     19  O   UNL     1      46.429   0.459   8.234  0.00  0.00    +0.000 OA
ENDBRANCH  12  19
ENDBRANCH   8  17
ENDBRANCH   7  10
ENDBRANCH   1   7
BRANCH   4  20
ATOM     20  C   UNL     1      47.339   8.518  13.963  0.00  0.00    +0.000 C 
BRANCH  20  21
ATOM     21  N   UNL     1      47.829   7.915  15.178  0.00  0.00    +0.000 N 
ATOM     22  C   UNL     1      49.139   7.523  15.292  0.00  0.00    +0.000 C 
ATOM     23  O   UNL     1      49.951   7.699  14.385  0.00  0.00    +0.000 OA
ATOM     24  H   UNL     1      47.140   7.565  15.836  0.00  0.00    +0.000 HD
BRANCH  22  25
ATOM     25  C   UNL     1      49.546   6.933  16.575  0.00  0.00    +0.000 A 
ATOM     26  C   UNL     1      50.545   7.544  17.323  0.00  0.00    +0.000 A 
ATOM     27  S   UNL     1      50.861   6.768  18.808  0.00  0.00    +0.000 S 
ATOM     28  C   UNL     1      49.712   5.557  18.482  0.00  0.00    +0.000 A 
ATOM     29  N   UNL     1      49.497   4.543  19.363  0.00  0.00    +0.000 NA
ATOM     30  C   UNL     1      48.624   3.675  18.972  0.00  0.00    +0.000 A 
ATOM     31  N   UNL     1      47.941   3.734  17.787  0.00  0.00    +0.000 N 
ATOM     32  C   UNL     1      48.103   4.754  16.880  0.00  0.00    +0.000 A 
ATOM     33  O   UNL     1      47.449   4.797  15.844  0.00  0.00    +0.000 OA
ATOM     34  C   UNL     1      49.084   5.751  17.264  0.00  0.00    +0.000 A 
ATOM     35  H   UNL     1      47.266   3.024  17.543  0.00  0.00    +0.000 HD
ENDBRANCH  22  25
ENDBRANCH  20  21
ENDBRANCH   4  20
TORSDOF 7
ENDMDL
MODEL 6
REMARK VINA RESULT:    -6.744      3.730      9.783
REMARK INTER + INTRA:         -10.726
REMARK INTER:                  -9.872
REMARK INTRA:                  -0.854
REMARK UNBOUND:                -1.223
REMARK  Name = 
REMARK  8 active torsions:
REMARK  status: ('A' for Active; 'I' for Inactive)
REMARK    1  A    between atoms: C_1  and  O_2
REMARK    2  A    between atoms: O_2  and  C_3
REMARK    3  A    between atoms: C_8  and  C_9
REMARK    4  A    between atoms: N_11  and  C_12
REMARK    5  A    between atoms: C_12  and  C_13
REMARK    6  A    between atoms: C_16  and  C_17
REMARK    7  A    between atoms: C_17  and  N_18
REMARK    8  A    between atoms: C_19  and  C_21
REMARK                            x       y       z     vdW  Elec       q    Type
REMARK                         _______ _______ _______ _____ _____    ______ ____
ROOT
ATOM      1  C   UNL     1      45.844   5.199  11.904  0.00  0.00    +0.000 A 
ATOM      2  C   UNL     1      46.156   4.649  13.155  0.00  0.00    +0.000 A 
ATOM      3  C   UNL     1      46.997   5.328  14.045  0.00  0.00    +0.000 A 
ATOM      4  C   UNL     1      47.527   6.581  13.711  0.00  0.00    +0.000 A 
ATOM      5  C   UNL     1      47.210   7.133  12.464  0.00  0.00    +0.000 A 
ATOM      6  C   UNL     1      46.368   6.456  11.574  0.00  0.00    +0.000 A 
ENDROOT
BRANCH   1   7
ATOM      7  C   UNL     1      44.971   4.452  10.928  0.00  0.00    +0.000 C 
BRANCH   7  10
ATOM      8  C   UNL     1      45.317   2.969   9.001  0.00  0.00    +0.000 C 
ATOM      9  O   UNL     1      44.405   2.229   9.363  0.00  0.00    +0.000 OA
ATOM     10  N   UNL     1      45.678   4.082   9.728  0.00  0.00    +0.000 N 
ATOM     11  H   UNL     1      46.471   4.633   9.419  0.00  0.00    +0.000 HD
BRANCH   8  17
ATOM     12  C   UNL     1      46.624   1.445   7.376  0.00  0.00    +0.000 A 
ATOM     13  C   UNL     1      47.332   1.330   6.167  0.00  0.00    +0.000 A 
ATOM     14  C   UNL     1      47.479   2.425   5.313  0.00  0.00    +0.000 A 
ATOM     15  C   UNL     1      46.910   3.649   5.642  0.00  0.00    +0.000 A 
ATOM     16  C   UNL     1      46.203   3.777   6.840  0.00  0.00    +0.000 A 
ATOM     17  C   UNL     1      46.052   2.689   7.721  0.00  0.00    +0.000 A 
BRANCH  12  19
ATOM     18  C   UNL     1      46.714  -0.914   7.696  0.00  0.00    +0.000 C 
ATOM     19  O   UNL     1      46.410   0.379   8.210  0.00  0.00    +0.000 OA
ENDBRANCH  12  19
ENDBRANCH   8  17
ENDBRANCH   7  10
ENDBRANCH   1   7
BRANCH   4  20
ATOM     20  C   UNL     1      48.453   7.308  14.653  0.00  0.00    +0.000 C 
BRANCH  20  21
ATOM     21  N   UNL     1      48.236   6.910  16.021  0.00  0.00    +0.000 N 
ATOM     22  C   UNL     1      49.224   6.283  16.739  0.00  0.00    +0.000 C 
ATOM     23  O   UNL     1      50.336   6.067  16.260  0.00  0.00    +0.000 OA
ATOM     24  H   UNL     1      47.277   6.878  16.352  0.00  0.00    +0.000 HD
BRANCH  22  25
ATOM     25  C   UNL     1      48.913   5.932  18.131  0.00  0.00    +0.000 A 
ATOM     26  C   UNL     1      49.150   4.639  18.581  0.00  0.00    +0.000 A 
ATOM     27  S   UNL     1      48.789   4.409  20.231  0.00  0.00    +0.000 S 
ATOM     28  C   UNL     1      48.251   6.014  20.392  0.00  0.00    +0.000 A 
ATOM     29  N   UNL     1      47.774   6.476  21.580  0.00  0.00    +0.000 NA
ATOM     30  C   UNL     1      47.368   7.701  21.552  0.00  0.00    +0.000 A 
ATOM     31  N   UNL     1      47.403   8.510  20.446  0.00  0.00    +0.000 N 
ATOM     32  C   UNL     1      47.903   8.097  19.233  0.00  0.00    +0.000 A 
ATOM     33  O   UNL     1      47.955   8.857  18.273  0.00  0.00    +0.000 OA
ATOM     34  C   UNL     1      48.362   6.722  19.207  0.00  0.00    +0.000 A 
ATOM     35  H   UNL     1      47.073   9.463  20.492  0.00  0.00    +0.000 HD
ENDBRANCH  22  25
ENDBRANCH  20  21
ENDBRANCH   4  20
TORSDOF 7
ENDMDL
MODEL 7
REMARK VINA RESULT:    -6.487      3.408      9.266
REMARK INTER + INTRA:         -10.365
REMARK INTER:                  -9.449
REMARK INTRA:                  -0.916
REMARK UNBOUND:                -1.223
REMARK  Name = 
REMARK  8 active torsions:
REMARK  status: ('A' for Active; 'I' for Inactive)
REMARK    1  A    between atoms: C_1  and  O_2
REMARK    2  A    between atoms: O_2  and  C_3
REMARK    3  A    between atoms: C_8  and  C_9
REMARK    4  A    between atoms: N_11  and  C_12
REMARK    5  A    between atoms: C_12  and  C_13
REMARK    6  A    between atoms: C_16  and  C_17
REMARK    7  A    between atoms: C_17  and  N_18
REMARK    8  A    between atoms: C_19  and  C_21
REMARK                            x       y       z     vdW  Elec       q    Type
REMARK                         _______ _______ _______ _____ _____    ______ ____
ROOT
ATOM      1  C   UNL     1      46.610   7.492  13.209  0.00  0.00    +0.000 A 
ATOM      2  C   UNL     1      46.885   8.830  13.523  0.00  0.00    +0.000 A 
ATOM      3  C   UNL     1      48.059   9.178  14.201  0.00  0.00    +0.000 A 
ATOM      4  C   UNL     1      48.993   8.197  14.560  0.00  0.00    +0.000 A 
ATOM      5  C   UNL     1      48.721   6.861  14.240  0.00  0.00    +0.000 A 
ATOM      6  C   UNL     1      47.547   6.513  13.561  0.00  0.00    +0.000 A 
ENDROOT
BRANCH   1   7
ATOM      7  C   UNL     1      45.327   7.111  12.515  0.00  0.00    +0.000 C 
BRANCH   7  10
ATOM      8  C   UNL     1      44.438   5.498  10.890  0.00  0.00    +0.000 C 
ATOM      9  O   UNL     1      43.304   5.959  11.000  0.00  0.00    +0.000 OA
ATOM     10  N   UNL     1      45.496   5.995  11.619  0.00  0.00    +0.000 N 
ATOM     11  H   UNL     1      46.402   5.548  11.534  0.00  0.00    +0.000 HD
BRANCH   8  17
ATOM     12  C   UNL     1      44.191   3.073  10.034  0.00  0.00    +0.000 A 
ATOM     13  C   UNL     1      44.563   2.106   9.085  0.00  0.00    +0.000 A 
ATOM     14  C   UNL     1      45.434   2.422   8.040  0.00  0.00    +0.000 A 
ATOM     15  C   UNL     1      45.937   3.711   7.916  0.00  0.00    +0.000 A 
ATOM     16  C   UNL     1      45.575   4.683   8.853  0.00  0.00    +0.000 A 
ATOM     17  C   UNL     1      44.707   4.382   9.920  0.00  0.00    +0.000 A 
BRANCH  12  19
ATOM     18  C   UNL     1      43.818   2.692  12.356  0.00  0.00    +0.000 C 
ATOM     19  O   UNL     1      43.294   2.815  11.038  0.00  0.00    +0.000 OA
ENDBRANCH  12  19
ENDBRANCH   8  17
ENDBRANCH   7  10
ENDBRANCH   1   7
BRANCH   4  20
ATOM     20  C   UNL     1      50.249   8.559  15.311  0.00  0.00    +0.000 C 
BRANCH  20  21
ATOM     21  N   UNL     1      50.302   7.913  16.599  0.00  0.00    +0.000 N 
ATOM     22  C   UNL     1      51.238   6.945  16.865  0.00  0.00    +0.000 C 
ATOM     23  O   UNL     1      52.085   6.616  16.036  0.00  0.00    +0.000 OA
ATOM     24  H   UNL     1      49.492   8.008  17.202  0.00  0.00    +0.000 HD
BRANCH  22  25
ATOM     25  C   UNL     1      51.222   6.357  18.211  0.00  0.00    +0.000 A 
ATOM     26  C   UNL     1      52.394   6.321  18.957  0.00  0.00    +0.000 A 
ATOM     27  S   UNL     1      52.194   5.660  20.516  0.00  0.00    +0.000 S 
ATOM     28  C   UNL     1      50.547   5.349  20.233  0.00  0.00    +0.000 A 
ATOM     29  N   UNL     1      49.774   4.755  21.182  0.00  0.00    +0.000 NA
ATOM     30  C   UNL     1      48.552   4.547  20.821  0.00  0.00    +0.000 A 
ATOM     31  N   UNL     1      48.030   4.886  19.601  0.00  0.00    +0.000 N 
ATOM     32  C   UNL     1      48.764   5.514  18.621  0.00  0.00    +0.000 A 
ATOM     33  O   UNL     1      48.257   5.838  17.554  0.00  0.00    +0.000 OA
ATOM     34  C   UNL     1      50.149   5.760  18.971  0.00  0.00    +0.000 A 
ATOM     35  H   UNL     1      47.062   4.700  19.382  0.00  0.00    +0.000 HD
ENDBRANCH  22  25
ENDBRANCH  20  21
ENDBRANCH   4  20
TORSDOF 7
ENDMDL
MODEL 8
REMARK VINA RESULT:    -6.456      2.839      3.504
REMARK INTER + INTRA:         -10.321
REMARK INTER:                  -8.793
REMARK INTRA:                  -1.528
REMARK UNBOUND:                -1.223
REMARK  Name = 
REMARK  8 active torsions:
REMARK  status: ('A' for Active; 'I' for Inactive)
REMARK    1  A    between atoms: C_1  and  O_2
REMARK    2  A    between atoms: O_2  and  C_3
REMARK    3  A    between atoms: C_8  and  C_9
REMARK    4  A    between atoms: N_11  and  C_12
REMARK    5  A    between atoms: C_12  and  C_13
REMARK    6  A    between atoms: C_16  and  C_17
REMARK    7  A    between atoms: C_17  and  N_18
REMARK    8  A    between atoms: C_19  and  C_21
REMARK                            x       y       z     vdW  Elec       q    Type
REMARK                         _______ _______ _______ _____ _____    ______ ____
ROOT
ATOM      1  C   UNL     1      49.713   8.997  15.421  0.00  0.00    +0.000 A 
ATOM      2  C   UNL     1      49.270  10.005  14.555  0.00  0.00    +0.000 A 
ATOM      3  C   UNL     1      48.772   9.690  13.285  0.00  0.00    +0.000 A 
ATOM      4  C   UNL     1      48.685   8.356  12.864  0.00  0.00    +0.000 A 
ATOM      5  C   UNL     1      49.121   7.348  13.733  0.00  0.00    +0.000 A 
ATOM      6  C   UNL     1      49.619   7.663  15.003  0.00  0.00    +0.000 A 
ENDROOT
BRANCH   1   7
ATOM      7  C   UNL     1      50.288   9.337  16.773  0.00  0.00    +0.000 C 
BRANCH   7  10
ATOM      8  C   UNL     1      48.627   8.662  18.451  0.00  0.00    +0.000 C 
ATOM      9  O   UNL     1      47.921   9.636  18.194  0.00  0.00    +0.000 OA
ATOM     10  N   UNL     1      49.826   8.448  17.808  0.00  0.00    +0.000 N 
ATOM     11  H   UNL     1      50.399   7.661  18.090  0.00  0.00    +0.000 HD
BRANCH   8  17
ATOM     12  C   UNL     1      47.817   6.318  19.171  0.00  0.00    +0.000 A 
ATOM     13  C   UNL     1      47.360   5.487  20.209  0.00  0.00    +0.000 A 
ATOM     14  C   UNL     1      47.256   5.963  21.518  0.00  0.00    +0.000 A 
ATOM     15  C   UNL     1      47.617   7.271  21.816  0.00  0.00    +0.000 A 
ATOM     16  C   UNL     1      48.073   8.108  20.794  0.00  0.00    +0.000 A 
ATOM     17  C   UNL     1      48.176   7.651  19.466  0.00  0.00    +0.000 A 
BRANCH  12  19
ATOM     18  C   UNL     1      47.369   4.632  17.549  0.00  0.00    +0.000 C 
ATOM     19  O   UNL     1      47.988   5.868  17.888  0.00  0.00    +0.000 OA
ENDBRANCH  12  19
ENDBRANCH   8  17
ENDBRANCH   7  10
ENDBRANCH   1   7
BRANCH   4  20
ATOM     20  C   UNL     1      48.172   8.008  11.490  0.00  0.00    +0.000 C 
BRANCH  20  21
ATOM     21  N   UNL     1      47.361   6.816  11.514  0.00  0.00    +0.000 N 
ATOM     22  C   UNL     1      45.996   6.893  11.634  0.00  0.00    +0.000 C 
ATOM     23  O   UNL     1      45.410   7.973  11.692  0.00  0.00    +0.000 OA
ATOM     24  H   UNL     1      47.832   5.935  11.689  0.00  0.00    +0.000 HD
BRANCH  22  25
ATOM     25  C   UNL     1      45.256   5.624  11.631  0.00  0.00    +0.000 A 
ATOM     26  C   UNL     1      44.604   5.209  12.786  0.00  0.00    +0.000 A 
ATOM     27  S   UNL     1      43.748   3.746  12.602  0.00  0.00    +0.000 S 
ATOM     28  C   UNL     1      44.260   3.586  10.988  0.00  0.00    +0.000 A 
ATOM     29  N   UNL     1      43.890   2.512  10.241  0.00  0.00    +0.000 NA
ATOM     30  C   UNL     1      44.378   2.500   9.046  0.00  0.00    +0.000 A 
ATOM     31  N   UNL     1      45.195   3.469   8.527  0.00  0.00    +0.000 N 
ATOM     32  C   UNL     1      45.571   4.587   9.233  0.00  0.00    +0.000 A 
ATOM     33  O   UNL     1      46.274   5.455   8.727  0.00  0.00    +0.000 OA
ATOM     34  C   UNL     1      45.060   4.644  10.589  0.00  0.00    +0.000 A 
ATOM     35  H   UNL     1      45.540   3.403   7.580  0.00  0.00    +0.000 HD
ENDBRANCH  22  25
ENDBRANCH  20  21
ENDBRANCH   4  20
TORSDOF 7
ENDMDL
MODEL 9
REMARK VINA RESULT:    -6.053      2.913      4.162
REMARK INTER + INTRA:          -9.753
REMARK INTER:                  -8.422
REMARK INTRA:                  -1.331
REMARK UNBOUND:                -1.223
REMARK  Name = 
REMARK  8 active torsions:
REMARK  status: ('A' for Active; 'I' for Inactive)
REMARK    1  A    between atoms: C_1  and  O_2
REMARK    2  A    between atoms: O_2  and  C_3
REMARK    3  A    between atoms: C_8  and  C_9
REMARK    4  A    between atoms: N_11  and  C_12
REMARK    5  A    between atoms: C_12  and  C_13
REMARK    6  A    between atoms: C_16  and  C_17
REMARK    7  A    between atoms: C_17  and  N_18
REMARK    8  A    between atoms: C_19  and  C_21
REMARK                            x       y       z     vdW  Elec       q    Type
REMARK                         _______ _______ _______ _____ _____    ______ ____
ROOT
ATOM      1  C   UNL     1      50.016   8.202  15.437  0.00  0.00    +0.000 A 
ATOM      2  C   UNL     1      49.314   7.033  15.115  0.00  0.00    +0.000 A 
ATOM      3  C   UNL     1      48.584   6.942  13.923  0.00  0.00    +0.000 A 
ATOM      4  C   UNL     1      48.560   8.012  13.019  0.00  0.00    +0.000 A 
ATOM      5  C   UNL     1      49.268   9.177  13.338  0.00  0.00    +0.000 A 
ATOM      6  C   UNL     1      49.998   9.268  14.529  0.00  0.00    +0.000 A 
ENDROOT
BRANCH   1   7
ATOM      7  C   UNL     1      50.769   8.316  16.739  0.00  0.00    +0.000 C 
BRANCH   7  10
ATOM      8  C   UNL     1      49.795   7.385  18.792  0.00  0.00    +0.000 C 
ATOM      9  O   UNL     1      50.426   6.338  18.658  0.00  0.00    +0.000 OA
ATOM     10  N   UNL     1      49.890   8.410  17.877  0.00  0.00    +0.000 N 
ATOM     11  H   UNL     1      49.310   9.233  18.001  0.00  0.00    +0.000 HD
BRANCH   8  17
ATOM     12  C   UNL     1      48.779   8.800  20.699  0.00  0.00    +0.000 A 
ATOM     13  C   UNL     1      47.960   8.840  21.840  0.00  0.00    +0.000 A 
ATOM     14  C   UNL     1      47.287   7.699  22.282  0.00  0.00    +0.000 A 
ATOM     15  C   UNL     1      47.409   6.503  21.586  0.00  0.00    +0.000 A 
ATOM     16  C   UNL     1      48.219   6.449  20.449  0.00  0.00    +0.000 A 
ATOM     17  C   UNL     1      48.915   7.585  19.993  0.00  0.00    +0.000 A 
BRANCH  12  19
ATOM     18  C   UNL     1      50.191  10.673  21.116  0.00  0.00    +0.000 C 
ATOM     19  O   UNL     1      49.407   9.913  20.203  0.00  0.00    +0.000 OA
ENDBRANCH  12  19
ENDBRANCH   8  17
ENDBRANCH   7  10
ENDBRANCH   1   7
BRANCH   4  20
ATOM     20  C   UNL     1      47.759   7.933  11.744  0.00  0.00    +0.000 C 
BRANCH  20  21
ATOM     21  N   UNL     1      47.045   6.684  11.643  0.00  0.00    +0.000 N 
ATOM     22  C   UNL     1      45.674   6.649  11.685  0.00  0.00    +0.000 C 
ATOM     23  O   UNL     1      45.002   7.674  11.776  0.00  0.00    +0.000 OA
ATOM     24  H   UNL     1      47.575   5.831  11.791  0.00  0.00    +0.000 HD
BRANCH  22  25
ATOM     25  C   UNL     1      45.040   5.330  11.558  0.00  0.00    +0.000 A 
ATOM     26  C   UNL     1      44.370   4.784  12.646  0.00  0.00    +0.000 A 
ATOM     27  S   UNL     1      43.643   3.277  12.318  0.00  0.00    +0.000 S 
ATOM     28  C   UNL     1      44.241   3.273  10.727  0.00  0.00    +0.000 A 
ATOM     29  N   UNL     1      43.994   2.230   9.889  0.00  0.00    +0.000 NA
ATOM     30  C   UNL     1      44.537   2.341   8.723  0.00  0.00    +0.000 A 
ATOM     31  N   UNL     1      45.297   3.406   8.315  0.00  0.00    +0.000 N 
ATOM     32  C   UNL     1      45.549   4.495   9.115  0.00  0.00    +0.000 A 
ATOM     33  O   UNL     1      46.202   5.449   8.706  0.00  0.00    +0.000 OA
ATOM     34  C   UNL     1      44.972   4.415  10.443  0.00  0.00    +0.000 A 
ATOM     35  H   UNL     1      45.691   3.434   7.386  0.00  0.00    +0.000 HD
ENDBRANCH  22  25
ENDBRANCH  20  21
ENDBRANCH   4  20
TORSDOF 7
ENDMDL
