MODEL 1
REMARK VINA RESULT:    -8.435      0.000      0.000
REMARK INTER + INTRA:         -13.251
REMARK INTER:                 -11.887
REMARK INTRA:                  -1.364
REMARK UNBOUND:                -1.364
REMARK  Name = 
REMARK  8 active torsions:
REMARK  status: ('A' for Active; 'I' for Inactive)
REMARK    1  A    between atoms: C_1  and  N_2
REMARK    2  A    between atoms: C_4  and  C_5
REMARK    3  A    between atoms: N_7  and  C_8
REMARK    4  A    between atoms: C_8  and  C_9
REMARK    5  A    between atoms: C_12  and  C_13
REMARK    6  A    between atoms: C_13  and  C_14
REMARK    7  A    between atoms: C_14  and  N_15
REMARK    8  A    between atoms: N_15  and  C_16
REMARK                            x       y       z     vdW  Elec       q    Type
REMARK                         _______ _______ _______ _____ _____    ______ ____
ROOT
ATOM      1  C   UNL     1      47.077   8.211  13.164  0.00  0.00    +0.000 C 
ENDROOT
BRANCH   1   2
ATOM      2  C   UNL     1      46.245   7.227  12.387  0.00  0.00    +0.000 A 
ATOM      3  C   UNL     1      44.980   6.870  12.854  0.00  0.00    +0.000 A 
ATOM      4  C   UNL     1      44.182   5.981  12.133  0.00  0.00    +0.000 A 
ATOM      5  C   UNL     1      44.637   5.420  10.929  0.00  0.00    +0.000 A 
ATOM      6  C   UNL     1      45.915   5.769  10.472  0.00  0.00    +0.000 A 
ATOM      7  C   UNL     1      46.713   6.660  11.196  0.00  0.00    +0.000 A 
BRANCH   5   8
ATOM      8  C   UNL     1      43.815   4.463  10.087  0.00  0.00    +0.000 C 
BRANCH   8   9
ATOM      9  C   UNL     1      44.246   3.001  10.194  0.00  0.00    +0.000 C 
BRANCH   9  10
ATOM     10  N   UNL     1      44.227   2.331   8.897  0.00  0.00    +0.000 N 
ATOM     11  H   UNL     1      43.466   2.652   8.299  0.00  0.00    +0.000 HD
BRANCH  10  12
ATOM     12  C   UNL     1      45.454   2.342   8.203  0.00  0.00    +0.000 A 
ATOM     13  C   UNL     1      46.239   1.195   8.035  0.00  0.00    +0.000 A 
ATOM     14  C   UNL     1      47.421   1.222   7.296  0.00  0.00    +0.000 A 
ATOM     15  C   UNL     1      47.820   2.403   6.676  0.00  0.00    +0.000 A 
ATOM     16  C   UNL     1      47.033   3.544   6.795  0.00  0.00    +0.000 A 
ATOM     17  C   UNL     1      45.851   3.511   7.539  0.00  0.00    +0.000 A 
ENDBRANCH  10  12
ENDBRANCH   9  10
ENDBRANCH   8   9
ENDBRANCH   5   8
ENDBRANCH   1   2
BRANCH   1  20
ATOM     18  C   UNL     1      48.674   7.026  14.570  0.00  0.00    +0.000 C 
ATOM     19  O   UNL     1      49.453   6.918  13.631  0.00  0.00    +0.000 OA
ATOM     20  N   UNL     1      47.473   7.689  14.448  0.00  0.00    +0.000 N 
ATOM     21  H   UNL     1      46.818   7.712  15.216  0.00  0.00    +0.000 HD
BRANCH  18  25
ATOM     22  C   UNL     1      50.642   6.456  19.118  0.00  0.00    +0.000 C 
ATOM     23  N   UNL     1      49.851   6.230  17.930  0.00  0.00    +0.000 N 
ATOM     24  C   UNL     1      49.815   7.039  16.827  0.00  0.00    +0.000 A 
ATOM     25  C   UNL     1      48.949   6.475  15.893  0.00  0.00    +0.000 A 
ATOM     26  C   UNL     1      48.444   5.260  16.484  0.00  0.00    +0.000 A 
ATOM     27  C   UNL     1      47.570   4.216  16.183  0.00  0.00    +0.000 A 
ATOM     28 CL   UNL     1      46.697   4.176  14.732  0.00  0.00    +0.000 Cl
ATOM     29  N   UNL     1      47.321   3.215  17.047  0.00  0.00    +0.000 NA
ATOM     30  C   UNL     1      47.961   3.253  18.221  0.00  0.00    +0.000 A 
ATOM     31  N   UNL     1      48.826   4.182  18.651  0.00  0.00    +0.000 NA
ATOM     32  C   UNL     1      49.025   5.157  17.746  0.00  0.00    +0.000 A 
ENDBRANCH  18  25
ENDBRANCH   1  20
TORSDOF 7
ENDMDL
MODEL 2
REMARK VINA RESULT:    -8.014      1.897      2.334
REMARK INTER + INTRA:         -12.658
REMARK INTER:                 -11.585
REMARK INTRA:                  -1.073
REMARK UNBOUND:                -1.364
REMARK  Name = 
REMARK  8 active torsions:
REMARK  status: ('A' for Active; 'I' for Inactive)
REMARK    1  A    between atoms: C_1  and  N_2
REMARK    2  A    between atoms: C_4  and  C_5
REMARK    3  A    between atoms: N_7  and  C_8
REMARK    4  A    between atoms: C_8  and  C_9
REMARK    5  A    between atoms: C_12  and  C_13
REMARK    6  A    between atoms: C_13  and  C_14
REMARK    7  A    between atoms: C_14  and  N_15
REMARK    8  A    between atoms: N_15  and  C_16
REMARK                            x       y       z     vdW  Elec       q    Type
REMARK                         _______ _______ _______ _____ _____    ______ ____
ROOT
ATOM      1  C   UNL     1      48.279   6.893  13.692  0.00  0.00    +0.000 C 
ENDROOT
BRANCH   1   2
ATOM      2  C   UNL     1      47.259   5.936  13.137  0.00  0.00    +0.000 A 
ATOM      3  C   UNL     1      47.042   4.712  13.771  0.00  0.00    +0.000 A 
ATOM      4  C   UNL     1      46.080   3.824  13.290  0.00  0.00    +0.000 A 
ATOM      5  C   UNL     1      45.317   4.136  12.153  0.00  0.00    +0.000 A 
ATOM      6  C   UNL     1      45.549   5.359  11.510  0.00  0.00    +0.000 A 
ATOM      7  C   UNL     1      46.514   6.249  11.994  0.00  0.00    +0.000 A 
BRANCH   5   8
ATOM      8  C   UNL     1      44.244   3.225  11.588  0.00  0.00    +0.000 C 
BRANCH   8   9
ATOM      9  C   UNL     1      44.156   3.227  10.063  0.00  0.00    +0.000 C 
BRANCH   9  10
ATOM     10  N   UNL     1      44.685   1.996   9.484  0.00  0.00    +0.000 N 
ATOM     11  H   UNL     1      43.952   1.329   9.240  0.00  0.00    +0.000 HD
BRANCH  10  12
ATOM     12  C   UNL     1      45.578   2.179   8.409  0.00  0.00    +0.000 A 
ATOM     13  C   UNL     1      45.737   3.410   7.760  0.00  0.00    +0.000 A 
ATOM     14  C   UNL     1      46.668   3.579   6.736  0.00  0.00    +0.000 A 
ATOM     15  C   UNL     1      47.489   2.517   6.367  0.00  0.00    +0.000 A 
ATOM     16  C   UNL     1      47.377   1.297   7.028  0.00  0.00    +0.000 A 
ATOM     17  C   UNL     1      46.440   1.133   8.052  0.00  0.00    +0.000 A 
ENDBRANCH  10  12
ENDBRANCH   9  10
ENDBRANCH   8   9
ENDBRANCH   5   8
ENDBRANCH   1   2
BRANCH   1  20
ATOM     18  C   UNL     1      49.103   6.868  15.984  0.00  0.00    +0.000 C 
ATOM     19  O   UNL     1      50.203   6.483  15.606  0.00  0.00    +0.000 OA
ATOM     20  N   UNL     1      48.083   7.137  15.099  0.00  0.00    +0.000 N 
ATOM     21  H   UNL     1      47.164   7.392  15.434  0.00  0.00    +0.000 HD
BRANCH  18  25
ATOM     22  C   UNL     1      47.950   9.175  20.252  0.00  0.00    +0.000 C 
ATOM     23  N   UNL     1      48.270   8.136  19.301  0.00  0.00    +0.000 N 
ATOM     24  C   UNL     1      48.482   8.316  17.962  0.00  0.00    +0.000 A 
ATOM     25  C   UNL     1      48.779   7.081  17.391  0.00  0.00    +0.000 A 
ATOM     26  C   UNL     1      48.739   6.114  18.461  0.00  0.00    +0.000 A 
ATOM     27  C   UNL     1      48.904   4.745  18.662  0.00  0.00    +0.000 A 
ATOM     28 CL   UNL     1      49.233   3.689  17.378  0.00  0.00    +0.000 Cl
ATOM     29  N   UNL     1      48.754   4.172  19.870  0.00  0.00    +0.000 NA
ATOM     30  C   UNL     1      48.443   4.980  20.890  0.00  0.00    +0.000 A 
ATOM     31  N   UNL     1      48.255   6.306  20.856  0.00  0.00    +0.000 NA
ATOM     32  C   UNL     1      48.412   6.815  19.620  0.00  0.00    +0.000 A 
ENDBRANCH  18  25
ENDBRANCH   1  20
TORSDOF 7
ENDMDL
MODEL 3
REMARK VINA RESULT:    -7.755      2.267      3.014
REMARK INTER + INTRA:         -12.293
REMARK INTER:                 -11.421
REMARK INTRA:                  -0.872
REMARK UNBOUND:                -1.364
REMARK  Name = 
REMARK  8 active torsions:
REMARK  status: ('A' for Active; 'I' for Inactive)
REMARK    1  A    between atoms: C_1  and  N_2
REMARK    2  A    between atoms: C_4  and  C_5
REMARK    3  A    between atoms: N_7  and  C_8
REMARK    4  A    between atoms: C_8  and  C_9
REMARK    5  A    between atoms: C_12  and  C_13
REMARK    6  A    between atoms: C_13  and  C_14
REMARK    7  A    between atoms: C_14  and  N_15
REMARK    8  A    between atoms: N_15  and  C_16
REMARK                            x       y       z     vdW  Elec       q    Type
REMARK                         _______ _______ _______ _____ _____    ______ ____
ROOT
ATOM      1  C   UNL     1      48.445   6.787  14.008  0.00  0.00    +0.000 C 
ENDROOT
BRANCH   1   2
ATOM      2  C   UNL     1      47.221   6.393  13.228  0.00  0.00    +0.000 A 
ATOM      3  C   UNL     1      46.808   7.174  12.148  0.00  0.00    +0.000 A 
ATOM      4  C   UNL     1      45.692   6.811  11.394  0.00  0.00    +0.000 A 
ATOM      5  C   UNL     1      44.955   5.657  11.709  0.00  0.00    +0.000 A 
ATOM      6  C   UNL     1      45.364   4.884  12.804  0.00  0.00    +0.000 A 
ATOM      7  C   UNL     1      46.483   5.250  13.559  0.00  0.00    +0.000 A 
BRANCH   5   8
ATOM      8  C   UNL     1      43.745   5.195  10.921  0.00  0.00    +0.000 C 
BRANCH   8   9
ATOM      9  C   UNL     1      43.972   3.922  10.108  0.00  0.00    +0.000 C 
BRANCH   9  10
ATOM     10  N   UNL     1      44.310   4.215   8.718  0.00  0.00    +0.000 N 
ATOM     11  H   UNL     1      44.557   5.193   8.571  0.00  0.00    +0.000 HD
BRANCH  10  12
ATOM     12  C   UNL     1      45.273   3.359   8.146  0.00  0.00    +0.000 A 
ATOM     13  C   UNL     1      46.264   3.816   7.268  0.00  0.00    +0.000 A 
ATOM     14  C   UNL     1      47.240   2.959   6.760  0.00  0.00    +0.000 A 
ATOM     15  C   UNL     1      47.260   1.625   7.158  0.00  0.00    +0.000 A 
ATOM     16  C   UNL     1      46.311   1.160   8.062  0.00  0.00    +0.000 A 
ATOM     17  C   UNL     1      45.334   2.023   8.566  0.00  0.00    +0.000 A 
ENDBRANCH  10  12
ENDBRANCH   9  10
ENDBRANCH   8   9
ENDBRANCH   5   8
ENDBRANCH   1   2
BRANCH   1  20
ATOM     18  C   UNL     1      49.288   6.532  16.279  0.00  0.00    +0.000 C 
ATOM     19  O   UNL     1      50.439   6.465  15.867  0.00  0.00    +0.000 OA
ATOM     20  N   UNL     1      48.221   6.730  15.431  0.00  0.00    +0.000 N 
ATOM     21  H   UNL     1      47.274   6.719  15.783  0.00  0.00    +0.000 HD
BRANCH  18  25
ATOM     22  C   UNL     1      48.656   4.590  20.830  0.00  0.00    +0.000 C 
ATOM     23  N   UNL     1      48.660   5.526  19.729  0.00  0.00    +0.000 N 
ATOM     24  C   UNL     1      49.130   5.277  18.469  0.00  0.00    +0.000 A 
ATOM     25  C   UNL     1      48.946   6.419  17.694  0.00  0.00    +0.000 A 
ATOM     26  C   UNL     1      48.330   7.402  18.552  0.00  0.00    +0.000 A 
ATOM     27  C   UNL     1      47.879   8.720  18.505  0.00  0.00    +0.000 A 
ATOM     28 CL   UNL     1      48.029   9.662  17.104  0.00  0.00    +0.000 Cl
ATOM     29  N   UNL     1      47.356   9.340  19.577  0.00  0.00    +0.000 NA
ATOM     30  C   UNL     1      47.276   8.631  20.709  0.00  0.00    +0.000 A 
ATOM     31  N   UNL     1      47.662   7.364  20.909  0.00  0.00    +0.000 NA
ATOM     32  C   UNL     1      48.182   6.804  19.801  0.00  0.00    +0.000 A 
ENDBRANCH  18  25
ENDBRANCH   1  20
TORSDOF 7
ENDMDL
MODEL 4
REMARK VINA RESULT:    -7.697      2.550      3.238
REMARK INTER + INTRA:         -12.210
REMARK INTER:                 -11.333
REMARK INTRA:                  -0.877
REMARK UNBOUND:                -1.364
REMARK  Name = 
REMARK  8 active torsions:
REMARK  status: ('A' for Active; 'I' for Inactive)
REMARK    1  A    between atoms: C_1  and  N_2
REMARK    2  A    between atoms: C_4  and  C_5
REMARK    3  A    between atoms: N_7  and  C_8
REMARK    4  A    between atoms: C_8  and  C_9
REMARK    5  A    between atoms: C_12  and  C_13
REMARK    6  A    between atoms: C_13  and  C_14
REMARK    7  A    between atoms: C_14  and  N_15
REMARK    8  A    between atoms: N_15  and  C_16
REMARK                            x       y       z     vdW  Elec       q    Type
REMARK                         _______ _______ _______ _____ _____    ______ ____
ROOT
ATOM      1  C   UNL     1      48.359   6.472  14.023  0.00  0.00    +0.000 C 
ENDROOT
BRANCH   1   2
ATOM      2  C   UNL     1      47.166   5.974  13.253  0.00  0.00    +0.000 A 
ATOM      3  C   UNL     1      46.886   6.503  11.993  0.00  0.00    +0.000 A 
ATOM      4  C   UNL     1      45.802   6.034  11.251  0.00  0.00    +0.000 A 
ATOM      5  C   UNL     1      44.963   5.028  11.759  0.00  0.00    +0.000 A 
ATOM      6  C   UNL     1      45.239   4.511  13.031  0.00  0.00    +0.000 A 
ATOM      7  C   UNL     1      46.326   4.982  13.774  0.00  0.00    +0.000 A 
BRANCH   5   8
ATOM      8  C   UNL     1      43.780   4.461  10.998  0.00  0.00    +0.000 C 
BRANCH   8   9
ATOM      9  C   UNL     1      44.115   3.258  10.119  0.00  0.00    +0.000 C 
BRANCH   9  10
ATOM     10  N   UNL     1      44.395   3.649   8.741  0.00  0.00    +0.000 N 
ATOM     11  H   UNL     1      44.525   4.656   8.636  0.00  0.00    +0.000 HD
BRANCH  10  12
ATOM     12  C   UNL     1      45.442   2.938   8.120  0.00  0.00    +0.000 A 
ATOM     13  C   UNL     1      45.761   1.617   8.457  0.00  0.00    +0.000 A 
ATOM     14  C   UNL     1      46.766   0.917   7.789  0.00  0.00    +0.000 A 
ATOM     15  C   UNL     1      47.447   1.524   6.737  0.00  0.00    +0.000 A 
ATOM     16  C   UNL     1      47.116   2.821   6.358  0.00  0.00    +0.000 A 
ATOM     17  C   UNL     1      46.110   3.518   7.033  0.00  0.00    +0.000 A 
ENDBRANCH  10  12
ENDBRANCH   9  10
ENDBRANCH   8   9
ENDBRANCH   5   8
ENDBRANCH   1   2
BRANCH   1  20
ATOM     18  C   UNL     1      48.942   6.566  16.386  0.00  0.00    +0.000 C 
ATOM     19  O   UNL     1      50.066   6.143  16.147  0.00  0.00    +0.000 OA
ATOM     20  N   UNL     1      48.024   6.800  15.386  0.00  0.00    +0.000 N 
ATOM     21  H   UNL     1      47.082   7.089  15.609  0.00  0.00    +0.000 HD
BRANCH  18  25
ATOM     22  C   UNL     1      47.517   5.933  21.123  0.00  0.00    +0.000 C 
ATOM     23  N   UNL     1      47.834   6.561  19.861  0.00  0.00    +0.000 N 
ATOM     24  C   UNL     1      48.318   5.925  18.751  0.00  0.00    +0.000 A 
ATOM     25  C   UNL     1      48.480   6.866  17.737  0.00  0.00    +0.000 A 
ATOM     26  C   UNL     1      48.067   8.135  18.286  0.00  0.00    +0.000 A 
ATOM     27  C   UNL     1      47.962   9.472  17.908  0.00  0.00    +0.000 A 
ATOM     28 CL   UNL     1      48.443  10.003  16.372  0.00  0.00    +0.000 Cl
ATOM     29  N   UNL     1      47.532  10.427  18.752  0.00  0.00    +0.000 NA
ATOM     30  C   UNL     1      47.196  10.038  19.987  0.00  0.00    +0.000 A 
ATOM     31  N   UNL     1      47.240   8.799  20.495  0.00  0.00    +0.000 NA
ATOM     32  C   UNL     1      47.684   7.894  19.604  0.00  0.00    +0.000 A 
ENDBRANCH  18  25
ENDBRANCH   1  20
TORSDOF 7
ENDMDL
MODEL 5
REMARK VINA RESULT:    -7.627      2.473      2.916
REMARK INTER + INTRA:         -12.112
REMARK INTER:                 -11.046
REMARK INTRA:                  -1.066
REMARK UNBOUND:                -1.364
REMARK  Name = 
REMARK  8 active torsions:
REMARK  status: ('A' for Active; 'I' for Inactive)
REMARK    1  A    between atoms: C_1  and  N_2
REMARK    2  A    between atoms: C_4  and  C_5
REMARK    3  A    between atoms: N_7  and  C_8
REMARK    4  A    between atoms: C_8  and  C_9
REMARK    5  A    between atoms: C_12  and  C_13
REMARK    6  A    between atoms: C_13  and  C_14
REMARK    7  A    between atoms: C_14  and  N_15
REMARK    8  A    between atoms: N_15  and  C_16
REMARK                            x       y       z     vdW  Elec       q    Type
REMARK                         _______ _______ _______ _____ _____    ______ ____
ROOT
ATOM      1  C   UNL     1      48.512   6.973  15.173  0.00  0.00    +0.000 C 
ENDROOT
BRANCH   1   2
ATOM      2  C   UNL     1      47.614   6.172  14.271  0.00  0.00    +0.000 A 
ATOM      3  C   UNL     1      47.290   6.662  13.006  0.00  0.00    +0.000 A 
ATOM      4  C   UNL     1      46.483   5.921  12.143  0.00  0.00    +0.000 A 
ATOM      5  C   UNL     1      45.971   4.671  12.531  0.00  0.00    +0.000 A 
ATOM      6  C   UNL     1      46.286   4.191  13.809  0.00  0.00    +0.000 A 
ATOM      7  C   UNL     1      47.096   4.935  14.672  0.00  0.00    +0.000 A 
BRANCH   5   8
ATOM      8  C   UNL     1      45.103   3.807  11.637  0.00  0.00    +0.000 C 
BRANCH   8   9
ATOM      9  C   UNL     1      44.500   4.545  10.443  0.00  0.00    +0.000 C 
BRANCH   9  10
ATOM     10  N   UNL     1      44.115   3.629   9.373  0.00  0.00    +0.000 N 
ATOM     11  H   UNL     1      43.415   4.027   8.746  0.00  0.00    +0.000 HD
BRANCH  10  12
ATOM     12  C   UNL     1      45.190   3.080   8.644  0.00  0.00    +0.000 A 
ATOM     13  C   UNL     1      45.512   1.718   8.683  0.00  0.00    +0.000 A 
ATOM     14  C   UNL     1      46.546   1.191   7.909  0.00  0.00    +0.000 A 
ATOM     15  C   UNL     1      47.256   2.023   7.048  0.00  0.00    +0.000 A 
ATOM     16  C   UNL     1      46.924   3.372   6.962  0.00  0.00    +0.000 A 
ATOM     17  C   UNL     1      45.889   3.894   7.742  0.00  0.00    +0.000 A 
ENDBRANCH  10  12
ENDBRANCH   9  10
ENDBRANCH   8   9
ENDBRANCH   5   8
ENDBRANCH   1   2
BRANCH   1  20
ATOM     18  C   UNL     1      49.570   5.740  16.988  0.00  0.00    +0.000 C 
ATOM     19  O   UNL     1      48.604   5.938  17.714  0.00  0.00    +0.000 OA
ATOM     20  N   UNL     1      49.606   6.186  15.685  0.00  0.00    +0.000 N 
ATOM     21  H   UNL     1      50.437   6.068  15.123  0.00  0.00    +0.000 HD
BRANCH  18  25
ATOM     22  C   UNL     1      54.174   4.825  18.674  0.00  0.00    +0.000 C 
ATOM     23  N   UNL     1      52.832   4.622  18.180  0.00  0.00    +0.000 N 
ATOM     24  C   UNL     1      51.927   5.608  17.896  0.00  0.00    +0.000 A 
ATOM     25  C   UNL     1      50.757   5.014  17.430  0.00  0.00    +0.000 A 
ATOM     26  C   UNL     1      50.988   3.590  17.441  0.00  0.00    +0.000 A 
ATOM     27  C   UNL     1      50.319   2.403  17.145  0.00  0.00    +0.000 A 
ATOM     28 CL   UNL     1      48.709   2.396  16.618  0.00  0.00    +0.000 Cl
ATOM     29  N   UNL     1      50.887   1.196  17.317  0.00  0.00    +0.000 NA
ATOM     30  C   UNL     1      52.141   1.175  17.782  0.00  0.00    +0.000 A 
ATOM     31  N   UNL     1      52.910   2.224  18.108  0.00  0.00    +0.000 NA
ATOM     32  C   UNL     1      52.282   3.398  17.920  0.00  0.00    +0.000 A 
ENDBRANCH  18  25
ENDBRANCH   1  20
TORSDOF 7
ENDMDL
MODEL 6
REMARK VINA RESULT:    -7.530      1.988      2.521
REMARK INTER + INTRA:         -11.974
REMARK INTER:                 -10.711
REMARK INTRA:                  -1.263
REMARK UNBOUND:                -1.364
REMARK  Name = 
REMARK  8 active torsions:
REMARK  status: ('A' for Active; 'I' for Inactive)
REMARK    1  A    between atoms: C_1  and  N_2
REMARK    2  A    between atoms: C_4  and  C_5
REMARK    3  A    between atoms: N_7  and  C_8
REMARK    4  A    between atoms: C_8  and  C_9
REMARK    5  A    between atoms: C_12  and  C_13
REMARK    6  A    between atoms: C_13  and  C_14
REMARK    7  A    between atoms: C_14  and  N_15
REMARK    8  A    between atoms: N_15  and  C_16
REMARK                            x       y       z     vdW  Elec       q    Type
REMARK                         _______ _______ _______ _____ _____    ______ ____
ROOT
ATOM      1  C   UNL     1      48.054   7.523  13.248  0.00  0.00    +0.000 C 
ENDROOT
BRANCH   1   2
ATOM      2  C   UNL     1      47.124   6.399  12.879  0.00  0.00    +0.000 A 
ATOM      3  C   UNL     1      46.302   6.521  11.758  0.00  0.00    +0.000 A 
ATOM      4  C   UNL     1      45.455   5.480  11.383  0.00  0.00    +0.000 A 
ATOM      5  C   UNL     1      45.401   4.290  12.129  0.00  0.00    +0.000 A 
ATOM      6  C   UNL     1      46.216   4.179  13.263  0.00  0.00    +0.000 A 
ATOM      7  C   UNL     1      47.065   5.224  13.638  0.00  0.00    +0.000 A 
BRANCH   5   8
ATOM      8  C   UNL     1      44.516   3.114  11.766  0.00  0.00    +0.000 C 
BRANCH   8   9
ATOM      9  C   UNL     1      44.044   3.105  10.313  0.00  0.00    +0.000 C 
BRANCH   9  10
ATOM     10  N   UNL     1      44.529   1.935   9.588  0.00  0.00    +0.000 N 
ATOM     11  H   UNL     1      43.772   1.349   9.235  0.00  0.00    +0.000 HD
BRANCH  10  12
ATOM     12  C   UNL     1      45.469   2.211   8.574  0.00  0.00    +0.000 A 
ATOM     13  C   UNL     1      45.675   3.498   8.064  0.00  0.00    +0.000 A 
ATOM     14  C   UNL     1      46.650   3.754   7.100  0.00  0.00    +0.000 A 
ATOM     15  C   UNL     1      47.467   2.718   6.655  0.00  0.00    +0.000 A 
ATOM     16  C   UNL     1      47.308   1.440   7.180  0.00  0.00    +0.000 A 
ATOM     17  C   UNL     1      46.327   1.190   8.143  0.00  0.00    +0.000 A 
ENDBRANCH  10  12
ENDBRANCH   9  10
ENDBRANCH   8   9
ENDBRANCH   5   8
ENDBRANCH   1   2
BRANCH   1  20
ATOM     18  C   UNL     1      49.460   7.633  15.234  0.00  0.00    +0.000 C 
ATOM     19  O   UNL     1      48.734   8.488  15.726  0.00  0.00    +0.000 OA
ATOM     20  N   UNL     1      49.185   7.060  14.013  0.00  0.00    +0.000 N 
ATOM     21  H   UNL     1      49.830   6.403  13.595  0.00  0.00    +0.000 HD
BRANCH  18  25
ATOM     22  C   UNL     1      54.215   7.287  16.700  0.00  0.00    +0.000 C 
ATOM     23  N   UNL     1      52.808   6.999  16.535  0.00  0.00    +0.000 N 
ATOM     24  C   UNL     1      51.914   7.759  15.832  0.00  0.00    +0.000 A 
ATOM     25  C   UNL     1      50.666   7.144  15.894  0.00  0.00    +0.000 A 
ATOM     26  C   UNL     1      50.837   5.949  16.685  0.00  0.00    +0.000 A 
ATOM     27  C   UNL     1      50.085   4.882  17.174  0.00  0.00    +0.000 A 
ATOM     28 CL   UNL     1      48.417   4.767  16.896  0.00  0.00    +0.000 Cl
ATOM     29  N   UNL     1      50.621   3.916  17.941  0.00  0.00    +0.000 NA
ATOM     30  C   UNL     1      51.926   4.014  18.216  0.00  0.00    +0.000 A 
ATOM     31  N   UNL     1      52.776   4.972  17.820  0.00  0.00    +0.000 NA
ATOM     32  C   UNL     1      52.177   5.909  17.063  0.00  0.00    +0.000 A 
ENDBRANCH  18  25
ENDBRANCH   1  20
TORSDOF 7
ENDMDL
MODEL 7
REMARK VINA RESULT:    -7.090      3.898      5.905
REMARK INTER + INTRA:         -11.355
REMARK INTER:                 -10.208
REMARK INTRA:                  -1.146
REMARK UNBOUND:                -1.364
REMARK  Name = 
REMARK  8 active torsions:
REMARK  status: ('A' for Active; 'I' for Inactive)
REMARK    1  A    between atoms: C_1  and  N_2
REMARK    2  A    between atoms: C_4  and  C_5
REMARK    3  A    between atoms: N_7  and  C_8
REMARK    4  A    between atoms: C_8  and  C_9
REMARK    5  A    between atoms: C_12  and  C_13
REMARK    6  A    between atoms: C_13  and  C_14
REMARK    7  A    between atoms: C_14  and  N_15
REMARK    8  A    between atoms: N_15  and  C_16
REMARK                            x       y       z     vdW  Elec       q    Type
REMARK                         _______ _______ _______ _____ _____    ______ ____
ROOT
ATOM      1  C   UNL     1      48.770   6.541  13.543  0.00  0.00    +0.000 C 
ENDROOT
BRANCH   1   2
ATOM      2  C   UNL     1      47.475   6.144  12.888  0.00  0.00    +0.000 A 
ATOM      3  C   UNL     1      47.012   6.859  11.783  0.00  0.00    +0.000 A 
ATOM      4  C   UNL     1      45.829   6.489  11.143  0.00  0.00    +0.000 A 
ATOM      5  C   UNL     1      45.074   5.397  11.602  0.00  0.00    +0.000 A 
ATOM      6  C   UNL     1      45.535   4.692  12.721  0.00  0.00    +0.000 A 
ATOM      7  C   UNL     1      46.721   5.065  13.361  0.00  0.00    +0.000 A 
BRANCH   5   8
ATOM      8  C   UNL     1      43.790   4.931  10.943  0.00  0.00    +0.000 C 
BRANCH   8   9
ATOM      9  C   UNL     1      43.977   3.802   9.930  0.00  0.00    +0.000 C 
BRANCH   9  10
ATOM     10  N   UNL     1      44.614   4.270   8.703  0.00  0.00    +0.000 N 
ATOM     11  H   UNL     1      45.061   5.181   8.813  0.00  0.00    +0.000 HD
BRANCH  10  12
ATOM     12  C   UNL     1      45.493   3.348   8.099  0.00  0.00    +0.000 A 
ATOM     13  C   UNL     1      46.431   3.721   7.129  0.00  0.00    +0.000 A 
ATOM     14  C   UNL     1      47.327   2.799   6.588  0.00  0.00    +0.000 A 
ATOM     15  C   UNL     1      47.322   1.483   7.044  0.00  0.00    +0.000 A 
ATOM     16  C   UNL     1      46.427   1.101   8.039  0.00  0.00    +0.000 A 
ATOM     17  C   UNL     1      45.530   2.029   8.574  0.00  0.00    +0.000 A 
ENDBRANCH  10  12
ENDBRANCH   9  10
ENDBRANCH   8   9
ENDBRANCH   5   8
ENDBRANCH   1   2
BRANCH   1  20
ATOM     18  C   UNL     1      50.092   8.515  13.005  0.00  0.00    +0.000 C 
ATOM     19  O   UNL     1      49.845   9.005  14.100  0.00  0.00    +0.000 OA
ATOM     20  N   UNL     1      49.631   7.269  12.644  0.00  0.00    +0.000 N 
ATOM     21  H   UNL     1      49.792   6.910  11.714  0.00  0.00    +0.000 HD
BRANCH  18  25
ATOM     22  C   UNL     1      54.024   9.908  10.270  0.00  0.00    +0.000 C 
ATOM     23  N   UNL     1      52.676   9.817  10.784  0.00  0.00    +0.000 N 
ATOM     24  C   UNL     1      52.254   8.975  11.775  0.00  0.00    +0.000 A 
ATOM     25  C   UNL     1      50.897   9.197  11.996  0.00  0.00    +0.000 A 
ATOM     26  C   UNL     1      50.496  10.234  11.076  0.00  0.00    +0.000 A 
ATOM     27  C   UNL     1      49.355  10.946  10.709  0.00  0.00    +0.000 A 
ATOM     28 CL   UNL     1      47.848  10.639  11.419  0.00  0.00    +0.000 Cl
ATOM     29  N   UNL     1      49.368  11.871   9.734  0.00  0.00    +0.000 NA
ATOM     30  C   UNL     1      50.537  12.094   9.123  0.00  0.00    +0.000 A 
ATOM     31  N   UNL     1      51.712  11.496   9.364  0.00  0.00    +0.000 NA
ATOM     32  C   UNL     1      51.630  10.578  10.344  0.00  0.00    +0.000 A 
ENDBRANCH  18  25
ENDBRANCH   1  20
TORSDOF 7
ENDMDL
MODEL 8
REMARK VINA RESULT:    -7.060      2.853      3.875
REMARK INTER + INTRA:         -11.312
REMARK INTER:                 -10.278
REMARK INTRA:                  -1.035
REMARK UNBOUND:                -1.364
REMARK  Name = 
REMARK  8 active torsions:
REMARK  status: ('A' for Active; 'I' for Inactive)
REMARK    1  A    between atoms: C_1  and  N_2
REMARK    2  A    between atoms: C_4  and  C_5
REMARK    3  A    between atoms: N_7  and  C_8
REMARK    4  A    between atoms: C_8  and  C_9
REMARK    5  A    between atoms: C_12  and  C_13
REMARK    6  A    between atoms: C_13  and  C_14
REMARK    7  A    between atoms: C_14  and  N_15
REMARK    8  A    between atoms: N_15  and  C_16
REMARK                            x       y       z     vdW  Elec       q    Type
REMARK                         _______ _______ _______ _____ _____    ______ ____
ROOT
ATOM      1  C   UNL     1      46.801   8.600  13.028  0.00  0.00    +0.000 C 
ENDROOT
BRANCH   1   2
ATOM      2  C   UNL     1      46.306   7.219  12.692  0.00  0.00    +0.000 A 
ATOM      3  C   UNL     1      45.452   7.036  11.603  0.00  0.00    +0.000 A 
ATOM      4  C   UNL     1      45.006   5.761  11.258  0.00  0.00    +0.000 A 
ATOM      5  C   UNL     1      45.396   4.635  12.002  0.00  0.00    +0.000 A 
ATOM      6  C   UNL     1      46.241   4.826  13.104  0.00  0.00    +0.000 A 
ATOM      7  C   UNL     1      46.688   6.105  13.449  0.00  0.00    +0.000 A 
BRANCH   5   8
ATOM      8  C   UNL     1      44.962   3.221  11.671  0.00  0.00    +0.000 C 
BRANCH   8   9
ATOM      9  C   UNL     1      44.119   3.102  10.403  0.00  0.00    +0.000 C 
BRANCH   9  10
ATOM     10  N   UNL     1      44.498   1.942   9.601  0.00  0.00    +0.000 N 
ATOM     11  H   UNL     1      43.692   1.439   9.230  0.00  0.00    +0.000 HD
BRANCH  10  12
ATOM     12  C   UNL     1      45.441   2.203   8.586  0.00  0.00    +0.000 A 
ATOM     13  C   UNL     1      45.682   3.490   8.091  0.00  0.00    +0.000 A 
ATOM     14  C   UNL     1      46.660   3.729   7.126  0.00  0.00    +0.000 A 
ATOM     15  C   UNL     1      47.446   2.676   6.665  0.00  0.00    +0.000 A 
ATOM     16  C   UNL     1      47.252   1.396   7.175  0.00  0.00    +0.000 A 
ATOM     17  C   UNL     1      46.268   1.163   8.140  0.00  0.00    +0.000 A 
ENDBRANCH  10  12
ENDBRANCH   9  10
ENDBRANCH   8   9
ENDBRANCH   5   8
ENDBRANCH   1   2
BRANCH   1  20
ATOM     18  C   UNL     1      48.381   8.878  14.861  0.00  0.00    +0.000 C 
ATOM     19  O   UNL     1      49.317   8.936  14.074  0.00  0.00    +0.000 OA
ATOM     20  N   UNL     1      47.077   8.748  14.435  0.00  0.00    +0.000 N 
ATOM     21  H   UNL     1      46.326   8.638  15.101  0.00  0.00    +0.000 HD
BRANCH  18  25
ATOM     22  C   UNL     1      48.672   7.491  19.643  0.00  0.00    +0.000 C 
ATOM     23  N   UNL     1      48.676   8.309  18.452  0.00  0.00    +0.000 N 
ATOM     24  C   UNL     1      48.507   7.859  17.172  0.00  0.00    +0.000 A 
ATOM     25  C   UNL     1      48.557   8.950  16.308  0.00  0.00    +0.000 A 
ATOM     26  C   UNL     1      48.772  10.115  17.132  0.00  0.00    +0.000 A 
ATOM     27  C   UNL     1      48.937  11.493  17.000  0.00  0.00    +0.000 A 
ATOM     28 CL   UNL     1      48.956  12.246  15.483  0.00  0.00    +0.000 Cl
ATOM     29  N   UNL     1      49.152  12.295  18.058  0.00  0.00    +0.000 NA
ATOM     30  C   UNL     1      49.192  11.714  19.262  0.00  0.00    +0.000 A 
ATOM     31  N   UNL     1      49.049  10.413  19.548  0.00  0.00    +0.000 NA
ATOM     32  C   UNL     1      48.845   9.666  18.448  0.00  0.00    +0.000 A 
ENDBRANCH  18  25
ENDBRANCH   1  20
TORSDOF 7
ENDMDL
MODEL 9
REMARK VINA RESULT:    -6.878      2.421      3.757
REMARK INTER + INTRA:         -11.056
REMARK INTER:                  -9.998
REMARK INTRA:                  -1.058
REMARK UNBOUND:                -1.364
REMARK  Name = 
REMARK  8 active torsions:
REMARK  status: ('A' for Active; 'I' for Inactive)
REMARK    1  A    between atoms: C_1  and  N_2
REMARK    2  A    between atoms: C_4  and  C_5
REMARK    3  A    between atoms: N_7  and  C_8
REMARK    4  A    between atoms: C_8  and  C_9
REMARK    5  A    between atoms: C_12  and  C_13
REMARK    6  A    between atoms: C_13  and  C_14
REMARK    7  A    between atoms: C_14  and  N_15
REMARK    8  A    between atoms: N_15  and  C_16
REMARK                            x       y       z     vdW  Elec       q    Type
REMARK                         _______ _______ _______ _____ _____    ______ ____
ROOT
ATOM      1  C   UNL     1      47.473   4.643  15.041  0.00  0.00    +0.000 C 
ENDROOT
BRANCH   1   2
ATOM      2  C   UNL     1      46.523   4.521  13.880  0.00  0.00    +0.000 A 
ATOM      3  C   UNL     1      45.887   5.659  13.385  0.00  0.00    +0.000 A 
ATOM      4  C   UNL     1      45.026   5.572  12.291  0.00  0.00    +0.000 A 
ATOM      5  C   UNL     1      44.772   4.336  11.672  0.00  0.00    +0.000 A 
ATOM      6  C   UNL     1      45.401   3.194  12.183  0.00  0.00    +0.000 A 
ATOM      7  C   UNL     1      46.264   3.283  13.280  0.00  0.00    +0.000 A 
BRANCH   5   8
ATOM      8  C   UNL     1      43.862   4.174  10.470  0.00  0.00    +0.000 C 
BRANCH   8   9
ATOM      9  C   UNL     1      44.480   4.622   9.147  0.00  0.00    +0.000 C 
BRANCH   9  10
ATOM     10  N   UNL     1      44.287   3.632   8.091  0.00  0.00    +0.000 N 
ATOM     11  H   UNL     1      43.814   4.016   7.273  0.00  0.00    +0.000 HD
BRANCH  10  12
ATOM     12  C   UNL     1      45.449   2.926   7.717  0.00  0.00    +0.000 A 
ATOM     13  C   UNL     1      45.777   1.673   8.249  0.00  0.00    +0.000 A 
ATOM     14  C   UNL     1      46.903   0.971   7.821  0.00  0.00    +0.000 A 
ATOM     15  C   UNL     1      47.706   1.503   6.815  0.00  0.00    +0.000 A 
ATOM     16  C   UNL     1      47.375   2.727   6.243  0.00  0.00    +0.000 A 
ATOM     17  C   UNL     1      46.246   3.427   6.679  0.00  0.00    +0.000 A 
ENDBRANCH  10  12
ENDBRANCH   9  10
ENDBRANCH   8   9
ENDBRANCH   5   8
ENDBRANCH   1   2
BRANCH   1  20
ATOM     18  C   UNL     1      48.888   6.363  16.028  0.00  0.00    +0.000 C 
ATOM     19  O   UNL     1      49.777   5.546  16.229  0.00  0.00    +0.000 OA
ATOM     20  N   UNL     1      47.709   6.018  15.405  0.00  0.00    +0.000 N 
ATOM     21  H   UNL     1      46.962   6.691  15.305  0.00  0.00    +0.000 HD
BRANCH  18  25
ATOM     22  C   UNL     1      49.032  10.463  18.864  0.00  0.00    +0.000 C 
ATOM     23  N   UNL     1      49.050   9.597  17.708  0.00  0.00    +0.000 N 
ATOM     24  C   UNL     1      48.958   8.232  17.730  0.00  0.00    +0.000 A 
ATOM     25  C   UNL     1      48.997   7.765  16.418  0.00  0.00    +0.000 A 
ATOM     26  C   UNL     1      49.121   8.928  15.573  0.00  0.00    +0.000 A 
ATOM     27  C   UNL     1      49.229   9.251  14.221  0.00  0.00    +0.000 A 
ATOM     28 CL   UNL     1      49.280   8.056  13.021  0.00  0.00    +0.000 Cl
ATOM     29  N   UNL     1      49.360  10.520  13.794  0.00  0.00    +0.000 NA
ATOM     30  C   UNL     1      49.374  11.477  14.728  0.00  0.00    +0.000 A 
ATOM     31  N   UNL     1      49.278  11.325  16.056  0.00  0.00    +0.000 NA
ATOM     32  C   UNL     1      49.157  10.034  16.418  0.00  0.00    +0.000 A 
ENDBRANCH  18  25
ENDBRANCH   1  20
TORSDOF 7
ENDMDL
