MODEL 1
REMARK VINA RESULT:    -7.030      0.000      0.000
REMARK INTER + INTRA:          -9.337
REMARK INTER:                  -8.880
REMARK INTRA:                  -0.457
REMARK UNBOUND:                -0.457
REMARK  Name = 
REMARK  5 active torsions:
REMARK  status: ('A' for Active; 'I' for Inactive)
REMARK    1  A    between atoms: N_1  and  C_2
REMARK    2  A    between atoms: C_2  and  C_3
REMARK    3  A    between atoms: C_7  and  C_8
REMARK    4  A    between atoms: C_8  and  N_9
REMARK    5  A    between atoms: N_9  and  C_10
REMARK                            x       y       z     vdW  Elec       q    Type
REMARK                         _______ _______ _______ _____ _____    ______ ____
ROOT
ATOM      1  C   UNL     1      46.703   2.277   7.436  0.00  0.00    +0.000 A 
ATOM      2  C   UNL     1      46.802   3.636   7.159  0.00  0.00    +0.000 A 
ATOM      3  N   UNL     1      46.099   4.595   7.801  0.00  0.00    +0.000 NA
ATOM      4  C   UNL     1      45.269   4.178   8.782  0.00  0.00    +0.000 A 
ATOM      5  C   UNL     1      45.106   2.850   9.173  0.00  0.00    +0.000 A 
ATOM      6  C   UNL     1      45.838   1.889   8.468  0.00  0.00    +0.000 A 
ENDROOT
BRANCH   1   7
ATOM      7  C   UNL     1      47.510   1.275   6.664  0.00  0.00    +0.000 C 
BRANCH   7   8
ATOM      8  N   UNL     1      48.489   1.930   5.807  0.00  0.00    +0.000 NA
ATOM      9  H   UNL     1      48.041   2.198   4.932  0.00  0.00    +0.000 HD
ATOM     10  H   UNL     1      49.218   1.262   5.563  0.00  0.00    +0.000 HD
ENDBRANCH   7   8
ENDBRANCH   1   7
BRANCH   5  11
ATOM     11  C   UNL     1      44.082   2.514  10.228  0.00  0.00    +0.000 C 
BRANCH  11  12
ATOM     12  N   UNL     1      43.464   3.688  10.865  0.00  0.00    +0.000 NA
ATOM     13  H   UNL     1      42.468   3.671  10.646  0.00  0.00    +0.000 HD
BRANCH  12  14
ATOM     14  C   UNL     1      43.617   3.671  12.337  0.00  0.00    +0.000 C 
ATOM     15  C   UNL     1      43.072   4.982  12.936  0.00  0.00    +0.000 C 
ATOM     16  C   UNL     1      44.024   6.162  12.738  0.00  0.00    +0.000 C 
ATOM     17  N   UNL     1      45.360   5.885  13.274  0.00  0.00    +0.000 NA
ATOM     18  C   UNL     1      45.933   4.706  12.622  0.00  0.00    +0.000 C 
ATOM     19  C   UNL     1      45.060   3.470  12.834  0.00  0.00    +0.000 C 
ATOM     20  H   UNL     1      45.290   5.713  14.277  0.00  0.00    +0.000 HD
ENDBRANCH  12  14
ENDBRANCH  11  12
ENDBRANCH   5  11
TORSDOF 5
ENDMDL
MODEL 2
REMARK VINA RESULT:    -6.963      1.614      2.186
REMARK INTER + INTRA:          -9.253
REMARK INTER:                  -8.865
REMARK INTRA:                  -0.388
REMARK UNBOUND:                -0.457
REMARK  Name = 
REMARK  5 active torsions:
REMARK  status: ('A' for Active; 'I' for Inactive)
REMARK    1  A    between atoms: N_1  and  C_2
REMARK    2  A    between atoms: C_2  and  C_3
REMARK    3  A    between atoms: C_7  and  C_8
REMARK    4  A    between atoms: C_8  and  N_9
REMARK    5  A    between atoms: N_9  and  C_10
REMARK                            x       y       z     vdW  Elec       q    Type
REMARK                         _______ _______ _______ _____ _____    ______ ____
ROOT
ATOM      1  C   UNL     1      46.572   2.571   6.749  0.00  0.00    +0.000 A 
ATOM      2  C   UNL     1      46.652   1.324   7.360  0.00  0.00    +0.000 A 
ATOM      3  N   UNL     1      46.010   0.996   8.503  0.00  0.00    +0.000 NA
ATOM      4  C   UNL     1      45.233   1.955   9.054  0.00  0.00    +0.000 A 
ATOM      5  C   UNL     1      45.048   3.230   8.521  0.00  0.00    +0.000 A 
ATOM      6  C   UNL     1      45.747   3.533   7.348  0.00  0.00    +0.000 A 
ENDROOT
BRANCH   1   7
ATOM      7  C   UNL     1      47.330   2.858   5.486  0.00  0.00    +0.000 C 
BRANCH   7   8
ATOM      8  N   UNL     1      48.453   1.945   5.324  0.00  0.00    +0.000 NA
ATOM      9  H   UNL     1      49.186   2.407   4.788  0.00  0.00    +0.000 HD
ATOM     10  H   UNL     1      48.154   1.145   4.769  0.00  0.00    +0.000 HD
ENDBRANCH   7   8
ENDBRANCH   1   7
BRANCH   5  11
ATOM     11  C   UNL     1      44.218   4.232   9.284  0.00  0.00    +0.000 C 
BRANCH  11  12
ATOM     12  N   UNL     1      44.969   5.411   9.745  0.00  0.00    +0.000 NA
ATOM     13  H   UNL     1      44.299   6.165   9.895  0.00  0.00    +0.000 HD
BRANCH  12  14
ATOM     14  C   UNL     1      45.679   5.158  11.019  0.00  0.00    +0.000 C 
ATOM     15  C   UNL     1      44.737   4.449  12.012  0.00  0.00    +0.000 C 
ATOM     16  C   UNL     1      43.718   5.399  12.639  0.00  0.00    +0.000 C 
ATOM     17  N   UNL     1      44.362   6.543  13.291  0.00  0.00    +0.000 NA
ATOM     18  C   UNL     1      45.166   7.292  12.323  0.00  0.00    +0.000 C 
ATOM     19  C   UNL     1      46.250   6.415  11.699  0.00  0.00    +0.000 C 
ATOM     20  H   UNL     1      44.967   6.206  14.040  0.00  0.00    +0.000 HD
ENDBRANCH  12  14
ENDBRANCH  11  12
ENDBRANCH   5  11
TORSDOF 5
ENDMDL
MODEL 3
REMARK VINA RESULT:    -5.912      1.794      5.885
REMARK INTER + INTRA:          -7.925
REMARK INTER:                  -7.520
REMARK INTRA:                  -0.405
REMARK UNBOUND:                -0.457
REMARK  Name = 
REMARK  5 active torsions:
REMARK  status: ('A' for Active; 'I' for Inactive)
REMARK    1  A    between atoms: N_1  and  C_2
REMARK    2  A    between atoms: C_2  and  C_3
REMARK    3  A    between atoms: C_7  and  C_8
REMARK    4  A    between atoms: C_8  and  N_9
REMARK    5  A    between atoms: N_9  and  C_10
REMARK                            x       y       z     vdW  Elec       q    Type
REMARK                         _______ _______ _______ _____ _____    ______ ____
ROOT
ATOM      1  C   UNL     1      46.817   5.753  13.105  0.00  0.00    +0.000 A 
ATOM      2  C   UNL     1      46.238   4.766  13.895  0.00  0.00    +0.000 A 
ATOM      3  N   UNL     1      45.269   3.925  13.471  0.00  0.00    +0.000 NA
ATOM      4  C   UNL     1      44.870   4.064  12.188  0.00  0.00    +0.000 A 
ATOM      5  C   UNL     1      45.395   4.993  11.290  0.00  0.00    +0.000 A 
ATOM      6  C   UNL     1      46.382   5.856  11.777  0.00  0.00    +0.000 A 
ENDROOT
BRANCH   1   7
ATOM      7  C   UNL     1      47.879   6.656  13.660  0.00  0.00    +0.000 C 
BRANCH   7   8
ATOM      8  N   UNL     1      49.129   6.517  12.925  0.00  0.00    +0.000 NA
ATOM      9  H   UNL     1      49.844   7.091  13.369  0.00  0.00    +0.000 HD
ATOM     10  H   UNL     1      49.006   6.889  11.985  0.00  0.00    +0.000 HD
ENDBRANCH   7   8
ENDBRANCH   1   7
BRANCH   5  11
ATOM     11  C   UNL     1      44.800   5.097   9.907  0.00  0.00    +0.000 C 
BRANCH  11  12
ATOM     12  N   UNL     1      45.762   4.870   8.818  0.00  0.00    +0.000 NA
ATOM     13  H   UNL     1      46.586   4.422   9.220  0.00  0.00    +0.000 HD
BRANCH  12  14
ATOM     14  C   UNL     1      45.217   3.984   7.765  0.00  0.00    +0.000 C 
ATOM     15  C   UNL     1      44.553   2.752   8.410  0.00  0.00    +0.000 C 
ATOM     16  C   UNL     1      45.570   1.724   8.906  0.00  0.00    +0.000 C 
ATOM     17  N   UNL     1      46.484   1.299   7.841  0.00  0.00    +0.000 NA
ATOM     18  C   UNL     1      47.207   2.454   7.303  0.00  0.00    +0.000 C 
ATOM     19  C   UNL     1      46.249   3.498   6.732  0.00  0.00    +0.000 C 
ATOM     20  H   UNL     1      45.947   0.862   7.092  0.00  0.00    +0.000 HD
ENDBRANCH  12  14
ENDBRANCH  11  12
ENDBRANCH   5  11
TORSDOF 5
ENDMDL
MODEL 4
REMARK VINA RESULT:    -5.830      1.831      5.927
REMARK INTER + INTRA:          -7.821
REMARK INTER:                  -7.343
REMARK INTRA:                  -0.478
REMARK UNBOUND:                -0.457
REMARK  Name = 
REMARK  5 active torsions:
REMARK  status: ('A' for Active; 'I' for Inactive)
REMARK    1  A    between atoms: N_1  and  C_2
REMARK    2  A    between atoms: C_2  and  C_3
REMARK    3  A    between atoms: C_7  and  C_8
REMARK    4  A    between atoms: C_8  and  N_9
REMARK    5  A    between atoms: N_9  and  C_10
REMARK                            x       y       z     vdW  Elec       q    Type
REMARK                         _______ _______ _______ _____ _____    ______ ____
ROOT
ATOM      1  C   UNL     1      46.704   6.852  12.832  0.00  0.00    +0.000 A 
ATOM      2  C   UNL     1      47.608   6.321  13.745  0.00  0.00    +0.000 A 
ATOM      3  N   UNL     1      47.583   5.044  14.185  0.00  0.00    +0.000 NA
ATOM      4  C   UNL     1      46.617   4.250  13.673  0.00  0.00    +0.000 A 
ATOM      5  C   UNL     1      45.673   4.656  12.730  0.00  0.00    +0.000 A 
ATOM      6  C   UNL     1      45.724   5.991  12.318  0.00  0.00    +0.000 A 
ENDROOT
BRANCH   1   7
ATOM      7  C   UNL     1      46.794   8.288  12.407  0.00  0.00    +0.000 C 
BRANCH   7   8
ATOM      8  N   UNL     1      45.873   9.123  13.164  0.00  0.00    +0.000 NA
ATOM      9  H   UNL     1      44.961   9.115  12.709  0.00  0.00    +0.000 HD
ATOM     10  H   UNL     1      46.198  10.088  13.136  0.00  0.00    +0.000 HD
ENDBRANCH   7   8
ENDBRANCH   1   7
BRANCH   5  11
ATOM     11  C   UNL     1      44.596   3.688  12.304  0.00  0.00    +0.000 C 
BRANCH  11  12
ATOM     12  N   UNL     1      45.021   2.728  11.274  0.00  0.00    +0.000 NA
ATOM     13  H   UNL     1      44.902   1.790  11.657  0.00  0.00    +0.000 HD
BRANCH  12  14
ATOM     14  C   UNL     1      44.209   2.834  10.041  0.00  0.00    +0.000 C 
ATOM     15  C   UNL     1      44.694   1.803   9.004  0.00  0.00    +0.000 C 
ATOM     16  C   UNL     1      45.994   2.223   8.317  0.00  0.00    +0.000 C 
ATOM     17  N   UNL     1      45.883   3.545   7.694  0.00  0.00    +0.000 NA
ATOM     18  C   UNL     1      45.537   4.552   8.700  0.00  0.00    +0.000 C 
ATOM     19  C   UNL     1      44.212   4.226   9.385  0.00  0.00    +0.000 C 
ATOM     20  H   UNL     1      45.155   3.520   6.981  0.00  0.00    +0.000 HD
ENDBRANCH  12  14
ENDBRANCH  11  12
ENDBRANCH   5  11
TORSDOF 5
ENDMDL
MODEL 5
REMARK VINA RESULT:    -5.800      1.698      2.825
REMARK INTER + INTRA:          -7.783
REMARK INTER:                  -7.313
REMARK INTRA:                  -0.470
REMARK UNBOUND:                -0.457
REMARK  Name = 
REMARK  5 active torsions:
REMARK  status: ('A' for Active; 'I' for Inactive)
REMARK    1  A    between atoms: N_1  and  C_2
REMARK    2  A    between atoms: C_2  and  C_3
REMARK    3  A    between atoms: C_7  and  C_8
REMARK    4  A    between atoms: C_8  and  N_9
REMARK    5  A    between atoms: N_9  and  C_10
REMARK                            x       y       z     vdW  Elec       q    Type
REMARK                         _______ _______ _______ _____ _____    ______ ____
ROOT
ATOM      1  C   UNL     1      45.468   3.062   8.173  0.00  0.00    +0.000 A 
ATOM      2  C   UNL     1      45.051   1.887   8.787  0.00  0.00    +0.000 A 
ATOM      3  N   UNL     1      44.324   1.840   9.925  0.00  0.00    +0.000 NA
ATOM      4  C   UNL     1      43.980   3.028  10.468  0.00  0.00    +0.000 A 
ATOM      5  C   UNL     1      44.310   4.272   9.931  0.00  0.00    +0.000 A 
ATOM      6  C   UNL     1      45.079   4.273   8.763  0.00  0.00    +0.000 A 
ENDROOT
BRANCH   1   7
ATOM      7  C   UNL     1      46.286   3.025   6.916  0.00  0.00    +0.000 C 
BRANCH   7   8
ATOM      8  N   UNL     1      46.966   4.292   6.689  0.00  0.00    +0.000 NA
ATOM      9  H   UNL     1      46.368   5.054   7.001  0.00  0.00    +0.000 HD
ATOM     10  H   UNL     1      47.099   4.424   5.688  0.00  0.00    +0.000 HD
ENDBRANCH   7   8
ENDBRANCH   1   7
BRANCH   5  11
ATOM     11  C   UNL     1      43.932   5.523  10.686  0.00  0.00    +0.000 C 
BRANCH  11  12
ATOM     12  N   UNL     1      45.068   6.400  11.007  0.00  0.00    +0.000 NA
ATOM     13  H   UNL     1      44.905   7.298  10.550  0.00  0.00    +0.000 HD
BRANCH  12  14
ATOM     14  C   UNL     1      45.199   6.636  12.462  0.00  0.00    +0.000 C 
ATOM     15  C   UNL     1      46.498   7.412  12.753  0.00  0.00    +0.000 C 
ATOM     16  C   UNL     1      47.743   6.530  12.671  0.00  0.00    +0.000 C 
ATOM     17  N   UNL     1      47.649   5.364  13.555  0.00  0.00    +0.000 NA
ATOM     18  C   UNL     1      46.478   4.556  13.205  0.00  0.00    +0.000 C 
ATOM     19  C   UNL     1      45.187   5.363  13.326  0.00  0.00    +0.000 C 
ATOM     20  H   UNL     1      47.562   5.680  14.520  0.00  0.00    +0.000 HD
ENDBRANCH  12  14
ENDBRANCH  11  12
ENDBRANCH   5  11
TORSDOF 5
ENDMDL
MODEL 6
REMARK VINA RESULT:    -5.734      1.719      5.806
REMARK INTER + INTRA:          -7.700
REMARK INTER:                  -7.266
REMARK INTRA:                  -0.434
REMARK UNBOUND:                -0.457
REMARK  Name = 
REMARK  5 active torsions:
REMARK  status: ('A' for Active; 'I' for Inactive)
REMARK    1  A    between atoms: N_1  and  C_2
REMARK    2  A    between atoms: C_2  and  C_3
REMARK    3  A    between atoms: C_7  and  C_8
REMARK    4  A    between atoms: C_8  and  N_9
REMARK    5  A    between atoms: N_9  and  C_10
REMARK                            x       y       z     vdW  Elec       q    Type
REMARK                         _______ _______ _______ _____ _____    ______ ____
ROOT
ATOM      1  C   UNL     1      46.241   4.817  13.320  0.00  0.00    +0.000 A 
ATOM      2  C   UNL     1      46.009   6.102  12.843  0.00  0.00    +0.000 A 
ATOM      3  N   UNL     1      45.330   6.380  11.709  0.00  0.00    +0.000 NA
ATOM      4  C   UNL     1      44.841   5.322  11.025  0.00  0.00    +0.000 A 
ATOM      5  C   UNL     1      44.980   3.991  11.417  0.00  0.00    +0.000 A 
ATOM      6  C   UNL     1      45.707   3.749  12.586  0.00  0.00    +0.000 A 
ENDROOT
BRANCH   1   7
ATOM      7  C   UNL     1      47.020   4.595  14.584  0.00  0.00    +0.000 C 
BRANCH   7   8
ATOM      8  N   UNL     1      47.502   3.224  14.674  0.00  0.00    +0.000 NA
ATOM      9  H   UNL     1      47.171   2.698  13.867  0.00  0.00    +0.000 HD
ATOM     10  H   UNL     1      47.092   2.780  15.494  0.00  0.00    +0.000 HD
ENDBRANCH   7   8
ENDBRANCH   1   7
BRANCH   5  11
ATOM     11  C   UNL     1      44.455   2.901  10.516  0.00  0.00    +0.000 C 
BRANCH  11  12
ATOM     12  N   UNL     1      45.500   2.171   9.780  0.00  0.00    +0.000 NA
ATOM     13  H   UNL     1      45.543   1.225  10.160  0.00  0.00    +0.000 HD
BRANCH  12  14
ATOM     14  C   UNL     1      45.204   2.077   8.333  0.00  0.00    +0.000 C 
ATOM     15  C   UNL     1      46.245   1.176   7.642  0.00  0.00    +0.000 C 
ATOM     16  C   UNL     1      47.588   1.876   7.436  0.00  0.00    +0.000 C 
ATOM     17  N   UNL     1      47.444   3.132   6.694  0.00  0.00    +0.000 NA
ATOM     18  C   UNL     1      46.545   4.042   7.408  0.00  0.00    +0.000 C 
ATOM     19  C   UNL     1      45.160   3.427   7.595  0.00  0.00    +0.000 C 
ATOM     20  H   UNL     1      47.057   2.935   5.772  0.00  0.00    +0.000 HD
ENDBRANCH  12  14
ENDBRANCH  11  12
ENDBRANCH   5  11
TORSDOF 5
ENDMDL
MODEL 7
REMARK VINA RESULT:    -5.553      3.890      6.827
REMARK INTER + INTRA:          -7.472
REMARK INTER:                  -7.071
REMARK INTRA:                  -0.400
REMARK UNBOUND:                -0.457
REMARK  Name = 
REMARK  5 active torsions:
REMARK  status: ('A' for Active; 'I' for Inactive)
REMARK    1  A    between atoms: N_1  and  C_2
REMARK    2  A    between atoms: C_2  and  C_3
REMARK    3  A    between atoms: C_7  and  C_8
REMARK    4  A    between atoms: C_8  and  N_9
REMARK    5  A    between atoms: N_9  and  C_10
REMARK                            x       y       z     vdW  Elec       q    Type
REMARK                         _______ _______ _______ _____ _____    ______ ____
ROOT
ATOM      1  C   UNL     1      47.795   5.006  16.529  0.00  0.00    +0.000 A 
ATOM      2  C   UNL     1      48.525   6.062  15.997  0.00  0.00    +0.000 A 
ATOM      3  N   UNL     1      48.572   6.368  14.682  0.00  0.00    +0.000 NA
ATOM      4  C   UNL     1      47.837   5.590  13.857  0.00  0.00    +0.000 A 
ATOM      5  C   UNL     1      47.041   4.523  14.272  0.00  0.00    +0.000 A 
ATOM      6  C   UNL     1      47.038   4.231  15.639  0.00  0.00    +0.000 A 
ENDROOT
BRANCH   1   7
ATOM      7  C   UNL     1      47.809   4.726  18.003  0.00  0.00    +0.000 C 
BRANCH   7   8
ATOM      8  N   UNL     1      46.614   5.246  18.652  0.00  0.00    +0.000 NA
ATOM      9  H   UNL     1      46.517   6.236  18.433  0.00  0.00    +0.000 HD
ATOM     10  H   UNL     1      46.730   5.186  19.662  0.00  0.00    +0.000 HD
ENDBRANCH   7   8
ENDBRANCH   1   7
BRANCH   5  11
ATOM     11  C   UNL     1      46.336   3.685  13.234  0.00  0.00    +0.000 C 
BRANCH  11  12
ATOM     12  N   UNL     1      44.918   4.026  13.044  0.00  0.00    +0.000 NA
ATOM     13  H   UNL     1      44.738   4.894  13.549  0.00  0.00    +0.000 HD
BRANCH  12  14
ATOM     14  C   UNL     1      44.580   4.238  11.619  0.00  0.00    +0.000 C 
ATOM     15  C   UNL     1      45.231   5.540  11.114  0.00  0.00    +0.000 C 
ATOM     16  C   UNL     1      44.493   6.792  11.590  0.00  0.00    +0.000 C 
ATOM     17  N   UNL     1      43.075   6.766  11.222  0.00  0.00    +0.000 NA
ATOM     18  C   UNL     1      42.422   5.589  11.800  0.00  0.00    +0.000 C 
ATOM     19  C   UNL     1      43.072   4.295  11.314  0.00  0.00    +0.000 C 
ATOM     20  H   UNL     1      42.992   6.731  10.206  0.00  0.00    +0.000 HD
ENDBRANCH  12  14
ENDBRANCH  11  12
ENDBRANCH   5  11
TORSDOF 5
ENDMDL
MODEL 8
REMARK VINA RESULT:    -5.170      3.891      5.949
REMARK INTER + INTRA:          -6.988
REMARK INTER:                  -6.712
REMARK INTRA:                  -0.275
REMARK UNBOUND:                -0.457
REMARK  Name = 
REMARK  5 active torsions:
REMARK  status: ('A' for Active; 'I' for Inactive)
REMARK    1  A    between atoms: N_1  and  C_2
REMARK    2  A    between atoms: C_2  and  C_3
REMARK    3  A    between atoms: C_7  and  C_8
REMARK    4  A    between atoms: C_8  and  N_9
REMARK    5  A    between atoms: N_9  and  C_10
REMARK                            x       y       z     vdW  Elec       q    Type
REMARK                         _______ _______ _______ _____ _____    ______ ____
ROOT
ATOM      1  C   UNL     1      44.964   4.620  11.418  0.00  0.00    +0.000 A 
ATOM      2  C   UNL     1      45.528   5.849  11.094  0.00  0.00    +0.000 A 
ATOM      3  N   UNL     1      46.500   6.452  11.813  0.00  0.00    +0.000 NA
ATOM      4  C   UNL     1      46.946   5.787  12.901  0.00  0.00    +0.000 A 
ATOM      5  C   UNL     1      46.483   4.536  13.311  0.00  0.00    +0.000 A 
ATOM      6  C   UNL     1      45.463   3.959  12.548  0.00  0.00    +0.000 A 
ENDROOT
BRANCH   1   7
ATOM      7  C   UNL     1      43.877   4.026  10.572  0.00  0.00    +0.000 C 
BRANCH   7   8
ATOM      8  N   UNL     1      42.918   3.289  11.383  0.00  0.00    +0.000 NA
ATOM      9  H   UNL     1      42.473   2.575  10.809  0.00  0.00    +0.000 HD
ATOM     10  H   UNL     1      42.177   3.922  11.679  0.00  0.00    +0.000 HD
ENDBRANCH   7   8
ENDBRANCH   1   7
BRANCH   5  11
ATOM     11  C   UNL     1      47.009   3.942  14.594  0.00  0.00    +0.000 C 
BRANCH  11  12
ATOM     12  N   UNL     1      47.727   4.898  15.452  0.00  0.00    +0.000 NA
ATOM     13  H   UNL     1      47.346   5.826  15.268  0.00  0.00    +0.000 HD
BRANCH  12  14
ATOM     14  C   UNL     1      47.550   4.600  16.891  0.00  0.00    +0.000 C 
ATOM     15  C   UNL     1      48.577   5.394  17.720  0.00  0.00    +0.000 C 
ATOM     16  C   UNL     1      49.981   4.794  17.654  0.00  0.00    +0.000 C 
ATOM     17  N   UNL     1      49.995   3.384  18.057  0.00  0.00    +0.000 NA
ATOM     18  C   UNL     1      49.109   2.601  17.194  0.00  0.00    +0.000 C 
ATOM     19  C   UNL     1      47.670   3.110  17.261  0.00  0.00    +0.000 C 
ATOM     20  H   UNL     1      49.676   3.308  19.023  0.00  0.00    +0.000 HD
ENDBRANCH  12  14
ENDBRANCH  11  12
ENDBRANCH   5  11
TORSDOF 5
ENDMDL
MODEL 9
REMARK VINA RESULT:    -5.154      3.916      6.576
REMARK INTER + INTRA:          -6.967
REMARK INTER:                  -6.500
REMARK INTRA:                  -0.466
REMARK UNBOUND:                -0.457
REMARK  Name = 
REMARK  5 active torsions:
REMARK  status: ('A' for Active; 'I' for Inactive)
REMARK    1  A    between atoms: N_1  and  C_2
REMARK    2  A    between atoms: C_2  and  C_3
REMARK    3  A    between atoms: C_7  and  C_8
REMARK    4  A    between atoms: C_8  and  N_9
REMARK    5  A    between atoms: N_9  and  C_10
REMARK                            x       y       z     vdW  Elec       q    Type
REMARK                         _______ _______ _______ _____ _____    ______ ____
ROOT
ATOM      1  C   UNL     1      48.205   6.648  14.888  0.00  0.00    +0.000 A 
ATOM      2  C   UNL     1      48.518   6.030  16.093  0.00  0.00    +0.000 A 
ATOM      3  N   UNL     1      48.185   4.759  16.405  0.00  0.00    +0.000 NA
ATOM      4  C   UNL     1      47.520   4.061  15.458  0.00  0.00    +0.000 A 
ATOM      5  C   UNL     1      47.176   4.558  14.202  0.00  0.00    +0.000 A 
ATOM      6  C   UNL     1      47.524   5.885  13.929  0.00  0.00    +0.000 A 
ENDROOT
BRANCH   1   7
ATOM      7  C   UNL     1      48.601   8.071  14.627  0.00  0.00    +0.000 C 
BRANCH   7   8
ATOM      8  N   UNL     1      47.694   9.002  15.283  0.00  0.00    +0.000 NA
ATOM      9  H   UNL     1      46.992   8.477  15.801  0.00  0.00    +0.000 HD
ATOM     10  H   UNL     1      47.190   9.532  14.574  0.00  0.00    +0.000 HD
ENDBRANCH   7   8
ENDBRANCH   1   7
BRANCH   5  11
ATOM     11  C   UNL     1      46.359   3.698  13.269  0.00  0.00    +0.000 C 
BRANCH  11  12
ATOM     12  N   UNL     1      44.962   4.131  13.117  0.00  0.00    +0.000 NA
ATOM     13  H   UNL     1      44.872   5.049  13.554  0.00  0.00    +0.000 HD
BRANCH  12  14
ATOM     14  C   UNL     1      44.566   4.253  11.696  0.00  0.00    +0.000 C 
ATOM     15  C   UNL     1      45.196   5.518  11.082  0.00  0.00    +0.000 C 
ATOM     16  C   UNL     1      44.480   6.800  11.507  0.00  0.00    +0.000 C 
ATOM     17  N   UNL     1      43.047   6.756  11.200  0.00  0.00    +0.000 NA
ATOM     18  C   UNL     1      42.418   5.620  11.878  0.00  0.00    +0.000 C 
ATOM     19  C   UNL     1      43.047   4.295  11.451  0.00  0.00    +0.000 C 
ATOM     20  H   UNL     1      42.922   6.655  10.193  0.00  0.00    +0.000 HD
ENDBRANCH  12  14
ENDBRANCH  11  12
ENDBRANCH   5  11
TORSDOF 5
ENDMDL
