MODEL 1
REMARK VINA RESULT:    -9.173      0.000      0.000
REMARK INTER + INTRA:         -13.520
REMARK INTER:                 -12.390
REMARK INTRA:                  -1.130
REMARK UNBOUND:                -1.130
REMARK  Name = 
REMARK  6 active torsions:
REMARK  status: ('A' for Active; 'I' for Inactive)
REMARK    1  A    between atoms: C_2  and  C_4
REMARK    2  A    between atoms: C_7  and  C_8
REMARK    3  A    between atoms: C_8  and  C_9
REMARK    4  A    between atoms: C_12  and  C_13
REMARK    5  A    between atoms: C_13  and  N_14
REMARK    6  A    between atoms: C_15  and  C_17
REMARK                            x       y       z     vdW  Elec       q    Type
REMARK                         _______ _______ _______ _____ _____    ______ ____
ROOT
ATOM      1  C   UNL     1      44.720   5.687  11.195  0.00  0.00    +0.000 A 
ATOM      2  C   UNL     1      44.376   7.031  11.399  0.00  0.00    +0.000 A 
ATOM      3  C   UNL     1      45.173   7.858  12.199  0.00  0.00    +0.000 A 
ATOM      4  C   UNL     1      46.334   7.358  12.802  0.00  0.00    +0.000 A 
ATOM      5  C   UNL     1      46.637   5.998  12.657  0.00  0.00    +0.000 A 
ATOM      6  C   UNL     1      45.844   5.173  11.853  0.00  0.00    +0.000 A 
ENDROOT
BRANCH   1   7
ATOM      7  C   UNL     1      43.925   4.825  10.240  0.00  0.00    +0.000 C 
BRANCH   7  11
ATOM      8  C   UNL     1      46.405   2.319   7.723  0.00  0.00    +0.000 A 
ATOM      9  C   UNL     1      45.584   1.742   8.697  0.00  0.00    +0.000 A 
ATOM     10  C   UNL     1      44.780   2.552   9.508  0.00  0.00    +0.000 A 
ATOM     11  C   UNL     1      44.788   3.946   9.357  0.00  0.00    +0.000 A 
ATOM     12  C   UNL     1      45.633   4.517   8.395  0.00  0.00    +0.000 A 
ATOM     13  C   UNL     1      46.440   3.710   7.585  0.00  0.00    +0.000 A 
BRANCH   8  15
ATOM     14  N   UNL     1      48.365   2.104   6.292  0.00  0.00    +0.000 N 
ATOM     15  C   UNL     1      47.268   1.494   6.836  0.00  0.00    +0.000 C 
ATOM     16  O   UNL     1      47.040   0.309   6.631  0.00  0.00    +0.000 OA
ATOM     17  H   UNL     1      49.002   1.505   5.782  0.00  0.00    +0.000 HD
ATOM     18  H   UNL     1      48.723   2.981   6.641  0.00  0.00    +0.000 HD
ENDBRANCH   8  15
ENDBRANCH   7  11
ENDBRANCH   1   7
BRANCH   4  19
ATOM     19  C   UNL     1      47.252   8.259  13.588  0.00  0.00    +0.000 C 
BRANCH  19  20
ATOM     20  N   UNL     1      47.707   7.635  14.802  0.00  0.00    +0.000 N 
ATOM     21  C   UNL     1      48.946   7.049  14.872  0.00  0.00    +0.000 C 
ATOM     22  O   UNL     1      49.733   7.067  13.931  0.00  0.00    +0.000 OA
ATOM     23  H   UNL     1      47.000   7.397  15.489  0.00  0.00    +0.000 HD
BRANCH  21  24
ATOM     24  C   UNL     1      49.309   6.445  16.162  0.00  0.00    +0.000 A 
ATOM     25  C   UNL     1      50.322   7.009  16.925  0.00  0.00    +0.000 A 
ATOM     26  S   UNL     1      50.584   6.214  18.410  0.00  0.00    +0.000 S 
ATOM     27  C   UNL     1      49.390   5.052  18.062  0.00  0.00    +0.000 A 
ATOM     28  N   UNL     1      49.125   4.039  18.928  0.00  0.00    +0.000 NA
ATOM     29  C   UNL     1      48.219   3.214  18.524  0.00  0.00    +0.000 A 
ATOM     30  N   UNL     1      47.544   3.314  17.334  0.00  0.00    +0.000 N 
ATOM     31  C   UNL     1      47.757   4.339  16.440  0.00  0.00    +0.000 A 
ATOM     32  O   UNL     1      47.104   4.425  15.406  0.00  0.00    +0.000 OA
ATOM     33  C   UNL     1      48.782   5.285  16.841  0.00  0.00    +0.000 A 
ATOM     34  H   UNL     1      46.837   2.643  17.080  0.00  0.00    +0.000 HD
ENDBRANCH  21  24
ENDBRANCH  19  20
ENDBRANCH   4  19
TORSDOF 6
ENDMDL
MODEL 2
REMARK VINA RESULT:    -8.189      1.560      1.951
REMARK INTER + INTRA:         -12.191
REMARK INTER:                 -10.948
REMARK INTRA:                  -1.244
REMARK UNBOUND:                -1.130
REMARK  Name = 
REMARK  6 active torsions:
REMARK  status: ('A' for Active; 'I' for Inactive)
REMARK    1  A    between atoms: C_2  and  C_4
REMARK    2  A    between atoms: C_7  and  C_8
REMARK    3  A    between atoms: C_8  and  C_9
REMARK    4  A    between atoms: C_12  and  C_13
REMARK    5  A    between atoms: C_13  and  N_14
REMARK    6  A    between atoms: C_15  and  C_17
REMARK                            x       y       z     vdW  Elec       q    Type
REMARK                         _______ _______ _______ _____ _____    ______ ____
ROOT
ATOM      1  C   UNL     1      45.066   5.787  11.355  0.00  0.00    +0.000 A 
ATOM      2  C   UNL     1      46.285   5.559  12.010  0.00  0.00    +0.000 A 
ATOM      3  C   UNL     1      46.935   6.595  12.690  0.00  0.00    +0.000 A 
ATOM      4  C   UNL     1      46.373   7.877  12.736  0.00  0.00    +0.000 A 
ATOM      5  C   UNL     1      45.193   8.122  12.021  0.00  0.00    +0.000 A 
ATOM      6  C   UNL     1      44.541   7.085  11.346  0.00  0.00    +0.000 A 
ENDROOT
BRANCH   1   7
ATOM      7  C   UNL     1      44.307   4.644  10.719  0.00  0.00    +0.000 C 
BRANCH   7  11
ATOM      8  C   UNL     1      46.483   2.718   7.505  0.00  0.00    +0.000 A 
ATOM      9  C   UNL     1      45.824   1.946   8.469  0.00  0.00    +0.000 A 
ATOM     10  C   UNL     1      45.119   2.569   9.506  0.00  0.00    +0.000 A 
ATOM     11  C   UNL     1      45.063   3.969   9.593  0.00  0.00    +0.000 A 
ATOM     12  C   UNL     1      45.748   4.733   8.636  0.00  0.00    +0.000 A 
ATOM     13  C   UNL     1      46.456   4.112   7.602  0.00  0.00    +0.000 A 
BRANCH   8  15
ATOM     14  N   UNL     1      47.427   2.857   5.264  0.00  0.00    +0.000 N 
ATOM     15  C   UNL     1      47.237   2.095   6.385  0.00  0.00    +0.000 C 
ATOM     16  O   UNL     1      47.707   0.968   6.469  0.00  0.00    +0.000 OA
ATOM     17  H   UNL     1      48.033   2.464   4.555  0.00  0.00    +0.000 HD
ATOM     18  H   UNL     1      47.288   3.856   5.261  0.00  0.00    +0.000 HD
ENDBRANCH   8  15
ENDBRANCH   7  11
ENDBRANCH   1   7
BRANCH   4  19
ATOM     19  C   UNL     1      47.012   8.978  13.542  0.00  0.00    +0.000 C 
BRANCH  19  20
ATOM     20  N   UNL     1      47.343   8.546  14.875  0.00  0.00    +0.000 N 
ATOM     21  C   UNL     1      48.326   9.176  15.596  0.00  0.00    +0.000 C 
ATOM     22  O   UNL     1      48.932  10.151  15.163  0.00  0.00    +0.000 OA
ATOM     23  H   UNL     1      47.038   7.618  15.145  0.00  0.00    +0.000 HD
BRANCH  21  24
ATOM     24  C   UNL     1      48.577   8.655  16.947  0.00  0.00    +0.000 A 
ATOM     25  C   UNL     1      48.501   9.508  18.039  0.00  0.00    +0.000 A 
ATOM     26  S   UNL     1      48.775   8.735  19.533  0.00  0.00    +0.000 S 
ATOM     27  C   UNL     1      49.061   7.240  18.769  0.00  0.00    +0.000 A 
ATOM     28  N   UNL     1      49.389   6.136  19.492  0.00  0.00    +0.000 NA
ATOM     29  C   UNL     1      49.607   5.081  18.782  0.00  0.00    +0.000 A 
ATOM     30  N   UNL     1      49.520   5.023  17.416  0.00  0.00    +0.000 N 
ATOM     31  C   UNL     1      49.161   6.108  16.646  0.00  0.00    +0.000 A 
ATOM     32  O   UNL     1      49.048   6.011  15.428  0.00  0.00    +0.000 OA
ATOM     33  C   UNL     1      48.923   7.326  17.395  0.00  0.00    +0.000 A 
ATOM     34  H   UNL     1      49.692   4.164  16.919  0.00  0.00    +0.000 HD
ENDBRANCH  21  24
ENDBRANCH  19  20
ENDBRANCH   4  19
TORSDOF 6
ENDMDL
MODEL 3
REMARK VINA RESULT:    -7.755      2.981      4.278
REMARK INTER + INTRA:         -11.605
REMARK INTER:                 -10.161
REMARK INTRA:                  -1.445
REMARK UNBOUND:                -1.130
REMARK  Name = 
REMARK  6 active torsions:
REMARK  status: ('A' for Active; 'I' for Inactive)
REMARK    1  A    between atoms: C_2  and  C_4
REMARK    2  A    between atoms: C_7  and  C_8
REMARK    3  A    between atoms: C_8  and  C_9
REMARK    4  A    between atoms: C_12  and  C_13
REMARK    5  A    between atoms: C_13  and  N_14
REMARK    6  A    between atoms: C_15  and  C_17
REMARK                            x       y       z     vdW  Elec       q    Type
REMARK                         _______ _______ _______ _____ _____    ______ ____
ROOT
ATOM      1  C   UNL     1      44.945   5.856  11.217  0.00  0.00    +0.000 A 
ATOM      2  C   UNL     1      45.918   5.387  12.111  0.00  0.00    +0.000 A 
ATOM      3  C   UNL     1      46.600   6.273  12.952  0.00  0.00    +0.000 A 
ATOM      4  C   UNL     1      46.315   7.644  12.921  0.00  0.00    +0.000 A 
ATOM      5  C   UNL     1      45.396   8.120  11.977  0.00  0.00    +0.000 A 
ATOM      6  C   UNL     1      44.710   7.234  11.141  0.00  0.00    +0.000 A 
ENDROOT
BRANCH   1   7
ATOM      7  C   UNL     1      44.126   4.888  10.391  0.00  0.00    +0.000 C 
BRANCH   7  11
ATOM      8  C   UNL     1      46.518   2.497   7.684  0.00  0.00    +0.000 A 
ATOM      9  C   UNL     1      45.722   1.876   8.653  0.00  0.00    +0.000 A 
ATOM     10  C   UNL     1      44.947   2.649   9.526  0.00  0.00    +0.000 A 
ATOM     11  C   UNL     1      44.958   4.050   9.442  0.00  0.00    +0.000 A 
ATOM     12  C   UNL     1      45.778   4.663   8.483  0.00  0.00    +0.000 A 
ATOM     13  C   UNL     1      46.556   3.892   7.612  0.00  0.00    +0.000 A 
BRANCH   8  15
ATOM     14  N   UNL     1      48.406   2.357   6.151  0.00  0.00    +0.000 N 
ATOM     15  C   UNL     1      47.350   1.711   6.733  0.00  0.00    +0.000 C 
ATOM     16  O   UNL     1      47.133   0.528   6.509  0.00  0.00    +0.000 OA
ATOM     17  H   UNL     1      49.028   1.784   5.594  0.00  0.00    +0.000 HD
ATOM     18  H   UNL     1      48.765   3.231   6.505  0.00  0.00    +0.000 HD
ENDBRANCH   8  15
ENDBRANCH   7  11
ENDBRANCH   1   7
BRANCH   4  19
ATOM     19  C   UNL     1      46.974   8.597  13.885  0.00  0.00    +0.000 C 
BRANCH  19  20
ATOM     20  N   UNL     1      48.367   8.791  13.582  0.00  0.00    +0.000 N 
ATOM     21  C   UNL     1      49.344   8.232  14.368  0.00  0.00    +0.000 C 
ATOM     22  O   UNL     1      49.080   7.514  15.328  0.00  0.00    +0.000 OA
ATOM     23  H   UNL     1      48.600   9.559  12.964  0.00  0.00    +0.000 HD
BRANCH  21  24
ATOM     24  C   UNL     1      50.733   8.492  13.964  0.00  0.00    +0.000 A 
ATOM     25  C   UNL     1      51.644   8.966  14.898  0.00  0.00    +0.000 A 
ATOM     26  S   UNL     1      53.218   9.170  14.277  0.00  0.00    +0.000 S 
ATOM     27  C   UNL     1      52.726   8.684  12.721  0.00  0.00    +0.000 A 
ATOM     28  N   UNL     1      53.605   8.663  11.684  0.00  0.00    +0.000 NA
ATOM     29  C   UNL     1      53.089   8.304  10.556  0.00  0.00    +0.000 A 
ATOM     30  N   UNL     1      51.777   7.955  10.370  0.00  0.00    +0.000 N 
ATOM     31  C   UNL     1      50.859   7.932  11.397  0.00  0.00    +0.000 A 
ATOM     32  O   UNL     1      49.703   7.571  11.206  0.00  0.00    +0.000 OA
ATOM     33  C   UNL     1      51.385   8.346  12.684  0.00  0.00    +0.000 A 
ATOM     34  H   UNL     1      51.437   7.672   9.465  0.00  0.00    +0.000 HD
ENDBRANCH  21  24
ENDBRANCH  19  20
ENDBRANCH   4  19
TORSDOF 6
ENDMDL
MODEL 4
REMARK VINA RESULT:    -7.694      3.726      4.846
REMARK INTER + INTRA:         -11.522
REMARK INTER:                 -10.267
REMARK INTRA:                  -1.255
REMARK UNBOUND:                -1.130
REMARK  Name = 
REMARK  6 active torsions:
REMARK  status: ('A' for Active; 'I' for Inactive)
REMARK    1  A    between atoms: C_2  and  C_4
REMARK    2  A    between atoms: C_7  and  C_8
REMARK    3  A    between atoms: C_8  and  C_9
REMARK    4  A    between atoms: C_12  and  C_13
REMARK    5  A    between atoms: C_13  and  N_14
REMARK    6  A    between atoms: C_15  and  C_17
REMARK                            x       y       z     vdW  Elec       q    Type
REMARK                         _______ _______ _______ _____ _____    ______ ____
ROOT
ATOM      1  C   UNL     1      44.671   5.398  11.450  0.00  0.00    +0.000 A 
ATOM      2  C   UNL     1      44.238   6.728  11.366  0.00  0.00    +0.000 A 
ATOM      3  C   UNL     1      44.941   7.750  12.014  0.00  0.00    +0.000 A 
ATOM      4  C   UNL     1      46.096   7.462  12.751  0.00  0.00    +0.000 A 
ATOM      5  C   UNL     1      46.487   6.124  12.895  0.00  0.00    +0.000 A 
ATOM      6  C   UNL     1      45.788   5.103  12.243  0.00  0.00    +0.000 A 
ENDROOT
BRANCH   1   7
ATOM      7  C   UNL     1      43.981   4.310  10.658  0.00  0.00    +0.000 C 
BRANCH   7  11
ATOM      8  C   UNL     1      46.452   2.651   7.509  0.00  0.00    +0.000 A 
ATOM      9  C   UNL     1      45.829   1.805   8.433  0.00  0.00    +0.000 A 
ATOM     10  C   UNL     1      45.028   2.341   9.448  0.00  0.00    +0.000 A 
ATOM     11  C   UNL     1      44.840   3.728   9.554  0.00  0.00    +0.000 A 
ATOM     12  C   UNL     1      45.489   4.569   8.638  0.00  0.00    +0.000 A 
ATOM     13  C   UNL     1      46.292   4.035   7.625  0.00  0.00    +0.000 A 
BRANCH   8  15
ATOM     14  N   UNL     1      47.448   2.907   5.301  0.00  0.00    +0.000 N 
ATOM     15  C   UNL     1      47.304   2.121   6.411  0.00  0.00    +0.000 C 
ATOM     16  O   UNL     1      47.888   1.050   6.506  0.00  0.00    +0.000 OA
ATOM     17  H   UNL     1      48.116   2.587   4.611  0.00  0.00    +0.000 HD
ATOM     18  H   UNL     1      47.204   3.886   5.298  0.00  0.00    +0.000 HD
ENDBRANCH   8  15
ENDBRANCH   7  11
ENDBRANCH   1   7
BRANCH   4  19
ATOM     19  C   UNL     1      46.915   8.562  13.375  0.00  0.00    +0.000 C 
BRANCH  19  20
ATOM     20  N   UNL     1      48.156   8.771  12.677  0.00  0.00    +0.000 N 
ATOM     21  C   UNL     1      48.722  10.018  12.604  0.00  0.00    +0.000 C 
ATOM     22  O   UNL     1      48.229  10.994  13.161  0.00  0.00    +0.000 OA
ATOM     23  H   UNL     1      48.441   8.052  12.021  0.00  0.00    +0.000 HD
BRANCH  21  24
ATOM     24  C   UNL     1      49.991  10.116  11.870  0.00  0.00    +0.000 A 
ATOM     25  C   UNL     1      50.080  10.940  10.756  0.00  0.00    +0.000 A 
ATOM     26  S   UNL     1      51.632  10.972  10.050  0.00  0.00    +0.000 S 
ATOM     27  C   UNL     1      52.227   9.842  11.176  0.00  0.00    +0.000 A 
ATOM     28  N   UNL     1      53.512   9.401  11.112  0.00  0.00    +0.000 NA
ATOM     29  C   UNL     1      53.819   8.524  12.008  0.00  0.00    +0.000 A 
ATOM     30  N   UNL     1      52.962   8.051  12.967  0.00  0.00    +0.000 N 
ATOM     31  C   UNL     1      51.663   8.491  13.088  0.00  0.00    +0.000 A 
ATOM     32  O   UNL     1      50.936   8.082  13.987  0.00  0.00    +0.000 OA
ATOM     33  C   UNL     1      51.261   9.466  12.092  0.00  0.00    +0.000 A 
ATOM     34  H   UNL     1      53.267   7.373  13.647  0.00  0.00    +0.000 HD
ENDBRANCH  21  24
ENDBRANCH  19  20
ENDBRANCH   4  19
TORSDOF 6
ENDMDL
MODEL 5
REMARK VINA RESULT:    -7.523      2.204      3.905
REMARK INTER + INTRA:         -11.292
REMARK INTER:                  -9.999
REMARK INTRA:                  -1.293
REMARK UNBOUND:                -1.130
REMARK  Name = 
REMARK  6 active torsions:
REMARK  status: ('A' for Active; 'I' for Inactive)
REMARK    1  A    between atoms: C_2  and  C_4
REMARK    2  A    between atoms: C_7  and  C_8
REMARK    3  A    between atoms: C_8  and  C_9
REMARK    4  A    between atoms: C_12  and  C_13
REMARK    5  A    between atoms: C_13  and  N_14
REMARK    6  A    between atoms: C_15  and  C_17
REMARK                            x       y       z     vdW  Elec       q    Type
REMARK                         _______ _______ _______ _____ _____    ______ ____
ROOT
ATOM      1  C   UNL     1      45.316   4.238  11.932  0.00  0.00    +0.000 A 
ATOM      2  C   UNL     1      45.876   3.188  12.673  0.00  0.00    +0.000 A 
ATOM      3  C   UNL     1      46.613   3.447  13.834  0.00  0.00    +0.000 A 
ATOM      4  C   UNL     1      46.796   4.762  14.280  0.00  0.00    +0.000 A 
ATOM      5  C   UNL     1      46.300   5.814  13.500  0.00  0.00    +0.000 A 
ATOM      6  C   UNL     1      45.558   5.555  12.343  0.00  0.00    +0.000 A 
ENDROOT
BRANCH   1   7
ATOM      7  C   UNL     1      44.425   3.953  10.744  0.00  0.00    +0.000 C 
BRANCH   7  11
ATOM      8  C   UNL     1      46.612   2.704   7.219  0.00  0.00    +0.000 A 
ATOM      9  C   UNL     1      46.060   1.748   8.079  0.00  0.00    +0.000 A 
ATOM     10  C   UNL     1      45.351   2.152   9.216  0.00  0.00    +0.000 A 
ATOM     11  C   UNL     1      45.185   3.514   9.508  0.00  0.00    +0.000 A 
ATOM     12  C   UNL     1      45.763   4.464   8.654  0.00  0.00    +0.000 A 
ATOM     13  C   UNL     1      46.475   4.062   7.519  0.00  0.00    +0.000 A 
BRANCH   8  15
ATOM     14  N   UNL     1      47.152   3.063   4.871  0.00  0.00    +0.000 N 
ATOM     15  C   UNL     1      47.365   2.316   5.997  0.00  0.00    +0.000 C 
ATOM     16  O   UNL     1      48.175   1.398   6.000  0.00  0.00    +0.000 OA
ATOM     17  H   UNL     1      47.750   2.860   4.080  0.00  0.00    +0.000 HD
ATOM     18  H   UNL     1      46.705   3.967   4.901  0.00  0.00    +0.000 HD
ENDBRANCH   8  15
ENDBRANCH   7  11
ENDBRANCH   1   7
BRANCH   4  19
ATOM     19  C   UNL     1      47.507   5.051  15.578  0.00  0.00    +0.000 C 
BRANCH  19  20
ATOM     20  N   UNL     1      48.127   6.350  15.573  0.00  0.00    +0.000 N 
ATOM     21  C   UNL     1      49.390   6.529  16.079  0.00  0.00    +0.000 C 
ATOM     22  O   UNL     1      50.060   5.596  16.512  0.00  0.00    +0.000 OA
ATOM     23  H   UNL     1      47.516   7.150  15.454  0.00  0.00    +0.000 HD
BRANCH  21  24
ATOM     24  C   UNL     1      49.928   7.895  16.020  0.00  0.00    +0.000 A 
ATOM     25  C   UNL     1      50.240   8.563  17.196  0.00  0.00    +0.000 A 
ATOM     26  S   UNL     1      50.894  10.118  16.948  0.00  0.00    +0.000 S 
ATOM     27  C   UNL     1      50.730   9.977  15.259  0.00  0.00    +0.000 A 
ATOM     28  N   UNL     1      51.086  10.997  14.434  0.00  0.00    +0.000 NA
ATOM     29  C   UNL     1      50.880  10.765  13.181  0.00  0.00    +0.000 A 
ATOM     30  N   UNL     1      50.359   9.603  12.675  0.00  0.00    +0.000 N 
ATOM     31  C   UNL     1      50.014   8.533  13.469  0.00  0.00    +0.000 A 
ATOM     32  O   UNL     1      49.594   7.489  12.980  0.00  0.00    +0.000 OA
ATOM     33  C   UNL     1      50.209   8.750  14.890  0.00  0.00    +0.000 A 
ATOM     34  H   UNL     1      50.233   9.479  11.683  0.00  0.00    +0.000 HD
ENDBRANCH  21  24
ENDBRANCH  19  20
ENDBRANCH   4  19
TORSDOF 6
ENDMDL
MODEL 6
REMARK VINA RESULT:    -7.171      2.579      3.657
REMARK INTER + INTRA:         -10.815
REMARK INTER:                  -9.851
REMARK INTRA:                  -0.964
REMARK UNBOUND:                -1.130
REMARK  Name = 
REMARK  6 active torsions:
REMARK  status: ('A' for Active; 'I' for Inactive)
REMARK    1  A    between atoms: C_2  and  C_4
REMARK    2  A    between atoms: C_7  and  C_8
REMARK    3  A    between atoms: C_8  and  C_9
REMARK    4  A    between atoms: C_12  and  C_13
REMARK    5  A    between atoms: C_13  and  N_14
REMARK    6  A    between atoms: C_15  and  C_17
REMARK                            x       y       z     vdW  Elec       q    Type
REMARK                         _______ _______ _______ _____ _____    ______ ____
ROOT
ATOM      1  C   UNL     1      45.306   4.280  11.898  0.00  0.00    +0.000 A 
ATOM      2  C   UNL     1      45.889   3.211  12.593  0.00  0.00    +0.000 A 
ATOM      3  C   UNL     1      46.620   3.436  13.765  0.00  0.00    +0.000 A 
ATOM      4  C   UNL     1      46.773   4.734  14.269  0.00  0.00    +0.000 A 
ATOM      5  C   UNL     1      46.252   5.807  13.535  0.00  0.00    +0.000 A 
ATOM      6  C   UNL     1      45.517   5.582  12.368  0.00  0.00    +0.000 A 
ENDROOT
BRANCH   1   7
ATOM      7  C   UNL     1      44.421   4.028  10.698  0.00  0.00    +0.000 C 
BRANCH   7  11
ATOM      8  C   UNL     1      46.613   2.731   7.193  0.00  0.00    +0.000 A 
ATOM      9  C   UNL     1      46.066   1.787   8.069  0.00  0.00    +0.000 A 
ATOM     10  C   UNL     1      45.355   2.206   9.200  0.00  0.00    +0.000 A 
ATOM     11  C   UNL     1      45.183   3.572   9.470  0.00  0.00    +0.000 A 
ATOM     12  C   UNL     1      45.756   4.511   8.600  0.00  0.00    +0.000 A 
ATOM     13  C   UNL     1      46.469   4.094   7.471  0.00  0.00    +0.000 A 
BRANCH   8  15
ATOM     14  N   UNL     1      47.176   3.075   4.848  0.00  0.00    +0.000 N 
ATOM     15  C   UNL     1      47.369   2.327   5.978  0.00  0.00    +0.000 C 
ATOM     16  O   UNL     1      48.163   1.396   5.989  0.00  0.00    +0.000 OA
ATOM     17  H   UNL     1      47.775   2.859   4.062  0.00  0.00    +0.000 HD
ATOM     18  H   UNL     1      46.744   3.986   4.872  0.00  0.00    +0.000 HD
ENDBRANCH   8  15
ENDBRANCH   7  11
ENDBRANCH   1   7
BRANCH   4  19
ATOM     19  C   UNL     1      47.477   4.981  15.579  0.00  0.00    +0.000 C 
BRANCH  19  20
ATOM     20  N   UNL     1      48.102   6.277  15.617  0.00  0.00    +0.000 N 
ATOM     21  C   UNL     1      49.368   6.434  16.121  0.00  0.00    +0.000 C 
ATOM     22  O   UNL     1      50.037   5.484  16.518  0.00  0.00    +0.000 OA
ATOM     23  H   UNL     1      47.493   7.083  15.529  0.00  0.00    +0.000 HD
BRANCH  21  24
ATOM     24  C   UNL     1      49.910   7.800  16.108  0.00  0.00    +0.000 A 
ATOM     25  C   UNL     1      50.219   8.406  14.898  0.00  0.00    +0.000 A 
ATOM     26  S   UNL     1      50.793  10.003  15.059  0.00  0.00    +0.000 S 
ATOM     27  C   UNL     1      50.701   9.923  16.757  0.00  0.00    +0.000 A 
ATOM     28  N   UNL     1      51.086  10.974  17.529  0.00  0.00    +0.000 NA
ATOM     29  C   UNL     1      50.993  10.765  18.799  0.00  0.00    +0.000 A 
ATOM     30  N   UNL     1      50.541   9.603  19.370  0.00  0.00    +0.000 N 
ATOM     31  C   UNL     1      50.112   8.525  18.628  0.00  0.00    +0.000 A 
ATOM     32  O   UNL     1      49.670   7.518  19.170  0.00  0.00    +0.000 OA
ATOM     33  C   UNL     1      50.215   8.703  17.192  0.00  0.00    +0.000 A 
ATOM     34  H   UNL     1      50.481   9.506  20.371  0.00  0.00    +0.000 HD
ENDBRANCH  21  24
ENDBRANCH  19  20
ENDBRANCH   4  19
TORSDOF 6
ENDMDL
MODEL 7
REMARK VINA RESULT:    -7.153      2.813      4.136
REMARK INTER + INTRA:         -10.791
REMARK INTER:                  -9.745
REMARK INTRA:                  -1.046
REMARK UNBOUND:                -1.130
REMARK  Name = 
REMARK  6 active torsions:
REMARK  status: ('A' for Active; 'I' for Inactive)
REMARK    1  A    between atoms: C_2  and  C_4
REMARK    2  A    between atoms: C_7  and  C_8
REMARK    3  A    between atoms: C_8  and  C_9
REMARK    4  A    between atoms: C_12  and  C_13
REMARK    5  A    between atoms: C_13  and  N_14
REMARK    6  A    between atoms: C_15  and  C_17
REMARK                            x       y       z     vdW  Elec       q    Type
REMARK                         _______ _______ _______ _____ _____    ______ ____
ROOT
ATOM      1  C   UNL     1      45.068   4.296  11.914  0.00  0.00    +0.000 A 
ATOM      2  C   UNL     1      45.242   5.663  12.172  0.00  0.00    +0.000 A 
ATOM      3  C   UNL     1      46.101   6.093  13.189  0.00  0.00    +0.000 A 
ATOM      4  C   UNL     1      46.808   5.164  13.963  0.00  0.00    +0.000 A 
ATOM      5  C   UNL     1      46.578   3.798  13.753  0.00  0.00    +0.000 A 
ATOM      6  C   UNL     1      45.724   3.368  12.732  0.00  0.00    +0.000 A 
ENDROOT
BRANCH   1   7
ATOM      7  C   UNL     1      44.231   3.833  10.742  0.00  0.00    +0.000 C 
BRANCH   7  11
ATOM      8  C   UNL     1      46.547   2.935   7.192  0.00  0.00    +0.000 A 
ATOM      9  C   UNL     1      46.274   4.264   7.535  0.00  0.00    +0.000 A 
ATOM     10  C   UNL     1      45.528   4.553   8.684  0.00  0.00    +0.000 A 
ATOM     11  C   UNL     1      45.046   3.521   9.503  0.00  0.00    +0.000 A 
ATOM     12  C   UNL     1      45.303   2.192   9.136  0.00  0.00    +0.000 A 
ATOM     13  C   UNL     1      46.045   1.900   7.987  0.00  0.00    +0.000 A 
BRANCH   8  15
ATOM     14  N   UNL     1      48.557   1.993   6.190  0.00  0.00    +0.000 N 
ATOM     15  C   UNL     1      47.341   2.585   5.984  0.00  0.00    +0.000 C 
ATOM     16  O   UNL     1      46.916   2.775   4.853  0.00  0.00    +0.000 OA
ATOM     17  H   UNL     1      49.037   1.661   5.363  0.00  0.00    +0.000 HD
ATOM     18  H   UNL     1      48.817   1.590   7.077  0.00  0.00    +0.000 HD
ENDBRANCH   8  15
ENDBRANCH   7  11
ENDBRANCH   1   7
BRANCH   4  19
ATOM     19  C   UNL     1      47.806   5.613  14.998  0.00  0.00    +0.000 C 
BRANCH  19  20
ATOM     20  N   UNL     1      47.953   7.045  15.018  0.00  0.00    +0.000 N 
ATOM     21  C   UNL     1      49.195   7.626  15.064  0.00  0.00    +0.000 C 
ATOM     22  O   UNL     1      50.228   6.964  15.045  0.00  0.00    +0.000 OA
ATOM     23  H   UNL     1      47.136   7.586  15.279  0.00  0.00    +0.000 HD
BRANCH  21  24
ATOM     24  C   UNL     1      49.227   9.095  15.078  0.00  0.00    +0.000 A 
ATOM     25  C   UNL     1      48.997   9.799  13.904  0.00  0.00    +0.000 A 
ATOM     26  S   UNL     1      49.025  11.492  14.104  0.00  0.00    +0.000 S 
ATOM     27  C   UNL     1      49.400  11.345  15.758  0.00  0.00    +0.000 A 
ATOM     28  N   UNL     1      49.594  12.446  16.532  0.00  0.00    +0.000 NA
ATOM     29  C   UNL     1      49.902  12.187  17.758  0.00  0.00    +0.000 A 
ATOM     30  N   UNL     1      50.025  10.929  18.286  0.00  0.00    +0.000 N 
ATOM     31  C   UNL     1      49.808   9.786  17.548  0.00  0.00    +0.000 A 
ATOM     32  O   UNL     1      49.881   8.675  18.063  0.00  0.00    +0.000 OA
ATOM     33  C   UNL     1      49.477  10.023  16.156  0.00  0.00    +0.000 A 
ATOM     34  H   UNL     1      50.257  10.792  19.257  0.00  0.00    +0.000 HD
ENDBRANCH  21  24
ENDBRANCH  19  20
ENDBRANCH   4  19
TORSDOF 6
ENDMDL
MODEL 8
REMARK VINA RESULT:    -7.149      1.783      2.148
REMARK INTER + INTRA:         -10.786
REMARK INTER:                  -9.581
REMARK INTRA:                  -1.205
REMARK UNBOUND:                -1.130
REMARK  Name = 
REMARK  6 active torsions:
REMARK  status: ('A' for Active; 'I' for Inactive)
REMARK    1  A    between atoms: C_2  and  C_4
REMARK    2  A    between atoms: C_7  and  C_8
REMARK    3  A    between atoms: C_8  and  C_9
REMARK    4  A    between atoms: C_12  and  C_13
REMARK    5  A    between atoms: C_13  and  N_14
REMARK    6  A    between atoms: C_15  and  C_17
REMARK                            x       y       z     vdW  Elec       q    Type
REMARK                         _______ _______ _______ _____ _____    ______ ____
ROOT
ATOM      1  C   UNL     1      45.510   5.693  11.810  0.00  0.00    +0.000 A 
ATOM      2  C   UNL     1      46.205   4.979  12.796  0.00  0.00    +0.000 A 
ATOM      3  C   UNL     1      47.083   5.635  13.666  0.00  0.00    +0.000 A 
ATOM      4  C   UNL     1      47.275   7.019  13.574  0.00  0.00    +0.000 A 
ATOM      5  C   UNL     1      46.636   7.720  12.543  0.00  0.00    +0.000 A 
ATOM      6  C   UNL     1      45.754   7.066  11.676  0.00  0.00    +0.000 A 
ENDROOT
BRANCH   1   7
ATOM      7  C   UNL     1      44.476   5.007  10.946  0.00  0.00    +0.000 C 
BRANCH   7  11
ATOM      8  C   UNL     1      46.194   2.864   7.595  0.00  0.00    +0.000 A 
ATOM      9  C   UNL     1      45.507   2.169   8.596  0.00  0.00    +0.000 A 
ATOM     10  C   UNL     1      44.949   2.862   9.677  0.00  0.00    +0.000 A 
ATOM     11  C   UNL     1      45.072   4.256   9.771  0.00  0.00    +0.000 A 
ATOM     12  C   UNL     1      45.784   4.941   8.777  0.00  0.00    +0.000 A 
ATOM     13  C   UNL     1      46.345   4.250   7.697  0.00  0.00    +0.000 A 
BRANCH   8  15
ATOM     14  N   UNL     1      47.249   0.891   6.630  0.00  0.00    +0.000 N 
ATOM     15  C   UNL     1      46.795   2.166   6.427  0.00  0.00    +0.000 C 
ATOM     16  O   UNL     1      46.845   2.684   5.319  0.00  0.00    +0.000 OA
ATOM     17  H   UNL     1      47.553   0.389   5.806  0.00  0.00    +0.000 HD
ATOM     18  H   UNL     1      46.989   0.349   7.441  0.00  0.00    +0.000 HD
ENDBRANCH   8  15
ENDBRANCH   7  11
ENDBRANCH   1   7
BRANCH   4  19
ATOM     19  C   UNL     1      48.143   7.752  14.563  0.00  0.00    +0.000 C 
BRANCH  19  20
ATOM     20  N   UNL     1      48.497   6.923  15.686  0.00  0.00    +0.000 N 
ATOM     21  C   UNL     1      49.733   7.022  16.273  0.00  0.00    +0.000 C 
ATOM     22  O   UNL     1      50.569   7.841  15.904  0.00  0.00    +0.000 OA
ATOM     23  H   UNL     1      47.933   6.095  15.841  0.00  0.00    +0.000 HD
BRANCH  21  24
ATOM     24  C   UNL     1      49.985   6.131  17.414  0.00  0.00    +0.000 A 
ATOM     25  C   UNL     1      51.032   5.222  17.358  0.00  0.00    +0.000 A 
ATOM     26  S   UNL     1      51.214   4.298  18.780  0.00  0.00    +0.000 S 
ATOM     27  C   UNL     1      49.863   5.043  19.501  0.00  0.00    +0.000 A 
ATOM     28  N   UNL     1      49.443   4.680  20.742  0.00  0.00    +0.000 NA
ATOM     29  C   UNL     1      48.391   5.303  21.152  0.00  0.00    +0.000 A 
ATOM     30  N   UNL     1      47.722   6.264  20.439  0.00  0.00    +0.000 N 
ATOM     31  C   UNL     1      48.128   6.685  19.193  0.00  0.00    +0.000 A 
ATOM     32  O   UNL     1      47.534   7.580  18.600  0.00  0.00    +0.000 OA
ATOM     33  C   UNL     1      49.299   6.000  18.677  0.00  0.00    +0.000 A 
ATOM     34  H   UNL     1      46.910   6.724  20.821  0.00  0.00    +0.000 HD
ENDBRANCH  21  24
ENDBRANCH  19  20
ENDBRANCH   4  19
TORSDOF 6
ENDMDL
MODEL 9
REMARK VINA RESULT:    -6.689      3.193      4.491
REMARK INTER + INTRA:         -10.165
REMARK INTER:                  -9.068
REMARK INTRA:                  -1.097
REMARK UNBOUND:                -1.130
REMARK  Name = 
REMARK  6 active torsions:
REMARK  status: ('A' for Active; 'I' for Inactive)
REMARK    1  A    between atoms: C_2  and  C_4
REMARK    2  A    between atoms: C_7  and  C_8
REMARK    3  A    between atoms: C_8  and  C_9
REMARK    4  A    between atoms: C_12  and  C_13
REMARK    5  A    between atoms: C_13  and  N_14
REMARK    6  A    between atoms: C_15  and  C_17
REMARK                            x       y       z     vdW  Elec       q    Type
REMARK                         _______ _______ _______ _____ _____    ______ ____
ROOT
ATOM      1  C   UNL     1      47.917   7.966  13.525  0.00  0.00    +0.000 A 
ATOM      2  C   UNL     1      47.688   9.003  14.440  0.00  0.00    +0.000 A 
ATOM      3  C   UNL     1      48.441   9.097  15.615  0.00  0.00    +0.000 A 
ATOM      4  C   UNL     1      49.444   8.160  15.893  0.00  0.00    +0.000 A 
ATOM      5  C   UNL     1      49.623   7.083  15.015  0.00  0.00    +0.000 A 
ATOM      6  C   UNL     1      48.874   6.992  13.837  0.00  0.00    +0.000 A 
ENDROOT
BRANCH   1   7
ATOM      7  C   UNL     1      47.185   7.929  12.202  0.00  0.00    +0.000 C 
BRANCH   7  11
ATOM      8  C   UNL     1      44.845   4.329  11.623  0.00  0.00    +0.000 A 
ATOM      9  C   UNL     1      45.078   4.815  12.914  0.00  0.00    +0.000 A 
ATOM     10  C   UNL     1      45.832   5.980  13.100  0.00  0.00    +0.000 A 
ATOM     11  C   UNL     1      46.361   6.673  12.001  0.00  0.00    +0.000 A 
ATOM     12  C   UNL     1      46.144   6.163  10.713  0.00  0.00    +0.000 A 
ATOM     13  C   UNL     1      45.394   4.997  10.524  0.00  0.00    +0.000 A 
BRANCH   8  15
ATOM     14  N   UNL     1      43.688   2.364  12.479  0.00  0.00    +0.000 N 
ATOM     15  C   UNL     1      44.044   3.099  11.382  0.00  0.00    +0.000 C 
ATOM     16  O   UNL     1      43.678   2.775  10.260  0.00  0.00    +0.000 OA
ATOM     17  H   UNL     1      43.052   1.594  12.313  0.00  0.00    +0.000 HD
ATOM     18  H   UNL     1      43.743   2.733  13.416  0.00  0.00    +0.000 HD
ENDBRANCH   8  15
ENDBRANCH   7  11
ENDBRANCH   1   7
BRANCH   4  19
ATOM     19  C   UNL     1      50.325   8.301  17.108  0.00  0.00    +0.000 C 
BRANCH  19  20
ATOM     20  N   UNL     1      51.132   7.129  17.326  0.00  0.00    +0.000 N 
ATOM     21  C   UNL     1      50.849   6.260  18.351  0.00  0.00    +0.000 C 
ATOM     22  O   UNL     1      49.883   6.415  19.092  0.00  0.00    +0.000 OA
ATOM     23  H   UNL     1      52.050   7.117  16.897  0.00  0.00    +0.000 HD
BRANCH  21  24
ATOM     24  C   UNL     1      51.735   5.095  18.479  0.00  0.00    +0.000 A 
ATOM     25  C   UNL     1      52.984   5.241  19.068  0.00  0.00    +0.000 A 
ATOM     26  S   UNL     1      53.863   3.785  19.179  0.00  0.00    +0.000 S 
ATOM     27  C   UNL     1      52.629   2.916  18.393  0.00  0.00    +0.000 A 
ATOM     28  N   UNL     1      52.763   1.587  18.137  0.00  0.00    +0.000 NA
ATOM     29  C   UNL     1      51.764   1.062  17.509  0.00  0.00    +0.000 A 
ATOM     30  N   UNL     1      50.639   1.741  17.121  0.00  0.00    +0.000 N 
ATOM     31  C   UNL     1      50.447   3.079  17.386  0.00  0.00    +0.000 A 
ATOM     32  O   UNL     1      49.408   3.646  17.065  0.00  0.00    +0.000 OA
ATOM     33  C   UNL     1      51.550   3.721  18.075  0.00  0.00    +0.000 A 
ATOM     34  H   UNL     1      49.887   1.271  16.642  0.00  0.00    +0.000 HD
ENDBRANCH  21  24
ENDBRANCH  19  20
ENDBRANCH   4  19
TORSDOF 6
ENDMDL
