MODEL 1
REMARK VINA RESULT:    -8.674      0.000      0.000
REMARK INTER + INTRA:         -12.970
REMARK INTER:                 -12.223
REMARK INTRA:                  -0.746
REMARK UNBOUND:                -0.746
REMARK  Name = 
REMARK  7 active torsions:
REMARK  status: ('A' for Active; 'I' for Inactive)
REMARK    1  A    between atoms: C_2  and  C_4
REMARK    2  A    between atoms: C_7  and  N_8
REMARK    3  A    between atoms: N_8  and  C_9
REMARK    4  A    between atoms: C_9  and  C_10
REMARK    5  A    between atoms: C_10  and  C_11
REMARK    6  A    between atoms: C_13  and  N_14
REMARK    7  A    between atoms: N_14  and  C_15
REMARK                            x       y       z     vdW  Elec       q    Type
REMARK                         _______ _______ _______ _____ _____    ______ ____
ROOT
ATOM      1  C   UNL     1      43.276   5.316  12.196  0.00  0.00    +0.000 C 
ENDROOT
BRANCH   1   2
ATOM      2  C   UNL     1      44.675   5.610  12.674  0.00  0.00    +0.000 A 
ATOM      3  C   UNL     1      45.309   4.691  13.549  0.00  0.00    +0.000 A 
ATOM      4  C   UNL     1      46.610   4.900  14.032  0.00  0.00    +0.000 A 
ATOM      5  C   UNL     1      47.265   6.062  13.611  0.00  0.00    +0.000 A 
ATOM      6  C   UNL     1      46.649   6.983  12.767  0.00  0.00    +0.000 A 
ATOM      7  F   UNL     1      47.351   8.070  12.408  0.00  0.00    +0.000 F 
ATOM      8  C   UNL     1      45.362   6.774  12.298  0.00  0.00    +0.000 A 
ATOM      9 CL   UNL     1      44.663   7.971  11.270  0.00  0.00    +0.000 Cl
BRANCH   4  10
ATOM     10  N   UNL     1      47.213   3.911  14.795  0.00  0.00    +0.000 N 
ATOM     11  H   UNL     1      47.368   3.015  14.344  0.00  0.00    +0.000 HD
BRANCH  10  12
ATOM     12  C   UNL     1      47.328   3.952  16.249  0.00  0.00    +0.000 C 
ATOM     13  C   UNL     1      48.146   5.150  16.740  0.00  0.00    +0.000 C 
ATOM     14  C   UNL     1      48.820   4.696  18.031  0.00  0.00    +0.000 C 
ATOM     15  C   UNL     1      48.660   3.181  18.123  0.00  0.00    +0.000 C 
ATOM     16  C   UNL     1      48.051   2.717  16.806  0.00  0.00    +0.000 C 
ENDBRANCH  10  12
ENDBRANCH   4  10
ENDBRANCH   1   2
BRANCH   1  17
ATOM     17  C   UNL     1      43.243   4.191  11.153  0.00  0.00    +0.000 C 
BRANCH  17  18
ATOM     18  N   UNL     1      43.719   4.707   9.876  0.00  0.00    +0.000 N 
ATOM     19  H   UNL     1      43.037   5.165   9.280  0.00  0.00    +0.000 HD
BRANCH  18  23
ATOM     20  C   UNL     1      46.495   2.559   7.748  0.00  0.00    +0.000 A 
ATOM     21  C   UNL     1      46.452   3.945   7.665  0.00  0.00    +0.000 A 
ATOM     22  N   UNL     1      45.589   4.705   8.400  0.00  0.00    +0.000 NA
ATOM     23  C   UNL     1      44.755   4.043   9.230  0.00  0.00    +0.000 A 
ATOM     24  C   UNL     1      44.827   2.645   9.306  0.00  0.00    +0.000 A 
ATOM     25  N   UNL     1      45.682   1.866   8.589  0.00  0.00    +0.000 NA
BRANCH  20  27
ATOM     26  N   UNL     1      48.479   2.373   6.315  0.00  0.00    +0.000 N 
ATOM     27  C   UNL     1      47.403   1.759   6.887  0.00  0.00    +0.000 C 
ATOM     28  O   UNL     1      47.217   0.544   6.700  0.00  0.00    +0.000 OA
ATOM     29  H   UNL     1      49.130   1.776   5.823  0.00  0.00    +0.000 HD
ATOM     30  H   UNL     1      48.792   3.289   6.617  0.00  0.00    +0.000 HD
ENDBRANCH  20  27
ENDBRANCH  18  23
ENDBRANCH  17  18
ENDBRANCH   1  17
TORSDOF 7
ENDMDL
MODEL 2
REMARK VINA RESULT:    -7.872      3.226      7.778
REMARK INTER + INTRA:         -11.840
REMARK INTER:                 -11.087
REMARK INTRA:                  -0.754
REMARK UNBOUND:                -0.746
REMARK  Name = 
REMARK  7 active torsions:
REMARK  status: ('A' for Active; 'I' for Inactive)
REMARK    1  A    between atoms: C_2  and  C_4
REMARK    2  A    between atoms: C_7  and  N_8
REMARK    3  A    between atoms: N_8  and  C_9
REMARK    4  A    between atoms: C_9  and  C_10
REMARK    5  A    between atoms: C_10  and  C_11
REMARK    6  A    between atoms: C_13  and  N_14
REMARK    7  A    between atoms: N_14  and  C_15
REMARK                            x       y       z     vdW  Elec       q    Type
REMARK                         _______ _______ _______ _____ _____    ______ ____
ROOT
ATOM      1  C   UNL     1      44.797   6.611  12.043  0.00  0.00    +0.000 C 
ENDROOT
BRANCH   1   2
ATOM      2  C   UNL     1      44.505   5.312  11.334  0.00  0.00    +0.000 A 
ATOM      3  C   UNL     1      44.898   5.167   9.979  0.00  0.00    +0.000 A 
ATOM      4  C   UNL     1      44.660   3.987   9.258  0.00  0.00    +0.000 A 
ATOM      5  C   UNL     1      44.015   2.947   9.936  0.00  0.00    +0.000 A 
ATOM      6  C   UNL     1      43.607   3.081  11.261  0.00  0.00    +0.000 A 
ATOM      7  F   UNL     1      42.998   2.033  11.838  0.00  0.00    +0.000 F 
ATOM      8  C   UNL     1      43.840   4.252  11.966  0.00  0.00    +0.000 A 
ATOM      9 CL   UNL     1      43.288   4.345  13.599  0.00  0.00    +0.000 Cl
BRANCH   4  10
ATOM     10  N   UNL     1      45.166   3.868   7.972  0.00  0.00    +0.000 N 
ATOM     11  H   UNL     1      44.505   3.973   7.209  0.00  0.00    +0.000 HD
BRANCH  10  12
ATOM     12  C   UNL     1      46.465   3.287   7.651  0.00  0.00    +0.000 C 
ATOM     13  C   UNL     1      46.835   3.453   6.174  0.00  0.00    +0.000 C 
ATOM     14  C   UNL     1      47.696   2.246   5.819  0.00  0.00    +0.000 C 
ATOM     15  C   UNL     1      47.570   1.241   6.961  0.00  0.00    +0.000 C 
ATOM     16  C   UNL     1      46.498   1.773   7.905  0.00  0.00    +0.000 C 
ENDBRANCH  10  12
ENDBRANCH   4  10
ENDBRANCH   1   2
BRANCH   1  17
ATOM     17  C   UNL     1      46.292   6.956  12.031  0.00  0.00    +0.000 C 
BRANCH  17  18
ATOM     18  N   UNL     1      47.060   5.775  12.406  0.00  0.00    +0.000 N 
ATOM     19  H   UNL     1      46.974   4.960  11.809  0.00  0.00    +0.000 HD
BRANCH  18  23
ATOM     20  C   UNL     1      47.946   4.715  16.272  0.00  0.00    +0.000 A 
ATOM     21  C   UNL     1      48.474   5.872  15.712  0.00  0.00    +0.000 A 
ATOM     22  N   UNL     1      48.160   6.297  14.454  0.00  0.00    +0.000 NA
ATOM     23  C   UNL     1      47.296   5.531  13.754  0.00  0.00    +0.000 A 
ATOM     24  C   UNL     1      46.767   4.375  14.345  0.00  0.00    +0.000 A 
ATOM     25  N   UNL     1      47.059   3.934  15.599  0.00  0.00    +0.000 NA
BRANCH  20  27
ATOM     26  N   UNL     1      47.403   3.809  18.487  0.00  0.00    +0.000 N 
ATOM     27  C   UNL     1      48.360   4.248  17.619  0.00  0.00    +0.000 C 
ATOM     28  O   UNL     1      49.556   4.223  17.959  0.00  0.00    +0.000 OA
ATOM     29  H   UNL     1      47.731   3.402  19.352  0.00  0.00    +0.000 HD
ATOM     30  H   UNL     1      46.460   3.600  18.179  0.00  0.00    +0.000 HD
ENDBRANCH  20  27
ENDBRANCH  18  23
ENDBRANCH  17  18
ENDBRANCH   1  17
TORSDOF 7
ENDMDL
MODEL 3
REMARK VINA RESULT:    -7.678      2.804      4.754
REMARK INTER + INTRA:         -11.566
REMARK INTER:                 -10.780
REMARK INTRA:                  -0.786
REMARK UNBOUND:                -0.746
REMARK  Name = 
REMARK  7 active torsions:
REMARK  status: ('A' for Active; 'I' for Inactive)
REMARK    1  A    between atoms: C_2  and  C_4
REMARK    2  A    between atoms: C_7  and  N_8
REMARK    3  A    between atoms: N_8  and  C_9
REMARK    4  A    between atoms: C_9  and  C_10
REMARK    5  A    between atoms: C_10  and  C_11
REMARK    6  A    between atoms: C_13  and  N_14
REMARK    7  A    between atoms: N_14  and  C_15
REMARK                            x       y       z     vdW  Elec       q    Type
REMARK                         _______ _______ _______ _____ _____    ______ ____
ROOT
ATOM      1  C   UNL     1      44.911   4.886  12.008  0.00  0.00    +0.000 C 
ENDROOT
BRANCH   1   2
ATOM      2  C   UNL     1      45.853   5.829  12.715  0.00  0.00    +0.000 A 
ATOM      3  C   UNL     1      45.728   7.222  12.485  0.00  0.00    +0.000 A 
ATOM      4  C   UNL     1      46.568   8.157  13.109  0.00  0.00    +0.000 A 
ATOM      5  C   UNL     1      47.543   7.655  13.977  0.00  0.00    +0.000 A 
ATOM      6  C   UNL     1      47.689   6.288  14.199  0.00  0.00    +0.000 A 
ATOM      7  F   UNL     1      48.648   5.890  15.052  0.00  0.00    +0.000 F 
ATOM      8  C   UNL     1      46.860   5.369  13.575  0.00  0.00    +0.000 A 
ATOM      9 CL   UNL     1      47.117   3.691  13.889  0.00  0.00    +0.000 Cl
BRANCH   4  10
ATOM     10  N   UNL     1      46.324   9.511  12.928  0.00  0.00    +0.000 N 
ATOM     11  H   UNL     1      45.674   9.949  13.572  0.00  0.00    +0.000 HD
BRANCH  10  12
ATOM     12  C   UNL     1      46.658  10.249  11.716  0.00  0.00    +0.000 C 
ATOM     13  C   UNL     1      48.170  10.359  11.491  0.00  0.00    +0.000 C 
ATOM     14  C   UNL     1      48.391  11.679  10.762  0.00  0.00    +0.000 C 
ATOM     15  C   UNL     1      47.088  12.470  10.840  0.00  0.00    +0.000 C 
ATOM     16  C   UNL     1      46.155  11.699  11.765  0.00  0.00    +0.000 C 
ENDBRANCH  10  12
ENDBRANCH   4  10
ENDBRANCH   1   2
BRANCH   1  17
ATOM     17  C   UNL     1      44.040   5.605  10.970  0.00  0.00    +0.000 C 
BRANCH  17  18
ATOM     18  N   UNL     1      43.704   4.675   9.899  0.00  0.00    +0.000 N 
ATOM     19  H   UNL     1      42.814   4.194   9.967  0.00  0.00    +0.000 HD
BRANCH  18  23
ATOM     20  C   UNL     1      46.451   2.440   7.823  0.00  0.00    +0.000 A 
ATOM     21  C   UNL     1      46.407   3.822   7.684  0.00  0.00    +0.000 A 
ATOM     22  N   UNL     1      45.554   4.612   8.399  0.00  0.00    +0.000 NA
ATOM     23  C   UNL     1      44.732   3.984   9.267  0.00  0.00    +0.000 A 
ATOM     24  C   UNL     1      44.804   2.591   9.399  0.00  0.00    +0.000 A 
ATOM     25  N   UNL     1      45.650   1.782   8.703  0.00  0.00    +0.000 NA
BRANCH  20  27
ATOM     26  N   UNL     1      48.510   2.147   6.520  0.00  0.00    +0.000 N 
ATOM     27  C   UNL     1      47.347   1.605   6.983  0.00  0.00    +0.000 C 
ATOM     28  O   UNL     1      47.072   0.422   6.718  0.00  0.00    +0.000 OA
ATOM     29  H   UNL     1      49.142   1.519   6.041  0.00  0.00    +0.000 HD
ATOM     30  H   UNL     1      48.878   3.016   6.892  0.00  0.00    +0.000 HD
ENDBRANCH  20  27
ENDBRANCH  18  23
ENDBRANCH  17  18
ENDBRANCH   1  17
TORSDOF 7
ENDMDL
MODEL 4
REMARK VINA RESULT:    -7.540      3.139      5.697
REMARK INTER + INTRA:         -11.371
REMARK INTER:                 -10.737
REMARK INTRA:                  -0.634
REMARK UNBOUND:                -0.746
REMARK  Name = 
REMARK  7 active torsions:
REMARK  status: ('A' for Active; 'I' for Inactive)
REMARK    1  A    between atoms: C_2  and  C_4
REMARK    2  A    between atoms: C_7  and  N_8
REMARK    3  A    between atoms: N_8  and  C_9
REMARK    4  A    between atoms: C_9  and  C_10
REMARK    5  A    between atoms: C_10  and  C_11
REMARK    6  A    between atoms: C_13  and  N_14
REMARK    7  A    between atoms: N_14  and  C_15
REMARK                            x       y       z     vdW  Elec       q    Type
REMARK                         _______ _______ _______ _____ _____    ______ ____
ROOT
ATOM      1  C   UNL     1      45.077   5.137  11.594  0.00  0.00    +0.000 C 
ENDROOT
BRANCH   1   2
ATOM      2  C   UNL     1      45.268   6.595  11.927  0.00  0.00    +0.000 A 
ATOM      3  C   UNL     1      44.548   7.568  11.189  0.00  0.00    +0.000 A 
ATOM      4  C   UNL     1      44.677   8.942  11.446  0.00  0.00    +0.000 A 
ATOM      5  C   UNL     1      45.550   9.318  12.471  0.00  0.00    +0.000 A 
ATOM      6  C   UNL     1      46.277   8.375  13.194  0.00  0.00    +0.000 A 
ATOM      7  F   UNL     1      47.091   8.821  14.165  0.00  0.00    +0.000 F 
ATOM      8  C   UNL     1      46.151   7.019  12.931  0.00  0.00    +0.000 A 
ATOM      9 CL   UNL     1      47.101   5.916  13.858  0.00  0.00    +0.000 Cl
BRANCH   4  10
ATOM     10  N   UNL     1      43.864   9.835  10.763  0.00  0.00    +0.000 N 
ATOM     11  H   UNL     1      44.134  10.065   9.812  0.00  0.00    +0.000 HD
BRANCH  10  12
ATOM     12  C   UNL     1      42.878  10.700  11.401  0.00  0.00    +0.000 C 
ATOM     13  C   UNL     1      41.475  10.529  10.810  0.00  0.00    +0.000 C 
ATOM     14  C   UNL     1      40.793  11.886  10.948  0.00  0.00    +0.000 C 
ATOM     15  C   UNL     1      41.869  12.904  11.316  0.00  0.00    +0.000 C 
ATOM     16  C   UNL     1      43.210  12.188  11.220  0.00  0.00    +0.000 C 
ENDBRANCH  10  12
ENDBRANCH   4  10
ENDBRANCH   1   2
BRANCH   1  17
ATOM     17  C   UNL     1      43.648   4.831  11.126  0.00  0.00    +0.000 C 
BRANCH  17  18
ATOM     18  N   UNL     1      43.645   4.649   9.680  0.00  0.00    +0.000 N 
ATOM     19  H   UNL     1      42.743   4.537   9.230  0.00  0.00    +0.000 HD
BRANCH  18  23
ATOM     20  C   UNL     1      46.535   2.499   7.709  0.00  0.00    +0.000 A 
ATOM     21  C   UNL     1      46.453   3.879   7.567  0.00  0.00    +0.000 A 
ATOM     22  N   UNL     1      45.550   4.643   8.249  0.00  0.00    +0.000 NA
ATOM     23  C   UNL     1      44.716   3.990   9.087  0.00  0.00    +0.000 A 
ATOM     24  C   UNL     1      44.827   2.600   9.223  0.00  0.00    +0.000 A 
ATOM     25  N   UNL     1      45.722   1.817   8.559  0.00  0.00    +0.000 NA
BRANCH  20  27
ATOM     26  N   UNL     1      48.530   2.323   6.291  0.00  0.00    +0.000 N 
ATOM     27  C   UNL     1      47.486   1.693   6.904  0.00  0.00    +0.000 C 
ATOM     28  O   UNL     1      47.366   0.460   6.800  0.00  0.00    +0.000 OA
ATOM     29  H   UNL     1      49.213   1.729   5.841  0.00  0.00    +0.000 HD
ATOM     30  H   UNL     1      48.793   3.273   6.530  0.00  0.00    +0.000 HD
ENDBRANCH  20  27
ENDBRANCH  18  23
ENDBRANCH  17  18
ENDBRANCH   1  17
TORSDOF 7
ENDMDL
MODEL 5
REMARK VINA RESULT:    -7.280      3.322      7.924
REMARK INTER + INTRA:         -11.006
REMARK INTER:                 -10.317
REMARK INTRA:                  -0.689
REMARK UNBOUND:                -0.746
REMARK  Name = 
REMARK  7 active torsions:
REMARK  status: ('A' for Active; 'I' for Inactive)
REMARK    1  A    between atoms: C_2  and  C_4
REMARK    2  A    between atoms: C_7  and  N_8
REMARK    3  A    between atoms: N_8  and  C_9
REMARK    4  A    between atoms: C_9  and  C_10
REMARK    5  A    between atoms: C_10  and  C_11
REMARK    6  A    between atoms: C_13  and  N_14
REMARK    7  A    between atoms: N_14  and  C_15
REMARK                            x       y       z     vdW  Elec       q    Type
REMARK                         _______ _______ _______ _____ _____    ______ ____
ROOT
ATOM      1  C   UNL     1      47.073   5.348  13.672  0.00  0.00    +0.000 C 
ENDROOT
BRANCH   1   2
ATOM      2  C   UNL     1      46.035   5.619  12.612  0.00  0.00    +0.000 A 
ATOM      3  C   UNL     1      45.584   4.546  11.803  0.00  0.00    +0.000 A 
ATOM      4  C   UNL     1      44.620   4.726  10.799  0.00  0.00    +0.000 A 
ATOM      5  C   UNL     1      44.115   6.019  10.627  0.00  0.00    +0.000 A 
ATOM      6  C   UNL     1      44.561   7.086  11.402  0.00  0.00    +0.000 A 
ATOM      7  F   UNL     1      44.021   8.295  11.175  0.00  0.00    +0.000 F 
ATOM      8  C   UNL     1      45.518   6.904  12.389  0.00  0.00    +0.000 A 
ATOM      9 CL   UNL     1      46.032   8.281  13.293  0.00  0.00    +0.000 Cl
BRANCH   4  10
ATOM     10  N   UNL     1      44.140   3.617  10.117  0.00  0.00    +0.000 N 
ATOM     11  H   UNL     1      43.584   2.956  10.650  0.00  0.00    +0.000 HD
BRANCH  10  12
ATOM     12  C   UNL     1      44.642   3.171   8.822  0.00  0.00    +0.000 C 
ATOM     13  C   UNL     1      45.417   1.852   8.914  0.00  0.00    +0.000 C 
ATOM     14  C   UNL     1      46.466   1.904   7.809  0.00  0.00    +0.000 C 
ATOM     15  C   UNL     1      46.517   3.339   7.293  0.00  0.00    +0.000 C 
ATOM     16  C   UNL     1      45.630   4.173   8.208  0.00  0.00    +0.000 C 
ENDBRANCH  10  12
ENDBRANCH   4  10
ENDBRANCH   1   2
BRANCH   1  17
ATOM     17  C   UNL     1      46.816   4.028  14.411  0.00  0.00    +0.000 C 
BRANCH  17  18
ATOM     18  N   UNL     1      46.902   4.258  15.848  0.00  0.00    +0.000 N 
ATOM     19  H   UNL     1      46.345   5.016  16.228  0.00  0.00    +0.000 HD
BRANCH  18  23
ATOM     20  C   UNL     1      50.581   3.322  17.412  0.00  0.00    +0.000 A 
ATOM     21  C   UNL     1      50.136   4.638  17.378  0.00  0.00    +0.000 A 
ATOM     22  N   UNL     1      48.897   4.990  16.925  0.00  0.00    +0.000 NA
ATOM     23  C   UNL     1      48.101   3.987  16.498  0.00  0.00    +0.000 A 
ATOM     24  C   UNL     1      48.568   2.667  16.555  0.00  0.00    +0.000 A 
ATOM     25  N   UNL     1      49.795   2.289  17.007  0.00  0.00    +0.000 NA
BRANCH  20  27
ATOM     26  N   UNL     1      52.203   1.734  18.345  0.00  0.00    +0.000 N 
ATOM     27  C   UNL     1      51.958   2.982  17.851  0.00  0.00    +0.000 C 
ATOM     28  O   UNL     1      52.890   3.799  17.752  0.00  0.00    +0.000 OA
ATOM     29  H   UNL     1      53.169   1.506  18.534  0.00  0.00    +0.000 HD
ATOM     30  H   UNL     1      51.537   0.977  18.233  0.00  0.00    +0.000 HD
ENDBRANCH  20  27
ENDBRANCH  18  23
ENDBRANCH  17  18
ENDBRANCH   1  17
TORSDOF 7
ENDMDL
MODEL 6
REMARK VINA RESULT:    -6.783      3.716      8.236
REMARK INTER + INTRA:         -10.305
REMARK INTER:                  -9.601
REMARK INTRA:                  -0.703
REMARK UNBOUND:                -0.746
REMARK  Name = 
REMARK  7 active torsions:
REMARK  status: ('A' for Active; 'I' for Inactive)
REMARK    1  A    between atoms: C_2  and  C_4
REMARK    2  A    between atoms: C_7  and  N_8
REMARK    3  A    between atoms: N_8  and  C_9
REMARK    4  A    between atoms: C_9  and  C_10
REMARK    5  A    between atoms: C_10  and  C_11
REMARK    6  A    between atoms: C_13  and  N_14
REMARK    7  A    between atoms: N_14  and  C_15
REMARK                            x       y       z     vdW  Elec       q    Type
REMARK                         _______ _______ _______ _____ _____    ______ ____
ROOT
ATOM      1  C   UNL     1      45.978   6.749  11.655  0.00  0.00    +0.000 C 
ENDROOT
BRANCH   1   2
ATOM      2  C   UNL     1      45.329   5.511  11.089  0.00  0.00    +0.000 A 
ATOM      3  C   UNL     1      45.511   5.208   9.716  0.00  0.00    +0.000 A 
ATOM      4  C   UNL     1      44.938   4.073   9.123  0.00  0.00    +0.000 A 
ATOM      5  C   UNL     1      44.174   3.241   9.948  0.00  0.00    +0.000 A 
ATOM      6  C   UNL     1      43.973   3.535  11.294  0.00  0.00    +0.000 A 
ATOM      7  F   UNL     1      43.229   2.681  12.017  0.00  0.00    +0.000 F 
ATOM      8  C   UNL     1      44.536   4.661  11.874  0.00  0.00    +0.000 A 
ATOM      9 CL   UNL     1      44.223   4.964  13.544  0.00  0.00    +0.000 Cl
BRANCH   4  10
ATOM     10  N   UNL     1      45.243   3.775   7.802  0.00  0.00    +0.000 N 
ATOM     11  H   UNL     1      44.461   3.668   7.165  0.00  0.00    +0.000 HD
BRANCH  10  12
ATOM     12  C   UNL     1      46.541   3.284   7.351  0.00  0.00    +0.000 C 
ATOM     13  C   UNL     1      46.729   3.427   5.837  0.00  0.00    +0.000 C 
ATOM     14  C   UNL     1      47.639   2.278   5.418  0.00  0.00    +0.000 C 
ATOM     15  C   UNL     1      47.722   1.307   6.592  0.00  0.00    +0.000 C 
ATOM     16  C   UNL     1      46.724   1.787   7.638  0.00  0.00    +0.000 C 
ENDBRANCH  10  12
ENDBRANCH   4  10
ENDBRANCH   1   2
BRANCH   1  17
ATOM     17  C   UNL     1      47.239   6.425  12.467  0.00  0.00    +0.000 C 
BRANCH  17  18
ATOM     18  N   UNL     1      47.116   7.006  13.798  0.00  0.00    +0.000 N 
ATOM     19  H   UNL     1      46.572   7.859  13.880  0.00  0.00    +0.000 HD
BRANCH  18  23
ATOM     20  C   UNL     1      50.301   6.211  16.262  0.00  0.00    +0.000 A 
ATOM     21  C   UNL     1      50.327   7.295  15.393  0.00  0.00    +0.000 A 
ATOM     22  N   UNL     1      49.269   7.635  14.600  0.00  0.00    +0.000 NA
ATOM     23  C   UNL     1      48.169   6.857  14.693  0.00  0.00    +0.000 A 
ATOM     24  C   UNL     1      48.163   5.778  15.587  0.00  0.00    +0.000 A 
ATOM     25  N   UNL     1      49.202   5.422  16.391  0.00  0.00    +0.000 NA
BRANCH  20  27
ATOM     26  N   UNL     1      52.735   6.075  16.551  0.00  0.00    +0.000 N 
ATOM     27  C   UNL     1      51.493   5.832  17.062  0.00  0.00    +0.000 C 
ATOM     28  O   UNL     1      51.382   5.326  18.193  0.00  0.00    +0.000 OA
ATOM     29  H   UNL     1      53.518   5.901  17.167  0.00  0.00    +0.000 HD
ATOM     30  H   UNL     1      52.872   6.682  15.750  0.00  0.00    +0.000 HD
ENDBRANCH  20  27
ENDBRANCH  18  23
ENDBRANCH  17  18
ENDBRANCH   1  17
TORSDOF 7
ENDMDL
MODEL 7
REMARK VINA RESULT:    -6.505      3.767      8.310
REMARK INTER + INTRA:          -9.914
REMARK INTER:                  -9.401
REMARK INTRA:                  -0.512
REMARK UNBOUND:                -0.746
REMARK  Name = 
REMARK  7 active torsions:
REMARK  status: ('A' for Active; 'I' for Inactive)
REMARK    1  A    between atoms: C_2  and  C_4
REMARK    2  A    between atoms: C_7  and  N_8
REMARK    3  A    between atoms: N_8  and  C_9
REMARK    4  A    between atoms: C_9  and  C_10
REMARK    5  A    between atoms: C_10  and  C_11
REMARK    6  A    between atoms: C_13  and  N_14
REMARK    7  A    between atoms: N_14  and  C_15
REMARK                            x       y       z     vdW  Elec       q    Type
REMARK                         _______ _______ _______ _____ _____    ______ ____
ROOT
ATOM      1  C   UNL     1      48.572   6.971  12.470  0.00  0.00    +0.000 C 
ENDROOT
BRANCH   1   2
ATOM      2  C   UNL     1      47.117   7.109  12.101  0.00  0.00    +0.000 A 
ATOM      3  C   UNL     1      46.389   5.949  11.735  0.00  0.00    +0.000 A 
ATOM      4  C   UNL     1      45.032   6.003  11.382  0.00  0.00    +0.000 A 
ATOM      5  C   UNL     1      44.418   7.260  11.407  0.00  0.00    +0.000 A 
ATOM      6  C   UNL     1      45.125   8.411  11.747  0.00  0.00    +0.000 A 
ATOM      7  F   UNL     1      44.458   9.577  11.751  0.00  0.00    +0.000 F 
ATOM      8  C   UNL     1      46.466   8.352  12.090  0.00  0.00    +0.000 A 
ATOM      9 CL   UNL     1      47.275   9.826  12.482  0.00  0.00    +0.000 Cl
BRANCH   4  10
ATOM     10  N   UNL     1      44.349   4.819  11.140  0.00  0.00    +0.000 N 
ATOM     11  H   UNL     1      44.036   4.298  11.952  0.00  0.00    +0.000 HD
BRANCH  10  12
ATOM     12  C   UNL     1      44.347   4.121   9.859  0.00  0.00    +0.000 C 
ATOM     13  C   UNL     1      44.665   2.629  10.003  0.00  0.00    +0.000 C 
ATOM     14  C   UNL     1      45.368   2.224   8.712  0.00  0.00    +0.000 C 
ATOM     15  C   UNL     1      45.738   3.505   7.970  0.00  0.00    +0.000 C 
ATOM     16  C   UNL     1      45.415   4.667   8.901  0.00  0.00    +0.000 C 
ENDBRANCH  10  12
ENDBRANCH   4  10
ENDBRANCH   1   2
BRANCH   1  17
ATOM     17  C   UNL     1      48.815   7.188  13.969  0.00  0.00    +0.000 C 
BRANCH  17  18
ATOM     18  N   UNL     1      47.922   6.323  14.730  0.00  0.00    +0.000 N 
ATOM     19  H   UNL     1      46.927   6.505  14.653  0.00  0.00    +0.000 HD
BRANCH  18  23
ATOM     20  C   UNL     1      48.936   5.021  18.489  0.00  0.00    +0.000 A 
ATOM     21  C   UNL     1      48.461   4.132  17.532  0.00  0.00    +0.000 A 
ATOM     22  N   UNL     1      48.170   4.507  16.252  0.00  0.00    +0.000 NA
ATOM     23  C   UNL     1      48.364   5.807  15.943  0.00  0.00    +0.000 A 
ATOM     24  C   UNL     1      48.857   6.681  16.922  0.00  0.00    +0.000 A 
ATOM     25  N   UNL     1      49.160   6.331  18.202  0.00  0.00    +0.000 NA
BRANCH  20  27
ATOM     26  N   UNL     1      48.481   3.532  20.386  0.00  0.00    +0.000 N 
ATOM     27  C   UNL     1      49.181   4.592  19.889  0.00  0.00    +0.000 C 
ATOM     28  O   UNL     1      50.026   5.160  20.603  0.00  0.00    +0.000 OA
ATOM     29  H   UNL     1      48.749   3.205  21.304  0.00  0.00    +0.000 HD
ATOM     30  H   UNL     1      47.959   2.908  19.781  0.00  0.00    +0.000 HD
ENDBRANCH  20  27
ENDBRANCH  18  23
ENDBRANCH  17  18
ENDBRANCH   1  17
TORSDOF 7
ENDMDL
MODEL 8
REMARK VINA RESULT:    -6.492      3.986      7.751
REMARK INTER + INTRA:          -9.895
REMARK INTER:                  -9.495
REMARK INTRA:                  -0.400
REMARK UNBOUND:                -0.746
REMARK  Name = 
REMARK  7 active torsions:
REMARK  status: ('A' for Active; 'I' for Inactive)
REMARK    1  A    between atoms: C_2  and  C_4
REMARK    2  A    between atoms: C_7  and  N_8
REMARK    3  A    between atoms: N_8  and  C_9
REMARK    4  A    between atoms: C_9  and  C_10
REMARK    5  A    between atoms: C_10  and  C_11
REMARK    6  A    between atoms: C_13  and  N_14
REMARK    7  A    between atoms: N_14  and  C_15
REMARK                            x       y       z     vdW  Elec       q    Type
REMARK                         _______ _______ _______ _____ _____    ______ ____
ROOT
ATOM      1  C   UNL     1      45.847   6.355  12.057  0.00  0.00    +0.000 C 
ENDROOT
BRANCH   1   2
ATOM      2  C   UNL     1      45.193   5.231  11.295  0.00  0.00    +0.000 A 
ATOM      3  C   UNL     1      45.474   5.085   9.913  0.00  0.00    +0.000 A 
ATOM      4  C   UNL     1      44.903   4.061   9.142  0.00  0.00    +0.000 A 
ATOM      5  C   UNL     1      44.037   3.180   9.797  0.00  0.00    +0.000 A 
ATOM      6  C   UNL     1      43.737   3.321  11.150  0.00  0.00    +0.000 A 
ATOM      7  F   UNL     1      42.898   2.429  11.703  0.00  0.00    +0.000 F 
ATOM      8  C   UNL     1      44.300   4.338  11.906  0.00  0.00    +0.000 A 
ATOM      9 CL   UNL     1      43.863   4.457  13.571  0.00  0.00    +0.000 Cl
BRANCH   4  10
ATOM     10  N   UNL     1      45.303   3.906   7.823  0.00  0.00    +0.000 N 
ATOM     11  H   UNL     1      44.581   3.980   7.114  0.00  0.00    +0.000 HD
BRANCH  10  12
ATOM     12  C   UNL     1      46.578   3.326   7.415  0.00  0.00    +0.000 C 
ATOM     13  C   UNL     1      46.802   3.403   5.901  0.00  0.00    +0.000 C 
ATOM     14  C   UNL     1      47.651   2.189   5.541  0.00  0.00    +0.000 C 
ATOM     15  C   UNL     1      47.657   1.258   6.749  0.00  0.00    +0.000 C 
ATOM     16  C   UNL     1      46.669   1.832   7.757  0.00  0.00    +0.000 C 
ENDBRANCH  10  12
ENDBRANCH   4  10
ENDBRANCH   1   2
BRANCH   1  17
ATOM     17  C   UNL     1      45.088   7.680  11.903  0.00  0.00    +0.000 C 
BRANCH  17  18
ATOM     18  N   UNL     1      46.042   8.782  11.904  0.00  0.00    +0.000 N 
ATOM     19  H   UNL     1      46.052   9.385  11.088  0.00  0.00    +0.000 HD
BRANCH  18  23
ATOM     20  C   UNL     1      49.462   7.963  14.022  0.00  0.00    +0.000 A 
ATOM     21  C   UNL     1      49.461   7.932  12.633  0.00  0.00    +0.000 A 
ATOM     22  N   UNL     1      48.366   8.257  11.885  0.00  0.00    +0.000 NA
ATOM     23  C   UNL     1      47.255   8.617  12.563  0.00  0.00    +0.000 A 
ATOM     24  C   UNL     1      47.285   8.653  13.964  0.00  0.00    +0.000 A 
ATOM     25  N   UNL     1      48.365   8.340  14.732  0.00  0.00    +0.000 NA
BRANCH  20  27
ATOM     26  N   UNL     1      51.894   7.788  14.299  0.00  0.00    +0.000 N 
ATOM     27  C   UNL     1      50.651   7.542  14.805  0.00  0.00    +0.000 C 
ATOM     28  O   UNL     1      50.537   6.997  15.917  0.00  0.00    +0.000 OA
ATOM     29  H   UNL     1      52.677   7.583  14.906  0.00  0.00    +0.000 HD
ATOM     30  H   UNL     1      52.036   8.422  13.520  0.00  0.00    +0.000 HD
ENDBRANCH  20  27
ENDBRANCH  18  23
ENDBRANCH  17  18
ENDBRANCH   1  17
TORSDOF 7
ENDMDL
MODEL 9
REMARK VINA RESULT:    -6.310      4.355      6.032
REMARK INTER + INTRA:          -9.638
REMARK INTER:                  -8.488
REMARK INTRA:                  -1.150
REMARK UNBOUND:                -0.746
REMARK  Name = 
REMARK  7 active torsions:
REMARK  status: ('A' for Active; 'I' for Inactive)
REMARK    1  A    between atoms: C_2  and  C_4
REMARK    2  A    between atoms: C_7  and  N_8
REMARK    3  A    between atoms: N_8  and  C_9
REMARK    4  A    between atoms: C_9  and  C_10
REMARK    5  A    between atoms: C_10  and  C_11
REMARK    6  A    between atoms: C_13  and  N_14
REMARK    7  A    between atoms: N_14  and  C_15
REMARK                            x       y       z     vdW  Elec       q    Type
REMARK                         _______ _______ _______ _____ _____    ______ ____
ROOT
ATOM      1  C   UNL     1      49.140   8.236  15.288  0.00  0.00    +0.000 C 
ENDROOT
BRANCH   1   2
ATOM      2  C   UNL     1      48.823   7.552  16.595  0.00  0.00    +0.000 A 
ATOM      3  C   UNL     1      49.069   6.161  16.718  0.00  0.00    +0.000 A 
ATOM      4  C   UNL     1      48.800   5.461  17.904  0.00  0.00    +0.000 A 
ATOM      5  C   UNL     1      48.276   6.197  18.972  0.00  0.00    +0.000 A 
ATOM      6  C   UNL     1      48.013   7.560  18.860  0.00  0.00    +0.000 A 
ATOM      7  F   UNL     1      47.513   8.192  19.935  0.00  0.00    +0.000 F 
ATOM      8  C   UNL     1      48.275   8.245  17.684  0.00  0.00    +0.000 A 
ATOM      9 CL   UNL     1      47.904   9.929  17.619  0.00  0.00    +0.000 Cl
BRANCH   4  10
ATOM     10  N   UNL     1      49.165   4.125  17.997  0.00  0.00    +0.000 N 
ATOM     11  H   UNL     1      48.672   3.563  18.683  0.00  0.00    +0.000 HD
BRANCH  10  12
ATOM     12  C   UNL     1      50.394   3.570  17.441  0.00  0.00    +0.000 C 
ATOM     13  C   UNL     1      50.323   2.050  17.262  0.00  0.00    +0.000 C 
ATOM     14  C   UNL     1      51.749   1.540  17.444  0.00  0.00    +0.000 C 
ATOM     15  C   UNL     1      52.574   2.684  18.027  0.00  0.00    +0.000 C 
ATOM     16  C   UNL     1      51.602   3.810  18.357  0.00  0.00    +0.000 C 
ENDBRANCH  10  12
ENDBRANCH   4  10
ENDBRANCH   1   2
BRANCH   1  17
ATOM     17  C   UNL     1      49.568   7.241  14.201  0.00  0.00    +0.000 C 
BRANCH  17  18
ATOM     18  N   UNL     1      48.579   7.245  13.130  0.00  0.00    +0.000 N 
ATOM     19  H   UNL     1      48.480   8.103  12.598  0.00  0.00    +0.000 HD
BRANCH  18  23
ATOM     20  C   UNL     1      45.137   5.008  13.160  0.00  0.00    +0.000 A 
ATOM     21  C   UNL     1      46.360   4.438  13.492  0.00  0.00    +0.000 A 
ATOM     22  N   UNL     1      47.520   5.155  13.557  0.00  0.00    +0.000 NA
ATOM     23  C   UNL     1      47.433   6.472  13.275  0.00  0.00    +0.000 A 
ATOM     24  C   UNL     1      46.186   7.027  12.955  0.00  0.00    +0.000 A 
ATOM     25  N   UNL     1      45.015   6.335  12.891  0.00  0.00    +0.000 NA
BRANCH  20  27
ATOM     26  N   UNL     1      44.026   2.869  12.703  0.00  0.00    +0.000 N 
ATOM     27  C   UNL     1      43.907   4.186  13.037  0.00  0.00    +0.000 C 
ATOM     28  O   UNL     1      42.781   4.665  13.257  0.00  0.00    +0.000 OA
ATOM     29  H   UNL     1      43.178   2.318  12.732  0.00  0.00    +0.000 HD
ATOM     30  H   UNL     1      44.918   2.389  12.738  0.00  0.00    +0.000 HD
ENDBRANCH  20  27
ENDBRANCH  18  23
ENDBRANCH  17  18
ENDBRANCH   1  17
TORSDOF 7
ENDMDL
