MODEL 1
REMARK VINA RESULT:    -8.714      0.000      0.000
REMARK INTER + INTRA:         -13.485
REMARK INTER:                 -12.280
REMARK INTRA:                  -1.205
REMARK UNBOUND:                -1.205
REMARK  Name = 
REMARK  7 active torsions:
REMARK  status: ('A' for Active; 'I' for Inactive)
REMARK    1  A    between atoms: C_2  and  C_4
REMARK    2  A    between atoms: C_8  and  N_9
REMARK    3  A    between atoms: N_9  and  C_10
REMARK    4  A    between atoms: C_10  and  C_11
REMARK    5  A    between atoms: C_14  and  C_15
REMARK    6  A    between atoms: C_15  and  N_16
REMARK    7  A    between atoms: C_17  and  C_19
REMARK                            x       y       z     vdW  Elec       q    Type
REMARK                         _______ _______ _______ _____ _____    ______ ____
ROOT
ATOM      1  C   UNL     1      44.562   5.589  11.242  0.00  0.00    +0.000 A 
ATOM      2  C   UNL     1      45.722   5.024  11.792  0.00  0.00    +0.000 A 
ATOM      3  C   UNL     1      46.654   5.815  12.476  0.00  0.00    +0.000 A 
ATOM      4  C   UNL     1      46.431   7.187  12.650  0.00  0.00    +0.000 A 
ATOM      5  C   UNL     1      45.281   7.754  12.079  0.00  0.00    +0.000 A 
ATOM      6  C   UNL     1      44.351   6.964  11.392  0.00  0.00    +0.000 A 
ENDROOT
BRANCH   1   7
ATOM      7  C   UNL     1      43.606   4.728  10.452  0.00  0.00    +0.000 C 
BRANCH   7   8
ATOM      8  N   UNL     1      43.978   4.641   9.039  0.00  0.00    +0.000 N 
ATOM      9  H   UNL     1      44.351   5.521   8.685  0.00  0.00    +0.000 HD
BRANCH   8  14
ATOM     10  C   UNL     1      46.430   2.557   7.162  0.00  0.00    +0.000 A 
ATOM     11  C   UNL     1      46.314   1.323   7.809  0.00  0.00    +0.000 A 
ATOM     12  C   UNL     1      45.403   1.180   8.847  0.00  0.00    +0.000 A 
ATOM     13  C   UNL     1      44.635   2.273   9.253  0.00  0.00    +0.000 A 
ATOM     14  C   UNL     1      44.773   3.541   8.661  0.00  0.00    +0.000 A 
ATOM     15  C   UNL     1      45.653   3.654   7.576  0.00  0.00    +0.000 A 
BRANCH  10  17
ATOM     16  N   UNL     1      48.738   2.528   6.390  0.00  0.00    +0.000 N 
ATOM     17  C   UNL     1      47.426   2.748   6.074  0.00  0.00    +0.000 C 
ATOM     18  O   UNL     1      47.086   3.066   4.949  0.00  0.00    +0.000 OA
ATOM     19  H   UNL     1      49.408   2.612   5.631  0.00  0.00    +0.000 HD
ATOM     20  H   UNL     1      49.033   2.044   7.225  0.00  0.00    +0.000 HD
ENDBRANCH  10  17
ENDBRANCH   8  14
ENDBRANCH   7   8
ENDBRANCH   1   7
BRANCH   4  21
ATOM     21  C   UNL     1      47.395   8.053  13.430  0.00  0.00    +0.000 C 
BRANCH  21  22
ATOM     22  N   UNL     1      47.745   7.463  14.694  0.00  0.00    +0.000 N 
ATOM     23  C   UNL     1      49.013   7.012  14.965  0.00  0.00    +0.000 C 
ATOM     24  O   UNL     1      49.937   7.107  14.163  0.00  0.00    +0.000 OA
ATOM     25  H   UNL     1      46.976   7.072  15.228  0.00  0.00    +0.000 HD
BRANCH  23  26
ATOM     26  C   UNL     1      49.212   6.462  16.311  0.00  0.00    +0.000 A 
ATOM     27  C   UNL     1      49.960   7.157  17.254  0.00  0.00    +0.000 A 
ATOM     28  S   UNL     1      50.030   6.380  18.773  0.00  0.00    +0.000 S 
ATOM     29  C   UNL     1      49.108   5.066  18.208  0.00  0.00    +0.000 A 
ATOM     30  N   UNL     1      48.819   4.009  19.013  0.00  0.00    +0.000 NA
ATOM     31  C   UNL     1      48.134   3.074  18.444  0.00  0.00    +0.000 A 
ATOM     32  N   UNL     1      47.704   3.101  17.143  0.00  0.00    +0.000 N 
ATOM     33  C   UNL     1      47.931   4.166  16.309  0.00  0.00    +0.000 A 
ATOM     34  O   UNL     1      47.466   4.191  15.174  0.00  0.00    +0.000 OA
ATOM     35  C   UNL     1      48.726   5.232  16.890  0.00  0.00    +0.000 A 
ATOM     36  H   UNL     1      47.153   2.349  16.760  0.00  0.00    +0.000 HD
ENDBRANCH  23  26
ENDBRANCH  21  22
ENDBRANCH   4  21
TORSDOF 7
ENDMDL
MODEL 2
REMARK VINA RESULT:    -8.576      1.285      1.448
REMARK INTER + INTRA:         -13.290
REMARK INTER:                 -12.197
REMARK INTRA:                  -1.093
REMARK UNBOUND:                -1.205
REMARK  Name = 
REMARK  7 active torsions:
REMARK  status: ('A' for Active; 'I' for Inactive)
REMARK    1  A    between atoms: C_2  and  C_4
REMARK    2  A    between atoms: C_8  and  N_9
REMARK    3  A    between atoms: N_9  and  C_10
REMARK    4  A    between atoms: C_10  and  C_11
REMARK    5  A    between atoms: C_14  and  C_15
REMARK    6  A    between atoms: C_15  and  N_16
REMARK    7  A    between atoms: C_17  and  C_19
REMARK                            x       y       z     vdW  Elec       q    Type
REMARK                         _______ _______ _______ _____ _____    ______ ____
ROOT
ATOM      1  C   UNL     1      44.969   5.280  11.341  0.00  0.00    +0.000 A 
ATOM      2  C   UNL     1      45.314   4.743  12.591  0.00  0.00    +0.000 A 
ATOM      3  C   UNL     1      46.455   5.181  13.273  0.00  0.00    +0.000 A 
ATOM      4  C   UNL     1      47.264   6.190  12.734  0.00  0.00    +0.000 A 
ATOM      5  C   UNL     1      46.930   6.710  11.473  0.00  0.00    +0.000 A 
ATOM      6  C   UNL     1      45.791   6.270  10.789  0.00  0.00    +0.000 A 
ENDROOT
BRANCH   1   7
ATOM      7  C   UNL     1      43.772   4.745  10.594  0.00  0.00    +0.000 C 
BRANCH   7   8
ATOM      8  N   UNL     1      44.021   4.635   9.157  0.00  0.00    +0.000 N 
ATOM      9  H   UNL     1      44.356   5.510   8.756  0.00  0.00    +0.000 HD
BRANCH   8  14
ATOM     10  C   UNL     1      46.405   2.566   7.178  0.00  0.00    +0.000 A 
ATOM     11  C   UNL     1      46.270   1.313   7.783  0.00  0.00    +0.000 A 
ATOM     12  C   UNL     1      45.368   1.153   8.827  0.00  0.00    +0.000 A 
ATOM     13  C   UNL     1      44.629   2.247   9.280  0.00  0.00    +0.000 A 
ATOM     14  C   UNL     1      44.787   3.532   8.731  0.00  0.00    +0.000 A 
ATOM     15  C   UNL     1      45.657   3.663   7.640  0.00  0.00    +0.000 A 
BRANCH  10  17
ATOM     16  N   UNL     1      48.708   2.563   6.391  0.00  0.00    +0.000 N 
ATOM     17  C   UNL     1      47.392   2.774   6.085  0.00  0.00    +0.000 C 
ATOM     18  O   UNL     1      47.042   3.096   4.964  0.00  0.00    +0.000 OA
ATOM     19  H   UNL     1      49.373   2.659   5.628  0.00  0.00    +0.000 HD
ATOM     20  H   UNL     1      49.013   2.077   7.220  0.00  0.00    +0.000 HD
ENDBRANCH  10  17
ENDBRANCH   8  14
ENDBRANCH   7   8
ENDBRANCH   1   7
BRANCH   4  21
ATOM     21  C   UNL     1      48.472   6.718  13.475  0.00  0.00    +0.000 C 
BRANCH  21  22
ATOM     22  N   UNL     1      48.257   6.750  14.897  0.00  0.00    +0.000 N 
ATOM     23  C   UNL     1      49.289   6.902  15.790  0.00  0.00    +0.000 C 
ATOM     24  O   UNL     1      50.455   7.048  15.438  0.00  0.00    +0.000 OA
ATOM     25  H   UNL     1      47.403   6.312  15.226  0.00  0.00    +0.000 HD
BRANCH  23  26
ATOM     26  C   UNL     1      48.897   6.943  17.204  0.00  0.00    +0.000 A 
ATOM     27  C   UNL     1      48.477   8.132  17.785  0.00  0.00    +0.000 A 
ATOM     28  S   UNL     1      48.014   7.964  19.420  0.00  0.00    +0.000 S 
ATOM     29  C   UNL     1      48.408   6.308  19.421  0.00  0.00    +0.000 A 
ATOM     30  N   UNL     1      48.275   5.552  20.543  0.00  0.00    +0.000 NA
ATOM     31  C   UNL     1      48.635   4.320  20.404  0.00  0.00    +0.000 A 
ATOM     32  N   UNL     1      49.111   3.771  19.241  0.00  0.00    +0.000 N 
ATOM     33  C   UNL     1      49.218   4.483  18.075  0.00  0.00    +0.000 A 
ATOM     34  O   UNL     1      49.575   3.942  17.034  0.00  0.00    +0.000 OA
ATOM     35  C   UNL     1      48.856   5.883  18.184  0.00  0.00    +0.000 A 
ATOM     36  H   UNL     1      49.357   2.794  19.188  0.00  0.00    +0.000 HD
ENDBRANCH  23  26
ENDBRANCH  21  22
ENDBRANCH   4  21
TORSDOF 7
ENDMDL
MODEL 3
REMARK VINA RESULT:    -8.382      1.813      2.293
REMARK INTER + INTRA:         -13.017
REMARK INTER:                 -11.887
REMARK INTRA:                  -1.130
REMARK UNBOUND:                -1.205
REMARK  Name = 
REMARK  7 active torsions:
REMARK  status: ('A' for Active; 'I' for Inactive)
REMARK    1  A    between atoms: C_2  and  C_4
REMARK    2  A    between atoms: C_8  and  N_9
REMARK    3  A    between atoms: N_9  and  C_10
REMARK    4  A    between atoms: C_10  and  C_11
REMARK    5  A    between atoms: C_14  and  C_15
REMARK    6  A    between atoms: C_15  and  N_16
REMARK    7  A    between atoms: C_17  and  C_19
REMARK                            x       y       z     vdW  Elec       q    Type
REMARK                         _______ _______ _______ _____ _____    ______ ____
ROOT
ATOM      1  C   UNL     1      44.814   5.238  11.351  0.00  0.00    +0.000 A 
ATOM      2  C   UNL     1      45.335   4.462  12.397  0.00  0.00    +0.000 A 
ATOM      3  C   UNL     1      46.433   4.905  13.145  0.00  0.00    +0.000 A 
ATOM      4  C   UNL     1      47.019   6.151  12.880  0.00  0.00    +0.000 A 
ATOM      5  C   UNL     1      46.510   6.915  11.818  0.00  0.00    +0.000 A 
ATOM      6  C   UNL     1      45.414   6.471  11.069  0.00  0.00    +0.000 A 
ENDROOT
BRANCH   1   7
ATOM      7  C   UNL     1      43.672   4.710  10.517  0.00  0.00    +0.000 C 
BRANCH   7   8
ATOM      8  N   UNL     1      44.017   4.628   9.097  0.00  0.00    +0.000 N 
ATOM      9  H   UNL     1      44.388   5.507   8.740  0.00  0.00    +0.000 HD
BRANCH   8  14
ATOM     10  C   UNL     1      46.439   2.546   7.181  0.00  0.00    +0.000 A 
ATOM     11  C   UNL     1      46.309   1.303   7.805  0.00  0.00    +0.000 A 
ATOM     12  C   UNL     1      45.396   1.152   8.841  0.00  0.00    +0.000 A 
ATOM     13  C   UNL     1      44.643   2.248   9.268  0.00  0.00    +0.000 A 
ATOM     14  C   UNL     1      44.796   3.524   8.699  0.00  0.00    +0.000 A 
ATOM     15  C   UNL     1      45.677   3.645   7.615  0.00  0.00    +0.000 A 
BRANCH  10  17
ATOM     16  N   UNL     1      48.751   2.547   6.418  0.00  0.00    +0.000 N 
ATOM     17  C   UNL     1      47.437   2.744   6.094  0.00  0.00    +0.000 C 
ATOM     18  O   UNL     1      47.097   3.046   4.966  0.00  0.00    +0.000 OA
ATOM     19  H   UNL     1      49.423   2.636   5.661  0.00  0.00    +0.000 HD
ATOM     20  H   UNL     1      49.050   2.076   7.258  0.00  0.00    +0.000 HD
ENDBRANCH  10  17
ENDBRANCH   8  14
ENDBRANCH   7   8
ENDBRANCH   1   7
BRANCH   4  21
ATOM     21  C   UNL     1      48.172   6.675  13.707  0.00  0.00    +0.000 C 
BRANCH  21  22
ATOM     22  N   UNL     1      48.078   6.262  15.081  0.00  0.00    +0.000 N 
ATOM     23  C   UNL     1      49.096   6.470  15.979  0.00  0.00    +0.000 C 
ATOM     24  O   UNL     1      50.138   7.044  15.680  0.00  0.00    +0.000 OA
ATOM     25  H   UNL     1      47.415   5.519  15.276  0.00  0.00    +0.000 HD
BRANCH  23  26
ATOM     26  C   UNL     1      48.830   6.015  17.349  0.00  0.00    +0.000 A 
ATOM     27  C   UNL     1      49.060   4.694  17.711  0.00  0.00    +0.000 A 
ATOM     28  S   UNL     1      48.743   4.375  19.358  0.00  0.00    +0.000 S 
ATOM     29  C   UNL     1      48.240   5.978  19.631  0.00  0.00    +0.000 A 
ATOM     30  N   UNL     1      47.799   6.380  20.853  0.00  0.00    +0.000 NA
ATOM     31  C   UNL     1      47.426   7.615  20.907  0.00  0.00    +0.000 A 
ATOM     32  N   UNL     1      47.459   8.489  19.851  0.00  0.00    +0.000 N 
ATOM     33  C   UNL     1      47.939   8.140  18.614  0.00  0.00    +0.000 A 
ATOM     34  O   UNL     1      48.025   8.967  17.713  0.00  0.00    +0.000 OA
ATOM     35  C   UNL     1      48.342   6.752  18.490  0.00  0.00    +0.000 A 
ATOM     36  H   UNL     1      47.173   9.450  19.960  0.00  0.00    +0.000 HD
ENDBRANCH  23  26
ENDBRANCH  21  22
ENDBRANCH   4  21
TORSDOF 7
ENDMDL
MODEL 4
REMARK VINA RESULT:    -7.766      2.878      8.496
REMARK INTER + INTRA:         -12.149
REMARK INTER:                 -10.506
REMARK INTRA:                  -1.643
REMARK UNBOUND:                -1.205
REMARK  Name = 
REMARK  7 active torsions:
REMARK  status: ('A' for Active; 'I' for Inactive)
REMARK    1  A    between atoms: C_2  and  C_4
REMARK    2  A    between atoms: C_8  and  N_9
REMARK    3  A    between atoms: N_9  and  C_10
REMARK    4  A    between atoms: C_10  and  C_11
REMARK    5  A    between atoms: C_14  and  C_15
REMARK    6  A    between atoms: C_15  and  N_16
REMARK    7  A    between atoms: C_17  and  C_19
REMARK                            x       y       z     vdW  Elec       q    Type
REMARK                         _______ _______ _______ _____ _____    ______ ____
ROOT
ATOM      1  C   UNL     1      49.724   8.318  15.706  0.00  0.00    +0.000 A 
ATOM      2  C   UNL     1      48.444   8.843  15.472  0.00  0.00    +0.000 A 
ATOM      3  C   UNL     1      47.844   8.742  14.211  0.00  0.00    +0.000 A 
ATOM      4  C   UNL     1      48.500   8.086  13.161  0.00  0.00    +0.000 A 
ATOM      5  C   UNL     1      49.790   7.581  13.391  0.00  0.00    +0.000 A 
ATOM      6  C   UNL     1      50.391   7.685  14.652  0.00  0.00    +0.000 A 
ENDROOT
BRANCH   1   7
ATOM      7  C   UNL     1      50.377   8.498  17.055  0.00  0.00    +0.000 C 
BRANCH   7   8
ATOM      8  N   UNL     1      49.764   7.656  18.083  0.00  0.00    +0.000 N 
ATOM      9  H   UNL     1      48.850   8.004  18.370  0.00  0.00    +0.000 HD
BRANCH   8  14
ATOM     10  C   UNL     1      48.507   4.250  17.250  0.00  0.00    +0.000 A 
ATOM     11  C   UNL     1      49.651   3.468  17.432  0.00  0.00    +0.000 A 
ATOM     12  C   UNL     1      50.829   4.070  17.857  0.00  0.00    +0.000 A 
ATOM     13  C   UNL     1      50.866   5.449  18.070  0.00  0.00    +0.000 A 
ATOM     14  C   UNL     1      49.748   6.269  17.838  0.00  0.00    +0.000 A 
ATOM     15  C   UNL     1      48.552   5.639  17.467  0.00  0.00    +0.000 A 
BRANCH  10  17
ATOM     16  N   UNL     1      46.905   3.882  15.454  0.00  0.00    +0.000 N 
ATOM     17  C   UNL     1      47.245   3.637  16.757  0.00  0.00    +0.000 C 
ATOM     18  O   UNL     1      46.557   2.933  17.473  0.00  0.00    +0.000 OA
ATOM     19  H   UNL     1      46.068   3.421  15.109  0.00  0.00    +0.000 HD
ATOM     20  H   UNL     1      47.550   4.253  14.774  0.00  0.00    +0.000 HD
ENDBRANCH  10  17
ENDBRANCH   8  14
ENDBRANCH   7   8
ENDBRANCH   1   7
BRANCH   4  21
ATOM     21  C   UNL     1      47.852   7.916  11.805  0.00  0.00    +0.000 C 
BRANCH  21  22
ATOM     22  N   UNL     1      47.069   6.712  11.731  0.00  0.00    +0.000 N 
ATOM     23  C   UNL     1      45.697   6.726  11.789  0.00  0.00    +0.000 C 
ATOM     24  O   UNL     1      45.047   7.763  11.878  0.00  0.00    +0.000 OA
ATOM     25  H   UNL     1      47.548   5.856  11.990  0.00  0.00    +0.000 HD
BRANCH  23  26
ATOM     26  C   UNL     1      45.048   5.415  11.671  0.00  0.00    +0.000 A 
ATOM     27  C   UNL     1      44.360   4.869  12.747  0.00  0.00    +0.000 A 
ATOM     28  S   UNL     1      43.630   3.366  12.396  0.00  0.00    +0.000 S 
ATOM     29  C   UNL     1      44.251   3.370  10.811  0.00  0.00    +0.000 A 
ATOM     30  N   UNL     1      44.020   2.334   9.960  0.00  0.00    +0.000 NA
ATOM     31  C   UNL     1      44.573   2.462   8.800  0.00  0.00    +0.000 A 
ATOM     32  N   UNL     1      45.331   3.535   8.408  0.00  0.00    +0.000 N 
ATOM     33  C   UNL     1      45.550   4.622   9.216  0.00  0.00    +0.000 A 
ATOM     34  O   UNL     1      46.168   5.599   8.806  0.00  0.00    +0.000 OA
ATOM     35  C   UNL     1      44.977   4.516  10.544  0.00  0.00    +0.000 A 
ATOM     36  H   UNL     1      45.720   3.588   7.480  0.00  0.00    +0.000 HD
ENDBRANCH  23  26
ENDBRANCH  21  22
ENDBRANCH   4  21
TORSDOF 7
ENDMDL
MODEL 5
REMARK VINA RESULT:    -7.657      2.156      3.373
REMARK INTER + INTRA:         -11.996
REMARK INTER:                 -11.024
REMARK INTRA:                  -0.973
REMARK UNBOUND:                -1.205
REMARK  Name = 
REMARK  7 active torsions:
REMARK  status: ('A' for Active; 'I' for Inactive)
REMARK    1  A    between atoms: C_2  and  C_4
REMARK    2  A    between atoms: C_8  and  N_9
REMARK    3  A    between atoms: N_9  and  C_10
REMARK    4  A    between atoms: C_10  and  C_11
REMARK    5  A    between atoms: C_14  and  C_15
REMARK    6  A    between atoms: C_15  and  N_16
REMARK    7  A    between atoms: C_17  and  C_19
REMARK                            x       y       z     vdW  Elec       q    Type
REMARK                         _______ _______ _______ _____ _____    ______ ____
ROOT
ATOM      1  C   UNL     1      46.111   5.647  11.745  0.00  0.00    +0.000 A 
ATOM      2  C   UNL     1      47.265   6.187  12.332  0.00  0.00    +0.000 A 
ATOM      3  C   UNL     1      47.668   5.799  13.616  0.00  0.00    +0.000 A 
ATOM      4  C   UNL     1      46.940   4.840  14.332  0.00  0.00    +0.000 A 
ATOM      5  C   UNL     1      45.773   4.319  13.752  0.00  0.00    +0.000 A 
ATOM      6  C   UNL     1      45.368   4.708  12.469  0.00  0.00    +0.000 A 
ENDROOT
BRANCH   1   7
ATOM      7  C   UNL     1      45.660   6.129  10.387  0.00  0.00    +0.000 C 
BRANCH   7   8
ATOM      8  N   UNL     1      44.597   5.292   9.828  0.00  0.00    +0.000 N 
ATOM      9  H   UNL     1      44.000   5.808   9.184  0.00  0.00    +0.000 HD
BRANCH   8  14
ATOM     10  C   UNL     1      46.275   2.751   7.682  0.00  0.00    +0.000 A 
ATOM     11  C   UNL     1      45.718   1.560   8.155  0.00  0.00    +0.000 A 
ATOM     12  C   UNL     1      44.766   1.607   9.166  0.00  0.00    +0.000 A 
ATOM     13  C   UNL     1      44.399   2.835   9.718  0.00  0.00    +0.000 A 
ATOM     14  C   UNL     1      44.986   4.044   9.303  0.00  0.00    +0.000 A 
ATOM     15  C   UNL     1      45.899   3.985   8.242  0.00  0.00    +0.000 A 
BRANCH  10  17
ATOM     16  N   UNL     1      46.980   3.225   5.401  0.00  0.00    +0.000 N 
ATOM     17  C   UNL     1      47.324   2.727   6.627  0.00  0.00    +0.000 C 
ATOM     18  O   UNL     1      48.443   2.303   6.852  0.00  0.00    +0.000 OA
ATOM     19  H   UNL     1      47.715   3.251   4.699  0.00  0.00    +0.000 HD
ATOM     20  H   UNL     1      46.160   3.791   5.242  0.00  0.00    +0.000 HD
ENDBRANCH  10  17
ENDBRANCH   8  14
ENDBRANCH   7   8
ENDBRANCH   1   7
BRANCH   4  21
ATOM     21  C   UNL     1      47.383   4.366  15.698  0.00  0.00    +0.000 C 
BRANCH  21  22
ATOM     22  N   UNL     1      47.554   5.461  16.616  0.00  0.00    +0.000 N 
ATOM     23  C   UNL     1      48.790   5.844  17.075  0.00  0.00    +0.000 C 
ATOM     24  O   UNL     1      49.830   5.302  16.714  0.00  0.00    +0.000 OA
ATOM     25  H   UNL     1      46.742   5.700  17.175  0.00  0.00    +0.000 HD
BRANCH  23  26
ATOM     26  C   UNL     1      48.795   6.997  17.984  0.00  0.00    +0.000 A 
ATOM     27  C   UNL     1      49.035   6.825  19.341  0.00  0.00    +0.000 A 
ATOM     28  S   UNL     1      49.053   8.289  20.220  0.00  0.00    +0.000 S 
ATOM     29  C   UNL     1      48.690   9.196  18.826  0.00  0.00    +0.000 A 
ATOM     30  N   UNL     1      48.531  10.545  18.885  0.00  0.00    +0.000 NA
ATOM     31  C   UNL     1      48.234  11.098  17.757  0.00  0.00    +0.000 A 
ATOM     32  N   UNL     1      48.086  10.426  16.571  0.00  0.00    +0.000 N 
ATOM     33  C   UNL     1      48.282   9.074  16.456  0.00  0.00    +0.000 A 
ATOM     34  O   UNL     1      48.217   8.516  15.366  0.00  0.00    +0.000 OA
ATOM     35  C   UNL     1      48.587   8.398  17.702  0.00  0.00    +0.000 A 
ATOM     36  H   UNL     1      47.873  10.917  15.716  0.00  0.00    +0.000 HD
ENDBRANCH  23  26
ENDBRANCH  21  22
ENDBRANCH   4  21
TORSDOF 7
ENDMDL
MODEL 6
REMARK VINA RESULT:    -7.475      3.303      9.057
REMARK INTER + INTRA:         -11.739
REMARK INTER:                 -10.575
REMARK INTRA:                  -1.164
REMARK UNBOUND:                -1.205
REMARK  Name = 
REMARK  7 active torsions:
REMARK  status: ('A' for Active; 'I' for Inactive)
REMARK    1  A    between atoms: C_2  and  C_4
REMARK    2  A    between atoms: C_8  and  N_9
REMARK    3  A    between atoms: N_9  and  C_10
REMARK    4  A    between atoms: C_10  and  C_11
REMARK    5  A    between atoms: C_14  and  C_15
REMARK    6  A    between atoms: C_15  and  N_16
REMARK    7  A    between atoms: C_17  and  C_19
REMARK                            x       y       z     vdW  Elec       q    Type
REMARK                         _______ _______ _______ _____ _____    ______ ____
ROOT
ATOM      1  C   UNL     1      50.605   7.474  15.163  0.00  0.00    +0.000 A 
ATOM      2  C   UNL     1      50.947   8.138  13.976  0.00  0.00    +0.000 A 
ATOM      3  C   UNL     1      50.051   8.201  12.902  0.00  0.00    +0.000 A 
ATOM      4  C   UNL     1      48.778   7.623  13.002  0.00  0.00    +0.000 A 
ATOM      5  C   UNL     1      48.447   6.940  14.183  0.00  0.00    +0.000 A 
ATOM      6  C   UNL     1      49.344   6.875  15.256  0.00  0.00    +0.000 A 
ENDROOT
BRANCH   1   7
ATOM      7  C   UNL     1      51.613   7.362  16.282  0.00  0.00    +0.000 C 
BRANCH   7   8
ATOM      8  N   UNL     1      51.072   6.656  17.444  0.00  0.00    +0.000 N 
ATOM      9  H   UNL     1      50.056   6.584  17.412  0.00  0.00    +0.000 HD
BRANCH   8  14
ATOM     10  C   UNL     1      51.637   2.987  17.754  0.00  0.00    +0.000 A 
ATOM     11  C   UNL     1      52.812   2.939  18.510  0.00  0.00    +0.000 A 
ATOM     12  C   UNL     1      53.397   4.124  18.937  0.00  0.00    +0.000 A 
ATOM     13  C   UNL     1      52.825   5.348  18.585  0.00  0.00    +0.000 A 
ATOM     14  C   UNL     1      51.678   5.428  17.776  0.00  0.00    +0.000 A 
ATOM     15  C   UNL     1      51.066   4.223  17.404  0.00  0.00    +0.000 A 
BRANCH  10  17
ATOM     16  N   UNL     1      51.447   0.561  17.801  0.00  0.00    +0.000 N 
ATOM     17  C   UNL     1      51.012   1.734  17.250  0.00  0.00    +0.000 C 
ATOM     18  O   UNL     1      50.138   1.756  16.403  0.00  0.00    +0.000 OA
ATOM     19  H   UNL     1      50.982  -0.288  17.489  0.00  0.00    +0.000 HD
ATOM     20  H   UNL     1      51.984   0.514  18.654  0.00  0.00    +0.000 HD
ENDBRANCH  10  17
ENDBRANCH   8  14
ENDBRANCH   7   8
ENDBRANCH   1   7
BRANCH   4  21
ATOM     21  C   UNL     1      47.773   7.723  11.877  0.00  0.00    +0.000 C 
BRANCH  21  22
ATOM     22  N   UNL     1      46.993   6.521  11.746  0.00  0.00    +0.000 N 
ATOM     23  C   UNL     1      45.621   6.540  11.713  0.00  0.00    +0.000 C 
ATOM     24  O   UNL     1      44.969   7.578  11.763  0.00  0.00    +0.000 OA
ATOM     25  H   UNL     1      47.452   5.663  12.032  0.00  0.00    +0.000 HD
BRANCH  23  26
ATOM     26  C   UNL     1      44.977   5.231  11.546  0.00  0.00    +0.000 A 
ATOM     27  C   UNL     1      44.263   4.657  12.590  0.00  0.00    +0.000 A 
ATOM     28  S   UNL     1      43.545   3.163  12.183  0.00  0.00    +0.000 S 
ATOM     29  C   UNL     1      44.206   3.207  10.615  0.00  0.00    +0.000 A 
ATOM     30  N   UNL     1      44.000   2.192   9.734  0.00  0.00    +0.000 NA
ATOM     31  C   UNL     1      44.581   2.349   8.592  0.00  0.00    +0.000 A 
ATOM     32  N   UNL     1      45.347   3.432   8.246  0.00  0.00    +0.000 N 
ATOM     33  C   UNL     1      45.544   4.499   9.085  0.00  0.00    +0.000 A 
ATOM     34  O   UNL     1      46.170   5.486   8.716  0.00  0.00    +0.000 OA
ATOM     35  C   UNL     1      44.937   4.359  10.395  0.00  0.00    +0.000 A 
ATOM     36  H   UNL     1      45.760   3.508   7.329  0.00  0.00    +0.000 HD
ENDBRANCH  23  26
ENDBRANCH  21  22
ENDBRANCH   4  21
TORSDOF 7
ENDMDL
MODEL 7
REMARK VINA RESULT:    -7.439      1.948      2.797
REMARK INTER + INTRA:         -11.688
REMARK INTER:                 -10.287
REMARK INTRA:                  -1.401
REMARK UNBOUND:                -1.205
REMARK  Name = 
REMARK  7 active torsions:
REMARK  status: ('A' for Active; 'I' for Inactive)
REMARK    1  A    between atoms: C_2  and  C_4
REMARK    2  A    between atoms: C_8  and  N_9
REMARK    3  A    between atoms: N_9  and  C_10
REMARK    4  A    between atoms: C_10  and  C_11
REMARK    5  A    between atoms: C_14  and  C_15
REMARK    6  A    between atoms: C_15  and  N_16
REMARK    7  A    between atoms: C_17  and  C_19
REMARK                            x       y       z     vdW  Elec       q    Type
REMARK                         _______ _______ _______ _____ _____    ______ ____
ROOT
ATOM      1  C   UNL     1      45.179   7.985  11.713  0.00  0.00    +0.000 A 
ATOM      2  C   UNL     1      46.271   7.115  11.575  0.00  0.00    +0.000 A 
ATOM      3  C   UNL     1      47.429   7.286  12.343  0.00  0.00    +0.000 A 
ATOM      4  C   UNL     1      47.511   8.316  13.289  0.00  0.00    +0.000 A 
ATOM      5  C   UNL     1      46.426   9.198  13.410  0.00  0.00    +0.000 A 
ATOM      6  C   UNL     1      45.269   9.030  12.639  0.00  0.00    +0.000 A 
ENDROOT
BRANCH   1   7
ATOM      7  C   UNL     1      43.968   7.821  10.827  0.00  0.00    +0.000 C 
BRANCH   7   8
ATOM      8  N   UNL     1      42.977   6.914  11.408  0.00  0.00    +0.000 N 
ATOM      9  H   UNL     1      42.054   7.038  10.995  0.00  0.00    +0.000 HD
BRANCH   8  14
ATOM     10  C   UNL     1      44.013   3.482  10.396  0.00  0.00    +0.000 A 
ATOM     11  C   UNL     1      43.976   2.798  11.615  0.00  0.00    +0.000 A 
ATOM     12  C   UNL     1      43.580   3.472  12.763  0.00  0.00    +0.000 A 
ATOM     13  C   UNL     1      43.253   4.828  12.695  0.00  0.00    +0.000 A 
ATOM     14  C   UNL     1      43.339   5.555  11.495  0.00  0.00    +0.000 A 
ATOM     15  C   UNL     1      43.682   4.847  10.335  0.00  0.00    +0.000 A 
BRANCH  10  17
ATOM     16  N   UNL     1      44.402   3.507   7.994  0.00  0.00    +0.000 N 
ATOM     17  C   UNL     1      44.472   2.794   9.159  0.00  0.00    +0.000 C 
ATOM     18  O   UNL     1      44.908   1.658   9.187  0.00  0.00    +0.000 OA
ATOM     19  H   UNL     1      44.762   3.050   7.160  0.00  0.00    +0.000 HD
ATOM     20  H   UNL     1      44.275   4.507   7.962  0.00  0.00    +0.000 HD
ENDBRANCH  10  17
ENDBRANCH   8  14
ENDBRANCH   7   8
ENDBRANCH   1   7
BRANCH   4  21
ATOM     21  C   UNL     1      48.729   8.490  14.168  0.00  0.00    +0.000 C 
BRANCH  21  22
ATOM     22  N   UNL     1      48.762   7.527  15.237  0.00  0.00    +0.000 N 
ATOM     23  C   UNL     1      49.931   6.953  15.670  0.00  0.00    +0.000 C 
ATOM     24  O   UNL     1      51.027   7.242  15.198  0.00  0.00    +0.000 OA
ATOM     25  H   UNL     1      47.894   7.031  15.412  0.00  0.00    +0.000 HD
BRANCH  23  26
ATOM     26  C   UNL     1      49.796   6.013  16.788  0.00  0.00    +0.000 A 
ATOM     27  C   UNL     1      50.632   6.105  17.893  0.00  0.00    +0.000 A 
ATOM     28  S   UNL     1      50.282   4.958  19.109  0.00  0.00    +0.000 S 
ATOM     29  C   UNL     1      49.036   4.267  18.178  0.00  0.00    +0.000 A 
ATOM     30  N   UNL     1      48.329   3.196  18.629  0.00  0.00    +0.000 NA
ATOM     31  C   UNL     1      47.432   2.763  17.808  0.00  0.00    +0.000 A 
ATOM     32  N   UNL     1      47.171   3.306  16.576  0.00  0.00    +0.000 N 
ATOM     33  C   UNL     1      47.827   4.412  16.100  0.00  0.00    +0.000 A 
ATOM     34  O   UNL     1      47.516   4.918  15.027  0.00  0.00    +0.000 OA
ATOM     35  C   UNL     1      48.868   4.921  16.971  0.00  0.00    +0.000 A 
ATOM     36  H   UNL     1      46.443   2.935  15.986  0.00  0.00    +0.000 HD
ENDBRANCH  23  26
ENDBRANCH  21  22
ENDBRANCH   4  21
TORSDOF 7
ENDMDL
MODEL 8
REMARK VINA RESULT:    -7.398      3.862      8.135
REMARK INTER + INTRA:         -11.631
REMARK INTER:                  -9.966
REMARK INTRA:                  -1.665
REMARK UNBOUND:                -1.205
REMARK  Name = 
REMARK  7 active torsions:
REMARK  status: ('A' for Active; 'I' for Inactive)
REMARK    1  A    between atoms: C_2  and  C_4
REMARK    2  A    between atoms: C_8  and  N_9
REMARK    3  A    between atoms: N_9  and  C_10
REMARK    4  A    between atoms: C_10  and  C_11
REMARK    5  A    between atoms: C_14  and  C_15
REMARK    6  A    between atoms: C_15  and  N_16
REMARK    7  A    between atoms: C_17  and  C_19
REMARK                            x       y       z     vdW  Elec       q    Type
REMARK                         _______ _______ _______ _____ _____    ______ ____
ROOT
ATOM      1  C   UNL     1      49.586   7.658  18.338  0.00  0.00    +0.000 A 
ATOM      2  C   UNL     1      50.137   7.330  17.090  0.00  0.00    +0.000 A 
ATOM      3  C   UNL     1      49.639   7.898  15.911  0.00  0.00    +0.000 A 
ATOM      4  C   UNL     1      48.594   8.831  15.956  0.00  0.00    +0.000 A 
ATOM      5  C   UNL     1      48.030   9.141  17.204  0.00  0.00    +0.000 A 
ATOM      6  C   UNL     1      48.525   8.570  18.382  0.00  0.00    +0.000 A 
ENDROOT
BRANCH   1   7
ATOM      7  C   UNL     1      50.095   6.983  19.589  0.00  0.00    +0.000 C 
BRANCH   7   8
ATOM      8  N   UNL     1      49.208   5.909  20.038  0.00  0.00    +0.000 N 
ATOM      9  H   UNL     1      48.438   6.260  20.606  0.00  0.00    +0.000 HD
BRANCH   8  14
ATOM     10  C   UNL     1      49.250   3.161  17.524  0.00  0.00    +0.000 A 
ATOM     11  C   UNL     1      47.951   3.220  17.010  0.00  0.00    +0.000 A 
ATOM     12  C   UNL     1      47.075   4.190  17.480  0.00  0.00    +0.000 A 
ATOM     13  C   UNL     1      47.489   5.075  18.478  0.00  0.00    +0.000 A 
ATOM     14  C   UNL     1      48.768   5.000  19.056  0.00  0.00    +0.000 A 
ATOM     15  C   UNL     1      49.659   4.055  18.529  0.00  0.00    +0.000 A 
BRANCH  10  17
ATOM     16  N   UNL     1      51.211   1.774  17.921  0.00  0.00    +0.000 N 
ATOM     17  C   UNL     1      50.195   2.107  17.067  0.00  0.00    +0.000 C 
ATOM     18  O   UNL     1      50.058   1.552  15.992  0.00  0.00    +0.000 OA
ATOM     19  H   UNL     1      51.824   1.020  17.624  0.00  0.00    +0.000 HD
ATOM     20  H   UNL     1      51.222   2.032  18.895  0.00  0.00    +0.000 HD
ENDBRANCH  10  17
ENDBRANCH   8  14
ENDBRANCH   7   8
ENDBRANCH   1   7
BRANCH   4  21
ATOM     21  C   UNL     1      48.074   9.498  14.703  0.00  0.00    +0.000 C 
BRANCH  21  22
ATOM     22  N   UNL     1      47.037   8.724  14.073  0.00  0.00    +0.000 N 
ATOM     23  C   UNL     1      47.289   7.890  13.013  0.00  0.00    +0.000 C 
ATOM     24  O   UNL     1      48.413   7.725  12.550  0.00  0.00    +0.000 OA
ATOM     25  H   UNL     1      46.091   9.071  14.193  0.00  0.00    +0.000 HD
BRANCH  23  26
ATOM     26  C   UNL     1      46.128   7.149  12.505  0.00  0.00    +0.000 A 
ATOM     27  C   UNL     1      45.113   7.809  11.823  0.00  0.00    +0.000 A 
ATOM     28  S   UNL     1      43.880   6.768  11.265  0.00  0.00    +0.000 S 
ATOM     29  C   UNL     1      44.634   5.409  11.959  0.00  0.00    +0.000 A 
ATOM     30  N   UNL     1      44.074   4.173  11.876  0.00  0.00    +0.000 NA
ATOM     31  C   UNL     1      44.743   3.241  12.469  0.00  0.00    +0.000 A 
ATOM     32  N   UNL     1      45.927   3.431  13.134  0.00  0.00    +0.000 N 
ATOM     33  C   UNL     1      46.551   4.651  13.204  0.00  0.00    +0.000 A 
ATOM     34  O   UNL     1      47.647   4.770  13.741  0.00  0.00    +0.000 OA
ATOM     35  C   UNL     1      45.824   5.739  12.580  0.00  0.00    +0.000 A 
ATOM     36  H   UNL     1      46.415   2.659  13.561  0.00  0.00    +0.000 HD
ENDBRANCH  23  26
ENDBRANCH  21  22
ENDBRANCH   4  21
TORSDOF 7
ENDMDL
MODEL 9
REMARK VINA RESULT:    -7.271      3.880      5.023
REMARK INTER + INTRA:         -11.451
REMARK INTER:                 -10.484
REMARK INTRA:                  -0.968
REMARK UNBOUND:                -1.205
REMARK  Name = 
REMARK  7 active torsions:
REMARK  status: ('A' for Active; 'I' for Inactive)
REMARK    1  A    between atoms: C_2  and  C_4
REMARK    2  A    between atoms: C_8  and  N_9
REMARK    3  A    between atoms: N_9  and  C_10
REMARK    4  A    between atoms: C_10  and  C_11
REMARK    5  A    between atoms: C_14  and  C_15
REMARK    6  A    between atoms: C_15  and  N_16
REMARK    7  A    between atoms: C_17  and  C_19
REMARK                            x       y       z     vdW  Elec       q    Type
REMARK                         _______ _______ _______ _____ _____    ______ ____
ROOT
ATOM      1  C   UNL     1      44.768   4.280  12.224  0.00  0.00    +0.000 A 
ATOM      2  C   UNL     1      43.730   5.224  12.226  0.00  0.00    +0.000 A 
ATOM      3  C   UNL     1      43.997   6.587  12.401  0.00  0.00    +0.000 A 
ATOM      4  C   UNL     1      45.314   7.042  12.550  0.00  0.00    +0.000 A 
ATOM      5  C   UNL     1      46.348   6.093  12.570  0.00  0.00    +0.000 A 
ATOM      6  C   UNL     1      46.081   4.730  12.398  0.00  0.00    +0.000 A 
ENDROOT
BRANCH   1   7
ATOM      7  C   UNL     1      44.450   2.810  12.100  0.00  0.00    +0.000 C 
BRANCH   7   8
ATOM      8  N   UNL     1      43.861   2.479  10.802  0.00  0.00    +0.000 N 
ATOM      9  H   UNL     1      42.901   2.811  10.719  0.00  0.00    +0.000 HD
BRANCH   8  14
ATOM     10  C   UNL     1      46.290   2.135   7.998  0.00  0.00    +0.000 A 
ATOM     11  C   UNL     1      46.259   3.413   7.432  0.00  0.00    +0.000 A 
ATOM     12  C   UNL     1      45.453   4.391   7.999  0.00  0.00    +0.000 A 
ATOM     13  C   UNL     1      44.663   4.083   9.108  0.00  0.00    +0.000 A 
ATOM     14  C   UNL     1      44.628   2.792   9.662  0.00  0.00    +0.000 A 
ATOM     15  C   UNL     1      45.491   1.832   9.115  0.00  0.00    +0.000 A 
BRANCH  10  17
ATOM     16  N   UNL     1      48.125   1.451   6.553  0.00  0.00    +0.000 N 
ATOM     17  C   UNL     1      47.114   1.058   7.387  0.00  0.00    +0.000 C 
ATOM     18  O   UNL     1      46.911  -0.116   7.634  0.00  0.00    +0.000 OA
ATOM     19  H   UNL     1      48.715   0.713   6.177  0.00  0.00    +0.000 HD
ATOM     20  H   UNL     1      48.471   2.397   6.509  0.00  0.00    +0.000 HD
ENDBRANCH  10  17
ENDBRANCH   8  14
ENDBRANCH   7   8
ENDBRANCH   1   7
BRANCH   4  21
ATOM     21  C   UNL     1      45.633   8.514  12.688  0.00  0.00    +0.000 C 
BRANCH  21  22
ATOM     22  N   UNL     1      46.942   8.829  12.182  0.00  0.00    +0.000 N 
ATOM     23  C   UNL     1      47.371  10.122  12.015  0.00  0.00    +0.000 C 
ATOM     24  O   UNL     1      46.681  11.093  12.311  0.00  0.00    +0.000 OA
ATOM     25  H   UNL     1      47.391   8.103  11.633  0.00  0.00    +0.000 HD
BRANCH  23  26
ATOM     26  C   UNL     1      48.743  10.272  11.517  0.00  0.00    +0.000 A 
ATOM     27  C   UNL     1      49.040  11.212  10.538  0.00  0.00    +0.000 A 
ATOM     28  S   UNL     1      50.697  11.271  10.132  0.00  0.00    +0.000 S 
ATOM     29  C   UNL     1      51.066  10.008  11.213  0.00  0.00    +0.000 A 
ATOM     30  N   UNL     1      52.335   9.535  11.338  0.00  0.00    +0.000 NA
ATOM     31  C   UNL     1      52.462   8.561  12.175  0.00  0.00    +0.000 A 
ATOM     32  N   UNL     1      51.436   8.019  12.906  0.00  0.00    +0.000 N 
ATOM     33  C   UNL     1      50.151   8.495  12.847  0.00  0.00    +0.000 A 
ATOM     34  O   UNL     1      49.274   8.037  13.571  0.00  0.00    +0.000 OA
ATOM     35  C   UNL     1      49.947   9.570  11.896  0.00  0.00    +0.000 A 
ATOM     36  H   UNL     1      51.601   7.270  13.562  0.00  0.00    +0.000 HD
ENDBRANCH  23  26
ENDBRANCH  21  22
ENDBRANCH   4  21
TORSDOF 7
ENDMDL
