MODEL 1
REMARK VINA RESULT:    -8.455      0.000      0.000
REMARK INTER + INTRA:         -12.272
REMARK INTER:                 -11.420
REMARK INTRA:                  -0.852
REMARK UNBOUND:                -0.852
REMARK  Name = 
REMARK  6 active torsions:
REMARK  status: ('A' for Active; 'I' for Inactive)
REMARK    1  A    between atoms: C_2  and  C_4
REMARK    2  A    between atoms: C_7  and  C_8
REMARK    3  A    between atoms: C_8  and  O_9
REMARK    4  A    between atoms: O_9  and  C_10
REMARK    5  A    between atoms: C_14  and  O_15
REMARK    6  A    between atoms: O_15  and  C_16
REMARK                            x       y       z     vdW  Elec       q    Type
REMARK                         _______ _______ _______ _____ _____    ______ ____
ROOT
ATOM      1  O   UNL     1      44.055   4.203  11.747  0.00  0.00    +0.000 OA
ENDROOT
BRANCH   1   2
ATOM      2  C   UNL     1      45.152   4.833  12.287  0.00  0.00    +0.000 A 
ATOM      3  C   UNL     1      45.569   6.119  11.937  0.00  0.00    +0.000 A 
ATOM      4  C   UNL     1      46.717   6.664  12.509  0.00  0.00    +0.000 A 
ATOM      5  C   UNL     1      47.432   5.940  13.463  0.00  0.00    +0.000 A 
ATOM      6  C   UNL     1      46.980   4.689  13.884  0.00  0.00    +0.000 A 
ATOM      7  C   UNL     1      45.852   4.127  13.274  0.00  0.00    +0.000 A 
BRANCH   6   8
ATOM      8  O   UNL     1      47.604   3.946  14.858  0.00  0.00    +0.000 OA
BRANCH   8   9
ATOM      9  C   UNL     1      47.344   4.388  16.203  0.00  0.00    +0.000 C 
ATOM     10  C   UNL     1      48.488   5.226  16.735  0.00  0.00    +0.000 C 
ATOM     11  C   UNL     1      49.382   4.239  17.452  0.00  0.00    +0.000 C 
ATOM     12  O   UNL     1      48.588   3.114  17.827  0.00  0.00    +0.000 OA
ATOM     13  C   UNL     1      47.322   3.197  17.158  0.00  0.00    +0.000 C 
ENDBRANCH   8   9
ENDBRANCH   6   8
ENDBRANCH   1   2
BRANCH   1  14
ATOM     14  C   UNL     1      43.758   4.550  10.388  0.00  0.00    +0.000 C 
BRANCH  14  18
ATOM     15  C   UNL     1      46.461   2.475   7.716  0.00  0.00    +0.000 A 
ATOM     16  C   UNL     1      46.367   3.871   7.668  0.00  0.00    +0.000 A 
ATOM     17  C   UNL     1      45.482   4.545   8.517  0.00  0.00    +0.000 A 
ATOM     18  C   UNL     1      44.669   3.835   9.412  0.00  0.00    +0.000 A 
ATOM     19  C   UNL     1      44.777   2.435   9.459  0.00  0.00    +0.000 A 
ATOM     20  C   UNL     1      45.659   1.760   8.609  0.00  0.00    +0.000 A 
BRANCH  15  22
ATOM     21  N   UNL     1      48.491   2.373   6.368  0.00  0.00    +0.000 N 
ATOM     22  C   UNL     1      47.385   1.716   6.831  0.00  0.00    +0.000 C 
ATOM     23  O   UNL     1      47.193   0.539   6.559  0.00  0.00    +0.000 OA
ATOM     24  H   UNL     1      49.162   1.813   5.858  0.00  0.00    +0.000 HD
ATOM     25  H   UNL     1      48.813   3.243   6.769  0.00  0.00    +0.000 HD
ENDBRANCH  15  22
ENDBRANCH  14  18
ENDBRANCH   1  14
TORSDOF 6
ENDMDL
MODEL 2
REMARK VINA RESULT:    -7.778      2.253      3.670
REMARK INTER + INTRA:         -11.358
REMARK INTER:                 -10.295
REMARK INTRA:                  -1.063
REMARK UNBOUND:                -0.852
REMARK  Name = 
REMARK  6 active torsions:
REMARK  status: ('A' for Active; 'I' for Inactive)
REMARK    1  A    between atoms: C_2  and  C_4
REMARK    2  A    between atoms: C_7  and  C_8
REMARK    3  A    between atoms: C_8  and  O_9
REMARK    4  A    between atoms: O_9  and  C_10
REMARK    5  A    between atoms: C_14  and  O_15
REMARK    6  A    between atoms: O_15  and  C_16
REMARK                            x       y       z     vdW  Elec       q    Type
REMARK                         _______ _______ _______ _____ _____    ______ ____
ROOT
ATOM      1  O   UNL     1      43.836   3.601  11.635  0.00  0.00    +0.000 OA
ENDROOT
BRANCH   1   2
ATOM      2  C   UNL     1      44.929   4.019  12.358  0.00  0.00    +0.000 A 
ATOM      3  C   UNL     1      45.884   3.159  12.903  0.00  0.00    +0.000 A 
ATOM      4  C   UNL     1      46.940   3.670  13.655  0.00  0.00    +0.000 A 
ATOM      5  C   UNL     1      47.067   5.047  13.834  0.00  0.00    +0.000 A 
ATOM      6  C   UNL     1      46.168   5.923  13.225  0.00  0.00    +0.000 A 
ATOM      7  C   UNL     1      45.083   5.403  12.508  0.00  0.00    +0.000 A 
BRANCH   6   8
ATOM      8  O   UNL     1      46.266   7.292  13.313  0.00  0.00    +0.000 OA
BRANCH   8   9
ATOM      9  C   UNL     1      46.556   7.951  12.067  0.00  0.00    +0.000 C 
ATOM     10  C   UNL     1      48.050   8.034  11.827  0.00  0.00    +0.000 C 
ATOM     11  C   UNL     1      48.452   9.377  12.394  0.00  0.00    +0.000 C 
ATOM     12  O   UNL     1      47.300  10.219  12.399  0.00  0.00    +0.000 OA
ATOM     13  C   UNL     1      46.140   9.418  12.133  0.00  0.00    +0.000 C 
ENDBRANCH   8   9
ENDBRANCH   6   8
ENDBRANCH   1   2
BRANCH   1  14
ATOM     14  C   UNL     1      43.668   4.236  10.360  0.00  0.00    +0.000 C 
BRANCH  14  18
ATOM     15  C   UNL     1      46.620   2.748   7.563  0.00  0.00    +0.000 A 
ATOM     16  C   UNL     1      46.391   4.124   7.670  0.00  0.00    +0.000 A 
ATOM     17  C   UNL     1      45.426   4.609   8.559  0.00  0.00    +0.000 A 
ATOM     18  C   UNL     1      44.666   3.727   9.341  0.00  0.00    +0.000 A 
ATOM     19  C   UNL     1      44.910   2.348   9.233  0.00  0.00    +0.000 A 
ATOM     20  C   UNL     1      45.872   1.861   8.343  0.00  0.00    +0.000 A 
BRANCH  15  22
ATOM     21  N   UNL     1      47.790   2.811   5.424  0.00  0.00    +0.000 N 
ATOM     22  C   UNL     1      47.634   2.187   6.630  0.00  0.00    +0.000 C 
ATOM     23  O   UNL     1      48.333   1.231   6.939  0.00  0.00    +0.000 OA
ATOM     24  H   UNL     1      48.555   2.484   4.848  0.00  0.00    +0.000 HD
ATOM     25  H   UNL     1      47.425   3.735   5.240  0.00  0.00    +0.000 HD
ENDBRANCH  15  22
ENDBRANCH  14  18
ENDBRANCH   1  14
TORSDOF 6
ENDMDL
MODEL 3
REMARK VINA RESULT:    -7.177      1.588      2.104
REMARK INTER + INTRA:         -10.546
REMARK INTER:                  -9.676
REMARK INTRA:                  -0.870
REMARK UNBOUND:                -0.852
REMARK  Name = 
REMARK  6 active torsions:
REMARK  status: ('A' for Active; 'I' for Inactive)
REMARK    1  A    between atoms: C_2  and  C_4
REMARK    2  A    between atoms: C_7  and  C_8
REMARK    3  A    between atoms: C_8  and  O_9
REMARK    4  A    between atoms: O_9  and  C_10
REMARK    5  A    between atoms: C_14  and  O_15
REMARK    6  A    between atoms: O_15  and  C_16
REMARK                            x       y       z     vdW  Elec       q    Type
REMARK                         _______ _______ _______ _____ _____    ______ ____
ROOT
ATOM      1  O   UNL     1      44.400   4.354  12.214  0.00  0.00    +0.000 OA
ENDROOT
BRANCH   1   2
ATOM      2  C   UNL     1      45.154   5.490  12.397  0.00  0.00    +0.000 A 
ATOM      3  C   UNL     1      44.749   6.770  12.014  0.00  0.00    +0.000 A 
ATOM      4  C   UNL     1      45.597   7.859  12.205  0.00  0.00    +0.000 A 
ATOM      5  C   UNL     1      46.838   7.680  12.814  0.00  0.00    +0.000 A 
ATOM      6  C   UNL     1      47.220   6.420  13.278  0.00  0.00    +0.000 A 
ATOM      7  C   UNL     1      46.385   5.321  13.044  0.00  0.00    +0.000 A 
BRANCH   6   8
ATOM      8  O   UNL     1      48.404   6.182  13.936  0.00  0.00    +0.000 OA
BRANCH   8   9
ATOM      9  C   UNL     1      48.486   6.772  15.247  0.00  0.00    +0.000 C 
ATOM     10  C   UNL     1      49.654   7.732  15.342  0.00  0.00    +0.000 C 
ATOM     11  C   UNL     1      50.795   6.893  15.874  0.00  0.00    +0.000 C 
ATOM     12  O   UNL     1      50.237   5.780  16.572  0.00  0.00    +0.000 OA
ATOM     13  C   UNL     1      48.834   5.709  16.286  0.00  0.00    +0.000 C 
ENDBRANCH   8   9
ENDBRANCH   6   8
ENDBRANCH   1   2
BRANCH   1  14
ATOM     14  C   UNL     1      43.721   4.267  10.954  0.00  0.00    +0.000 C 
BRANCH  14  18
ATOM     15  C   UNL     1      46.212   2.831   7.716  0.00  0.00    +0.000 A 
ATOM     16  C   UNL     1      45.635   1.921   8.609  0.00  0.00    +0.000 A 
ATOM     17  C   UNL     1      44.844   2.381   9.668  0.00  0.00    +0.000 A 
ATOM     18  C   UNL     1      44.632   3.754   9.858  0.00  0.00    +0.000 A 
ATOM     19  C   UNL     1      45.207   4.659   8.950  0.00  0.00    +0.000 A 
ATOM     20  C   UNL     1      46.000   4.201   7.893  0.00  0.00    +0.000 A 
BRANCH  15  22
ATOM     21  N   UNL     1      48.154   1.622   6.872  0.00  0.00    +0.000 N 
ATOM     22  C   UNL     1      47.061   2.388   6.577  0.00  0.00    +0.000 C 
ATOM     23  O   UNL     1      46.776   2.660   5.419  0.00  0.00    +0.000 OA
ATOM     24  H   UNL     1      48.659   1.241   6.081  0.00  0.00    +0.000 HD
ATOM     25  H   UNL     1      48.276   1.171   7.767  0.00  0.00    +0.000 HD
ENDBRANCH  15  22
ENDBRANCH  14  18
ENDBRANCH   1  14
TORSDOF 6
ENDMDL
MODEL 4
REMARK VINA RESULT:    -6.761      3.310      8.387
REMARK INTER + INTRA:          -9.985
REMARK INTER:                  -9.438
REMARK INTRA:                  -0.547
REMARK UNBOUND:                -0.852
REMARK  Name = 
REMARK  6 active torsions:
REMARK  status: ('A' for Active; 'I' for Inactive)
REMARK    1  A    between atoms: C_2  and  C_4
REMARK    2  A    between atoms: C_7  and  C_8
REMARK    3  A    between atoms: C_8  and  O_9
REMARK    4  A    between atoms: O_9  and  C_10
REMARK    5  A    between atoms: C_14  and  O_15
REMARK    6  A    between atoms: O_15  and  C_16
REMARK                            x       y       z     vdW  Elec       q    Type
REMARK                         _______ _______ _______ _____ _____    ______ ____
ROOT
ATOM      1  O   UNL     1      45.327   4.326  14.203  0.00  0.00    +0.000 OA
ENDROOT
BRANCH   1   2
ATOM      2  C   UNL     1      44.631   4.612  13.052  0.00  0.00    +0.000 A 
ATOM      3  C   UNL     1      43.302   5.040  13.025  0.00  0.00    +0.000 A 
ATOM      4  C   UNL     1      42.665   5.272  11.807  0.00  0.00    +0.000 A 
ATOM      5  C   UNL     1      43.365   5.114  10.612  0.00  0.00    +0.000 A 
ATOM      6  C   UNL     1      44.717   4.769  10.627  0.00  0.00    +0.000 A 
ATOM      7  C   UNL     1      45.341   4.493  11.849  0.00  0.00    +0.000 A 
BRANCH   6   8
ATOM      8  O   UNL     1      45.481   4.650   9.490  0.00  0.00    +0.000 OA
BRANCH   8   9
ATOM      9  C   UNL     1      44.891   3.842   8.456  0.00  0.00    +0.000 C 
ATOM     10  C   UNL     1      44.620   2.435   8.949  0.00  0.00    +0.000 C 
ATOM     11  C   UNL     1      45.858   1.653   8.567  0.00  0.00    +0.000 C 
ATOM     12  O   UNL     1      46.487   2.325   7.477  0.00  0.00    +0.000 OA
ATOM     13  C   UNL     1      45.889   3.619   7.322  0.00  0.00    +0.000 C 
ENDBRANCH   8   9
ENDBRANCH   6   8
ENDBRANCH   1   2
BRANCH   1  14
ATOM     14  C   UNL     1      46.754   4.310  14.067  0.00  0.00    +0.000 C 
BRANCH  14  18
ATOM     15  C   UNL     1      48.602   4.548  17.976  0.00  0.00    +0.000 A 
ATOM     16  C   UNL     1      48.632   5.656  17.121  0.00  0.00    +0.000 A 
ATOM     17  C   UNL     1      48.052   5.578  15.850  0.00  0.00    +0.000 A 
ATOM     18  C   UNL     1      47.449   4.391  15.410  0.00  0.00    +0.000 A 
ATOM     19  C   UNL     1      47.416   3.288  16.279  0.00  0.00    +0.000 A 
ATOM     20  C   UNL     1      47.998   3.363  17.548  0.00  0.00    +0.000 A 
BRANCH  15  22
ATOM     21  N   UNL     1      48.627   3.807  20.299  0.00  0.00    +0.000 N 
ATOM     22  C   UNL     1      49.207   4.583  19.334  0.00  0.00    +0.000 C 
ATOM     23  O   UNL     1      50.207   5.245  19.576  0.00  0.00    +0.000 OA
ATOM     24  H   UNL     1      49.113   3.760  21.186  0.00  0.00    +0.000 HD
ATOM     25  H   UNL     1      47.975   3.067  20.081  0.00  0.00    +0.000 HD
ENDBRANCH  15  22
ENDBRANCH  14  18
ENDBRANCH   1  14
TORSDOF 6
ENDMDL
MODEL 5
REMARK VINA RESULT:    -6.702      2.541      3.627
REMARK INTER + INTRA:          -9.904
REMARK INTER:                  -9.192
REMARK INTRA:                  -0.712
REMARK UNBOUND:                -0.852
REMARK  Name = 
REMARK  6 active torsions:
REMARK  status: ('A' for Active; 'I' for Inactive)
REMARK    1  A    between atoms: C_2  and  C_4
REMARK    2  A    between atoms: C_7  and  C_8
REMARK    3  A    between atoms: C_8  and  O_9
REMARK    4  A    between atoms: O_9  and  C_10
REMARK    5  A    between atoms: C_14  and  O_15
REMARK    6  A    between atoms: O_15  and  C_16
REMARK                            x       y       z     vdW  Elec       q    Type
REMARK                         _______ _______ _______ _____ _____    ______ ____
ROOT
ATOM      1  O   UNL     1      44.937   6.112  10.587  0.00  0.00    +0.000 OA
ENDROOT
BRANCH   1   2
ATOM      2  C   UNL     1      45.708   5.924  11.711  0.00  0.00    +0.000 A 
ATOM      3  C   UNL     1      45.664   4.780  12.510  0.00  0.00    +0.000 A 
ATOM      4  C   UNL     1      46.457   4.693  13.652  0.00  0.00    +0.000 A 
ATOM      5  C   UNL     1      47.326   5.732  13.981  0.00  0.00    +0.000 A 
ATOM      6  C   UNL     1      47.442   6.844  13.146  0.00  0.00    +0.000 A 
ATOM      7  C   UNL     1      46.611   6.949  12.023  0.00  0.00    +0.000 A 
BRANCH   6   8
ATOM      8  O   UNL     1      48.317   7.879  13.378  0.00  0.00    +0.000 OA
BRANCH   8   9
ATOM      9  C   UNL     1      49.699   7.556  13.137  0.00  0.00    +0.000 C 
ATOM     10  C   UNL     1      50.618   8.598  13.743  0.00  0.00    +0.000 C 
ATOM     11  C   UNL     1      50.866   9.584  12.623  0.00  0.00    +0.000 C 
ATOM     12  O   UNL     1      50.647   8.911  11.384  0.00  0.00    +0.000 OA
ATOM     13  C   UNL     1      50.014   7.652  11.646  0.00  0.00    +0.000 C 
ENDBRANCH   8   9
ENDBRANCH   6   8
ENDBRANCH   1   2
BRANCH   1  14
ATOM     14  C   UNL     1      44.122   4.993  10.211  0.00  0.00    +0.000 C 
BRANCH  14  18
ATOM     15  C   UNL     1      46.382   2.168   7.831  0.00  0.00    +0.000 A 
ATOM     16  C   UNL     1      46.489   3.540   7.574  0.00  0.00    +0.000 A 
ATOM     17  C   UNL     1      45.747   4.456   8.329  0.00  0.00    +0.000 A 
ATOM     18  C   UNL     1      44.879   4.014   9.337  0.00  0.00    +0.000 A 
ATOM     19  C   UNL     1      44.786   2.636   9.593  0.00  0.00    +0.000 A 
ATOM     20  C   UNL     1      45.524   1.720   8.838  0.00  0.00    +0.000 A 
BRANCH  15  22
ATOM     21  N   UNL     1      46.896  -0.159   7.315  0.00  0.00    +0.000 N 
ATOM     22  C   UNL     1      47.149   1.159   7.054  0.00  0.00    +0.000 C 
ATOM     23  O   UNL     1      47.947   1.486   6.184  0.00  0.00    +0.000 OA
ATOM     24  H   UNL     1      47.346  -0.830   6.705  0.00  0.00    +0.000 HD
ATOM     25  H   UNL     1      46.080  -0.464   7.827  0.00  0.00    +0.000 HD
ENDBRANCH  15  22
ENDBRANCH  14  18
ENDBRANCH   1  14
TORSDOF 6
ENDMDL
MODEL 6
REMARK VINA RESULT:    -6.600      2.958      7.889
REMARK INTER + INTRA:          -9.767
REMARK INTER:                  -9.177
REMARK INTRA:                  -0.590
REMARK UNBOUND:                -0.852
REMARK  Name = 
REMARK  6 active torsions:
REMARK  status: ('A' for Active; 'I' for Inactive)
REMARK    1  A    between atoms: C_2  and  C_4
REMARK    2  A    between atoms: C_7  and  C_8
REMARK    3  A    between atoms: C_8  and  O_9
REMARK    4  A    between atoms: O_9  and  C_10
REMARK    5  A    between atoms: C_14  and  O_15
REMARK    6  A    between atoms: O_15  and  C_16
REMARK                            x       y       z     vdW  Elec       q    Type
REMARK                         _______ _______ _______ _____ _____    ______ ____
ROOT
ATOM      1  O   UNL     1      45.994   7.059  11.804  0.00  0.00    +0.000 OA
ENDROOT
BRANCH   1   2
ATOM      2  C   UNL     1      45.389   6.138  10.981  0.00  0.00    +0.000 A 
ATOM      3  C   UNL     1      44.101   5.638  11.177  0.00  0.00    +0.000 A 
ATOM      4  C   UNL     1      43.582   4.678  10.312  0.00  0.00    +0.000 A 
ATOM      5  C   UNL     1      44.334   4.240   9.223  0.00  0.00    +0.000 A 
ATOM      6  C   UNL     1      45.590   4.792   8.965  0.00  0.00    +0.000 A 
ATOM      7  C   UNL     1      46.126   5.724   9.863  0.00  0.00    +0.000 A 
BRANCH   6   8
ATOM      8  O   UNL     1      46.361   4.449   7.881  0.00  0.00    +0.000 OA
BRANCH   8   9
ATOM      9  C   UNL     1      45.923   3.265   7.188  0.00  0.00    +0.000 C 
ATOM     10  C   UNL     1      46.420   2.012   7.879  0.00  0.00    +0.000 C 
ATOM     11  C   UNL     1      47.724   1.686   7.185  0.00  0.00    +0.000 C 
ATOM     12  O   UNL     1      47.693   2.276   5.887  0.00  0.00    +0.000 OA
ATOM     13  C   UNL     1      46.582   3.180   5.814  0.00  0.00    +0.000 C 
ENDBRANCH   8   9
ENDBRANCH   6   8
ENDBRANCH   1   2
BRANCH   1  14
ATOM     14  C   UNL     1      47.334   6.737  12.201  0.00  0.00    +0.000 C 
BRANCH  14  18
ATOM     15  C   UNL     1      47.576   4.503  15.903  0.00  0.00    +0.000 A 
ATOM     16  C   UNL     1      46.912   3.955  14.799  0.00  0.00    +0.000 A 
ATOM     17  C   UNL     1      46.816   4.681  13.606  0.00  0.00    +0.000 A 
ATOM     18  C   UNL     1      47.365   5.966  13.504  0.00  0.00    +0.000 A 
ATOM     19  C   UNL     1      48.037   6.504  14.615  0.00  0.00    +0.000 A 
ATOM     20  C   UNL     1      48.132   5.782  15.809  0.00  0.00    +0.000 A 
BRANCH  15  22
ATOM     21  N   UNL     1      47.461   4.474  18.339  0.00  0.00    +0.000 N 
ATOM     22  C   UNL     1      47.701   3.771  17.191  0.00  0.00    +0.000 C 
ATOM     23  O   UNL     1      47.968   2.577  17.229  0.00  0.00    +0.000 OA
ATOM     24  H   UNL     1      47.446   3.937  19.197  0.00  0.00    +0.000 HD
ATOM     25  H   UNL     1      46.997   5.371  18.338  0.00  0.00    +0.000 HD
ENDBRANCH  15  22
ENDBRANCH  14  18
ENDBRANCH   1  14
TORSDOF 6
ENDMDL
MODEL 7
REMARK VINA RESULT:    -6.423      3.820      7.330
REMARK INTER + INTRA:          -9.527
REMARK INTER:                  -8.676
REMARK INTRA:                  -0.852
REMARK UNBOUND:                -0.852
REMARK  Name = 
REMARK  6 active torsions:
REMARK  status: ('A' for Active; 'I' for Inactive)
REMARK    1  A    between atoms: C_2  and  C_4
REMARK    2  A    between atoms: C_7  and  C_8
REMARK    3  A    between atoms: C_8  and  O_9
REMARK    4  A    between atoms: O_9  and  C_10
REMARK    5  A    between atoms: C_14  and  O_15
REMARK    6  A    between atoms: O_15  and  C_16
REMARK                            x       y       z     vdW  Elec       q    Type
REMARK                         _______ _______ _______ _____ _____    ______ ____
ROOT
ATOM      1  O   UNL     1      44.150   6.510  11.135  0.00  0.00    +0.000 OA
ENDROOT
BRANCH   1   2
ATOM      2  C   UNL     1      44.039   5.146  10.993  0.00  0.00    +0.000 A 
ATOM      3  C   UNL     1      43.477   4.301  11.952  0.00  0.00    +0.000 A 
ATOM      4  C   UNL     1      43.440   2.925  11.737  0.00  0.00    +0.000 A 
ATOM      5  C   UNL     1      43.929   2.390  10.546  0.00  0.00    +0.000 A 
ATOM      6  C   UNL     1      44.415   3.230   9.544  0.00  0.00    +0.000 A 
ATOM      7  C   UNL     1      44.493   4.608   9.781  0.00  0.00    +0.000 A 
BRANCH   6   8
ATOM      8  O   UNL     1      44.861   2.777   8.325  0.00  0.00    +0.000 OA
BRANCH   8   9
ATOM      9  C   UNL     1      46.293   2.692   8.206  0.00  0.00    +0.000 C 
ATOM     10  C   UNL     1      46.801   3.566   7.077  0.00  0.00    +0.000 C 
ATOM     11  C   UNL     1      46.854   2.645   5.878  0.00  0.00    +0.000 C 
ATOM     12  O   UNL     1      46.963   1.305   6.354  0.00  0.00    +0.000 OA
ATOM     13  C   UNL     1      46.707   1.291   7.765  0.00  0.00    +0.000 C 
ENDBRANCH   8   9
ENDBRANCH   6   8
ENDBRANCH   1   2
BRANCH   1  14
ATOM     14  C   UNL     1      44.693   6.951  12.387  0.00  0.00    +0.000 C 
BRANCH  14  18
ATOM     15  C   UNL     1      48.830   8.207  12.145  0.00  0.00    +0.000 A 
ATOM     16  C   UNL     1      47.808   9.162  12.112  0.00  0.00    +0.000 A 
ATOM     17  C   UNL     1      46.469   8.760  12.172  0.00  0.00    +0.000 A 
ATOM     18  C   UNL     1      46.133   7.401  12.249  0.00  0.00    +0.000 A 
ATOM     19  C   UNL     1      47.166   6.451  12.290  0.00  0.00    +0.000 A 
ATOM     20  C   UNL     1      48.505   6.850  12.228  0.00  0.00    +0.000 A 
BRANCH  15  22
ATOM     21  N   UNL     1      51.125   7.939  12.927  0.00  0.00    +0.000 N 
ATOM     22  C   UNL     1      50.267   8.586  12.082  0.00  0.00    +0.000 C 
ATOM     23  O   UNL     1      50.679   9.414  11.279  0.00  0.00    +0.000 OA
ATOM     24  H   UNL     1      52.110   8.132  12.797  0.00  0.00    +0.000 HD
ATOM     25  H   UNL     1      50.872   7.089  13.410  0.00  0.00    +0.000 HD
ENDBRANCH  15  22
ENDBRANCH  14  18
ENDBRANCH   1  14
TORSDOF 6
ENDMDL
MODEL 8
REMARK VINA RESULT:    -6.289      2.807      4.246
REMARK INTER + INTRA:          -9.347
REMARK INTER:                  -8.452
REMARK INTRA:                  -0.895
REMARK UNBOUND:                -0.852
REMARK  Name = 
REMARK  6 active torsions:
REMARK  status: ('A' for Active; 'I' for Inactive)
REMARK    1  A    between atoms: C_2  and  C_4
REMARK    2  A    between atoms: C_7  and  C_8
REMARK    3  A    between atoms: C_8  and  O_9
REMARK    4  A    between atoms: O_9  and  C_10
REMARK    5  A    between atoms: C_14  and  O_15
REMARK    6  A    between atoms: O_15  and  C_16
REMARK                            x       y       z     vdW  Elec       q    Type
REMARK                         _______ _______ _______ _____ _____    ______ ____
ROOT
ATOM      1  O   UNL     1      47.547   8.089  12.887  0.00  0.00    +0.000 OA
ENDROOT
BRANCH   1   2
ATOM      2  C   UNL     1      48.014   7.992  14.177  0.00  0.00    +0.000 A 
ATOM      3  C   UNL     1      48.103   9.068  15.062  0.00  0.00    +0.000 A 
ATOM      4  C   UNL     1      48.625   8.884  16.340  0.00  0.00    +0.000 A 
ATOM      5  C   UNL     1      49.026   7.614  16.754  0.00  0.00    +0.000 A 
ATOM      6  C   UNL     1      48.865   6.514  15.911  0.00  0.00    +0.000 A 
ATOM      7  C   UNL     1      48.382   6.711  14.611  0.00  0.00    +0.000 A 
BRANCH   6   8
ATOM      8  O   UNL     1      49.186   5.227  16.274  0.00  0.00    +0.000 OA
BRANCH   8   9
ATOM      9  C   UNL     1      48.650   4.814  17.544  0.00  0.00    +0.000 C 
ATOM     10  C   UNL     1      49.043   3.386  17.865  0.00  0.00    +0.000 C 
ATOM     11  C   UNL     1      47.897   2.549  17.342  0.00  0.00    +0.000 C 
ATOM     12  O   UNL     1      46.734   3.375  17.288  0.00  0.00    +0.000 OA
ATOM     13  C   UNL     1      47.126   4.741  17.478  0.00  0.00    +0.000 C 
ENDBRANCH   8   9
ENDBRANCH   6   8
ENDBRANCH   1   2
BRANCH   1  14
ATOM     14  C   UNL     1      46.120   8.072  12.751  0.00  0.00    +0.000 C 
BRANCH  14  18
ATOM     15  C   UNL     1      44.561   4.265  11.397  0.00  0.00    +0.000 A 
ATOM     16  C   UNL     1      44.291   4.707  12.697  0.00  0.00    +0.000 A 
ATOM     17  C   UNL     1      44.807   5.928  13.146  0.00  0.00    +0.000 A 
ATOM     18  C   UNL     1      45.612   6.715  12.309  0.00  0.00    +0.000 A 
ATOM     19  C   UNL     1      45.869   6.267  11.003  0.00  0.00    +0.000 A 
ATOM     20  C   UNL     1      45.357   5.046  10.555  0.00  0.00    +0.000 A 
BRANCH  15  22
ATOM     21  N   UNL     1      44.747   2.362   9.884  0.00  0.00    +0.000 N 
ATOM     22  C   UNL     1      44.036   2.974  10.878  0.00  0.00    +0.000 C 
ATOM     23  O   UNL     1      43.032   2.453  11.346  0.00  0.00    +0.000 OA
ATOM     24  H   UNL     1      44.436   1.436   9.617  0.00  0.00    +0.000 HD
ATOM     25  H   UNL     1      45.695   2.623   9.656  0.00  0.00    +0.000 HD
ENDBRANCH  15  22
ENDBRANCH  14  18
ENDBRANCH   1  14
TORSDOF 6
ENDMDL
MODEL 9
REMARK VINA RESULT:    -6.230      4.232      7.180
REMARK INTER + INTRA:          -9.268
REMARK INTER:                  -8.341
REMARK INTRA:                  -0.926
REMARK UNBOUND:                -0.852
REMARK  Name = 
REMARK  6 active torsions:
REMARK  status: ('A' for Active; 'I' for Inactive)
REMARK    1  A    between atoms: C_2  and  C_4
REMARK    2  A    between atoms: C_7  and  C_8
REMARK    3  A    between atoms: C_8  and  O_9
REMARK    4  A    between atoms: O_9  and  C_10
REMARK    5  A    between atoms: C_14  and  O_15
REMARK    6  A    between atoms: O_15  and  C_16
REMARK                            x       y       z     vdW  Elec       q    Type
REMARK                         _______ _______ _______ _____ _____    ______ ____
ROOT
ATOM      1  O   UNL     1      46.891   8.063  13.427  0.00  0.00    +0.000 OA
ENDROOT
BRANCH   1   2
ATOM      2  C   UNL     1      46.632   9.205  12.705  0.00  0.00    +0.000 A 
ATOM      3  C   UNL     1      47.617  10.002  12.119  0.00  0.00    +0.000 A 
ATOM      4  C   UNL     1      47.264  11.164  11.435  0.00  0.00    +0.000 A 
ATOM      5  C   UNL     1      45.921  11.514  11.301  0.00  0.00    +0.000 A 
ATOM      6  C   UNL     1      44.922  10.683  11.808  0.00  0.00    +0.000 A 
ATOM      7  C   UNL     1      45.283   9.540  12.533  0.00  0.00    +0.000 A 
BRANCH   6   8
ATOM      8  O   UNL     1      43.578  10.937  11.664  0.00  0.00    +0.000 OA
BRANCH   8   9
ATOM      9  C   UNL     1      42.927  10.150  10.650  0.00  0.00    +0.000 C 
ATOM     10  C   UNL     1      42.934  10.865   9.314  0.00  0.00    +0.000 C 
ATOM     11  C   UNL     1      41.622  11.618   9.280  0.00  0.00    +0.000 C 
ATOM     12  O   UNL     1      40.712  10.962  10.162  0.00  0.00    +0.000 OA
ATOM     13  C   UNL     1      41.438  10.015  10.957  0.00  0.00    +0.000 C 
ENDBRANCH   8   9
ENDBRANCH   6   8
ENDBRANCH   1   2
BRANCH   1  14
ATOM     14  C   UNL     1      47.544   7.015  12.700  0.00  0.00    +0.000 C 
BRANCH  14  18
ATOM     15  C   UNL     1      44.864   3.900  11.332  0.00  0.00    +0.000 A 
ATOM     16  C   UNL     1      45.085   5.030  10.536  0.00  0.00    +0.000 A 
ATOM     17  C   UNL     1      45.936   6.048  10.982  0.00  0.00    +0.000 A 
ATOM     18  C   UNL     1      46.564   5.959  12.232  0.00  0.00    +0.000 A 
ATOM     19  C   UNL     1      46.344   4.816  13.019  0.00  0.00    +0.000 A 
ATOM     20  C   UNL     1      45.491   3.800  12.577  0.00  0.00    +0.000 A 
BRANCH  15  22
ATOM     21  N   UNL     1      44.354   2.060   9.815  0.00  0.00    +0.000 N 
ATOM     22  C   UNL     1      43.967   2.795  10.901  0.00  0.00    +0.000 C 
ATOM     23  O   UNL     1      42.943   2.522  11.513  0.00  0.00    +0.000 OA
ATOM     24  H   UNL     1      43.789   1.248   9.601  0.00  0.00    +0.000 HD
ATOM     25  H   UNL     1      45.294   2.087   9.449  0.00  0.00    +0.000 HD
ENDBRANCH  15  22
ENDBRANCH  14  18
ENDBRANCH   1  14
TORSDOF 6
ENDMDL
