MODEL 1
REMARK VINA RESULT:    -7.804      0.000      0.000
REMARK INTER + INTRA:         -10.408
REMARK INTER:                  -9.629
REMARK INTRA:                  -0.779
REMARK UNBOUND:                -0.779
REMARK  Name = 
REMARK  4 active torsions:
REMARK  status: ('A' for Active; 'I' for Inactive)
REMARK    1  A    between atoms: C_5  and  N_6
REMARK    2  A    between atoms: N_6  and  C_7
REMARK    3  A    between atoms: C_7  and  C_8
REMARK    4  A    between atoms: C_12  and  C_13
REMARK                            x       y       z     vdW  Elec       q    Type
REMARK                         _______ _______ _______ _____ _____    ______ ____
ROOT
ATOM      1  C   UNL     1      44.883   4.298  11.542  0.00  0.00    +0.000 A 
ATOM      2  C   UNL     1      45.531   3.505  12.488  0.00  0.00    +0.000 A 
ATOM      3  C   UNL     1      46.331   4.127  13.433  0.00  0.00    +0.000 A 
ATOM      4  N   UNL     1      46.517   5.464  13.502  0.00  0.00    +0.000 NA
ATOM      5  C   UNL     1      45.901   6.233  12.572  0.00  0.00    +0.000 A 
ATOM      6  C   UNL     1      45.111   5.678  11.565  0.00  0.00    +0.000 A 
ENDROOT
BRANCH   5   7
ATOM      7  C   UNL     1      46.052   7.734  12.727  0.00  0.00    +0.000 C 
ATOM      8  C   UNL     1      44.965   8.494  11.952  0.00  0.00    +0.000 C 
ATOM      9  C   UNL     1      45.195   9.995  12.021  0.00  0.00    +0.000 C 
ATOM     10  O   UNL     1      46.507  10.320  11.565  0.00  0.00    +0.000 OA
ATOM     11  C   UNL     1      47.518   9.741  12.390  0.00  0.00    +0.000 C 
ATOM     12  C   UNL     1      47.450   8.222  12.333  0.00  0.00    +0.000 C 
ENDBRANCH   5   7
BRANCH   1  13
ATOM     13  C   UNL     1      43.912   3.707  10.551  0.00  0.00    +0.000 C 
BRANCH  13  14
ATOM     14  N   UNL     1      44.202   4.163   9.206  0.00  0.00    +0.000 N 
ATOM     15  H   UNL     1      44.348   5.167   9.123  0.00  0.00    +0.000 HD
BRANCH  14  20
ATOM     16  F   UNL     1      48.224   1.944   6.211  0.00  0.00    +0.000 F 
ATOM     17  C   UNL     1      47.242   2.429   6.978  0.00  0.00    +0.000 A 
ATOM     18  C   UNL     1      46.979   3.783   7.006  0.00  0.00    +0.000 A 
ATOM     19  N   UNL     1      45.999   4.346   7.759  0.00  0.00    +0.000 NA
ATOM     20  C   UNL     1      45.229   3.536   8.514  0.00  0.00    +0.000 A 
ATOM     21  C   UNL     1      45.426   2.160   8.530  0.00  0.00    +0.000 A 
ATOM     22  C   UNL     1      46.450   1.609   7.761  0.00  0.00    +0.000 A 
ATOM     23 CL   UNL     1      46.708  -0.093   7.793  0.00  0.00    +0.000 Cl
ENDBRANCH  14  20
ENDBRANCH  13  14
ENDBRANCH   1  13
TORSDOF 4
ENDMDL
MODEL 2
REMARK VINA RESULT:    -7.776      3.782      6.603
REMARK INTER + INTRA:         -10.373
REMARK INTER:                  -9.536
REMARK INTRA:                  -0.837
REMARK UNBOUND:                -0.779
REMARK  Name = 
REMARK  4 active torsions:
REMARK  status: ('A' for Active; 'I' for Inactive)
REMARK    1  A    between atoms: C_5  and  N_6
REMARK    2  A    between atoms: N_6  and  C_7
REMARK    3  A    between atoms: C_7  and  C_8
REMARK    4  A    between atoms: C_12  and  C_13
REMARK                            x       y       z     vdW  Elec       q    Type
REMARK                         _______ _______ _______ _____ _____    ______ ____
ROOT
ATOM      1  C   UNL     1      43.508   4.863  10.926  0.00  0.00    +0.000 A 
ATOM      2  C   UNL     1      43.100   3.832  11.772  0.00  0.00    +0.000 A 
ATOM      3  C   UNL     1      43.375   2.526  11.400  0.00  0.00    +0.000 A 
ATOM      4  N   UNL     1      44.028   2.185  10.267  0.00  0.00    +0.000 NA
ATOM      5  C   UNL     1      44.409   3.186   9.437  0.00  0.00    +0.000 A 
ATOM      6  C   UNL     1      44.133   4.523   9.721  0.00  0.00    +0.000 A 
ENDROOT
BRANCH   5   7
ATOM      7  C   UNL     1      45.218   2.783   8.219  0.00  0.00    +0.000 C 
ATOM      8  C   UNL     1      46.021   1.498   8.474  0.00  0.00    +0.000 C 
ATOM      9  C   UNL     1      46.914   1.169   7.288  0.00  0.00    +0.000 C 
ATOM     10  O   UNL     1      47.757   2.277   6.976  0.00  0.00    +0.000 OA
ATOM     11  C   UNL     1      47.006   3.425   6.580  0.00  0.00    +0.000 C 
ATOM     12  C   UNL     1      46.130   3.912   7.726  0.00  0.00    +0.000 C 
ENDBRANCH   5   7
BRANCH   1  13
ATOM     13  C   UNL     1      43.341   6.311  11.311  0.00  0.00    +0.000 C 
BRANCH  13  14
ATOM     14  N   UNL     1      43.927   6.573  12.610  0.00  0.00    +0.000 N 
ATOM     15  H   UNL     1      43.603   5.955  13.352  0.00  0.00    +0.000 HD
BRANCH  14  20
ATOM     16  F   UNL     1      49.368   6.660  13.288  0.00  0.00    +0.000 F 
ATOM     17  C   UNL     1      48.048   6.682  13.073  0.00  0.00    +0.000 A 
ATOM     18  C   UNL     1      47.242   5.676  13.559  0.00  0.00    +0.000 A 
ATOM     19  N   UNL     1      45.896   5.632  13.382  0.00  0.00    +0.000 NA
ATOM     20  C   UNL     1      45.311   6.638  12.699  0.00  0.00    +0.000 A 
ATOM     21  C   UNL     1      46.055   7.694  12.187  0.00  0.00    +0.000 A 
ATOM     22  C   UNL     1      47.437   7.705  12.370  0.00  0.00    +0.000 A 
ATOM     23 CL   UNL     1      48.364   9.002  11.720  0.00  0.00    +0.000 Cl
ENDBRANCH  14  20
ENDBRANCH  13  14
ENDBRANCH   1  13
TORSDOF 4
ENDMDL
MODEL 3
REMARK VINA RESULT:    -7.586      1.343      1.701
REMARK INTER + INTRA:         -10.140
REMARK INTER:                  -9.409
REMARK INTRA:                  -0.730
REMARK UNBOUND:                -0.779
REMARK  Name = 
REMARK  4 active torsions:
REMARK  status: ('A' for Active; 'I' for Inactive)
REMARK    1  A    between atoms: C_5  and  N_6
REMARK    2  A    between atoms: N_6  and  C_7
REMARK    3  A    between atoms: C_7  and  C_8
REMARK    4  A    between atoms: C_12  and  C_13
REMARK                            x       y       z     vdW  Elec       q    Type
REMARK                         _______ _______ _______ _____ _____    ______ ____
ROOT
ATOM      1  C   UNL     1      44.776   4.895  11.342  0.00  0.00    +0.000 A 
ATOM      2  C   UNL     1      45.129   3.903  12.256  0.00  0.00    +0.000 A 
ATOM      3  C   UNL     1      46.140   4.173  13.165  0.00  0.00    +0.000 A 
ATOM      4  N   UNL     1      46.803   5.349  13.229  0.00  0.00    +0.000 NA
ATOM      5  C   UNL     1      46.472   6.307  12.330  0.00  0.00    +0.000 A 
ATOM      6  C   UNL     1      45.493   6.096  11.358  0.00  0.00    +0.000 A 
ENDROOT
BRANCH   5   7
ATOM      7  C   UNL     1      47.167   7.646  12.481  0.00  0.00    +0.000 C 
ATOM      8  C   UNL     1      46.234   8.811  12.113  0.00  0.00    +0.000 C 
ATOM      9  C   UNL     1      46.975  10.137  12.159  0.00  0.00    +0.000 C 
ATOM     10  O   UNL     1      48.133  10.091  11.326  0.00  0.00    +0.000 OA
ATOM     11  C   UNL     1      49.073   9.114  11.771  0.00  0.00    +0.000 C 
ATOM     12  C   UNL     1      48.475   7.717  11.685  0.00  0.00    +0.000 C 
ENDBRANCH   5   7
BRANCH   1  13
ATOM     13  C   UNL     1      43.617   4.718  10.394  0.00  0.00    +0.000 C 
BRANCH  13  14
ATOM     14  N   UNL     1      44.072   4.680   9.019  0.00  0.00    +0.000 N 
ATOM     15  H   UNL     1      44.559   5.520   8.712  0.00  0.00    +0.000 HD
BRANCH  14  20
ATOM     16  F   UNL     1      46.981   0.211   7.740  0.00  0.00    +0.000 F 
ATOM     17  C   UNL     1      46.301   1.333   8.001  0.00  0.00    +0.000 A 
ATOM     18  C   UNL     1      45.163   1.297   8.779  0.00  0.00    +0.000 A 
ATOM     19  N   UNL     1      44.423   2.393   9.086  0.00  0.00    +0.000 NA
ATOM     20  C   UNL     1      44.830   3.590   8.614  0.00  0.00    +0.000 A 
ATOM     21  C   UNL     1      45.974   3.708   7.832  0.00  0.00    +0.000 A 
ATOM     22  C   UNL     1      46.705   2.564   7.518  0.00  0.00    +0.000 A 
ATOM     23 CL   UNL     1      48.111   2.705   6.534  0.00  0.00    +0.000 Cl
ENDBRANCH  14  20
ENDBRANCH  13  14
ENDBRANCH   1  13
TORSDOF 4
ENDMDL
MODEL 4
REMARK VINA RESULT:    -7.440      2.570      3.811
REMARK INTER + INTRA:          -9.959
REMARK INTER:                  -9.377
REMARK INTRA:                  -0.582
REMARK UNBOUND:                -0.779
REMARK  Name = 
REMARK  4 active torsions:
REMARK  status: ('A' for Active; 'I' for Inactive)
REMARK    1  A    between atoms: C_5  and  N_6
REMARK    2  A    between atoms: N_6  and  C_7
REMARK    3  A    between atoms: C_7  and  C_8
REMARK    4  A    between atoms: C_12  and  C_13
REMARK                            x       y       z     vdW  Elec       q    Type
REMARK                         _______ _______ _______ _____ _____    ______ ____
ROOT
ATOM      1  C   UNL     1      45.367   4.522  11.960  0.00  0.00    +0.000 A 
ATOM      2  C   UNL     1      45.826   5.719  11.409  0.00  0.00    +0.000 A 
ATOM      3  C   UNL     1      46.663   6.517  12.173  0.00  0.00    +0.000 A 
ATOM      4  N   UNL     1      47.075   6.202  13.421  0.00  0.00    +0.000 NA
ATOM      5  C   UNL     1      46.616   5.048  13.961  0.00  0.00    +0.000 A 
ATOM      6  C   UNL     1      45.738   4.211  13.272  0.00  0.00    +0.000 A 
ENDROOT
BRANCH   5   7
ATOM      7  C   UNL     1      47.164   4.674  15.325  0.00  0.00    +0.000 C 
ATOM      8  C   UNL     1      48.281   5.633  15.767  0.00  0.00    +0.000 C 
ATOM      9  C   UNL     1      48.899   5.181  17.080  0.00  0.00    +0.000 C 
ATOM     10  O   UNL     1      49.356   3.833  16.979  0.00  0.00    +0.000 OA
ATOM     11  C   UNL     1      48.285   2.923  16.729  0.00  0.00    +0.000 C 
ATOM     12  C   UNL     1      47.636   3.217  15.384  0.00  0.00    +0.000 C 
ENDBRANCH   5   7
BRANCH   1  13
ATOM     13  C   UNL     1      44.542   3.550  11.155  0.00  0.00    +0.000 C 
BRANCH  13  14
ATOM     14  N   UNL     1      44.458   3.965   9.769  0.00  0.00    +0.000 N 
ATOM     15  H   UNL     1      44.498   4.972   9.626  0.00  0.00    +0.000 HD
BRANCH  14  20
ATOM     16  F   UNL     1      47.814   1.926   5.941  0.00  0.00    +0.000 F 
ATOM     17  C   UNL     1      47.002   2.366   6.909  0.00  0.00    +0.000 A 
ATOM     18  C   UNL     1      46.729   3.712   7.036  0.00  0.00    +0.000 A 
ATOM     19  N   UNL     1      45.916   4.231   7.991  0.00  0.00    +0.000 NA
ATOM     20  C   UNL     1      45.331   3.381   8.860  0.00  0.00    +0.000 A 
ATOM     21  C   UNL     1      45.548   2.010   8.789  0.00  0.00    +0.000 A 
ATOM     22  C   UNL     1      46.400   1.505   7.809  0.00  0.00    +0.000 A 
ATOM     23 CL   UNL     1      46.686  -0.190   7.730  0.00  0.00    +0.000 Cl
ENDBRANCH  14  20
ENDBRANCH  13  14
ENDBRANCH   1  13
TORSDOF 4
ENDMDL
MODEL 5
REMARK VINA RESULT:    -7.372      4.405      7.223
REMARK INTER + INTRA:          -9.875
REMARK INTER:                  -9.210
REMARK INTRA:                  -0.665
REMARK UNBOUND:                -0.779
REMARK  Name = 
REMARK  4 active torsions:
REMARK  status: ('A' for Active; 'I' for Inactive)
REMARK    1  A    between atoms: C_5  and  N_6
REMARK    2  A    between atoms: N_6  and  C_7
REMARK    3  A    between atoms: C_7  and  C_8
REMARK    4  A    between atoms: C_12  and  C_13
REMARK                            x       y       z     vdW  Elec       q    Type
REMARK                         _______ _______ _______ _____ _____    ______ ____
ROOT
ATOM      1  C   UNL     1      44.685   4.708  11.986  0.00  0.00    +0.000 A 
ATOM      2  C   UNL     1      43.716   3.857  12.516  0.00  0.00    +0.000 A 
ATOM      3  C   UNL     1      43.265   2.805  11.735  0.00  0.00    +0.000 A 
ATOM      4  N   UNL     1      43.715   2.543  10.488  0.00  0.00    +0.000 NA
ATOM      5  C   UNL     1      44.644   3.380   9.967  0.00  0.00    +0.000 A 
ATOM      6  C   UNL     1      45.118   4.485  10.675  0.00  0.00    +0.000 A 
ENDROOT
BRANCH   5   7
ATOM      7  C   UNL     1      45.198   3.012   8.604  0.00  0.00    +0.000 C 
ATOM      8  C   UNL     1      45.947   1.671   8.641  0.00  0.00    +0.000 C 
ATOM      9  C   UNL     1      46.593   1.370   7.298  0.00  0.00    +0.000 C 
ATOM     10  O   UNL     1      47.439   2.448   6.899  0.00  0.00    +0.000 OA
ATOM     11  C   UNL     1      46.708   3.659   6.707  0.00  0.00    +0.000 C 
ATOM     12  C   UNL     1      46.081   4.118   8.016  0.00  0.00    +0.000 C 
ENDBRANCH   5   7
BRANCH   1  13
ATOM     13  C   UNL     1      45.303   5.809  12.810  0.00  0.00    +0.000 C 
BRANCH  13  14
ATOM     14  N   UNL     1      46.738   5.637  12.912  0.00  0.00    +0.000 N 
ATOM     15  H   UNL     1      47.284   6.339  12.417  0.00  0.00    +0.000 HD
BRANCH  14  20
ATOM     16  F   UNL     1      49.230   5.235  17.780  0.00  0.00    +0.000 F 
ATOM     17  C   UNL     1      48.573   5.294  16.617  0.00  0.00    +0.000 A 
ATOM     18  C   UNL     1      48.866   6.279  15.697  0.00  0.00    +0.000 A 
ATOM     19  N   UNL     1      48.242   6.401  14.496  0.00  0.00    +0.000 NA
ATOM     20  C   UNL     1      47.289   5.500  14.179  0.00  0.00    +0.000 A 
ATOM     21  C   UNL     1      46.946   4.473  15.050  0.00  0.00    +0.000 A 
ATOM     22  C   UNL     1      47.591   4.380  16.282  0.00  0.00    +0.000 A 
ATOM     23 CL   UNL     1      47.154   3.120  17.370  0.00  0.00    +0.000 Cl
ENDBRANCH  14  20
ENDBRANCH  13  14
ENDBRANCH   1  13
TORSDOF 4
ENDMDL
MODEL 6
REMARK VINA RESULT:    -7.245      4.123      7.056
REMARK INTER + INTRA:          -9.718
REMARK INTER:                  -9.023
REMARK INTRA:                  -0.695
REMARK UNBOUND:                -0.779
REMARK  Name = 
REMARK  4 active torsions:
REMARK  status: ('A' for Active; 'I' for Inactive)
REMARK    1  A    between atoms: C_5  and  N_6
REMARK    2  A    between atoms: N_6  and  C_7
REMARK    3  A    between atoms: C_7  and  C_8
REMARK    4  A    between atoms: C_12  and  C_13
REMARK                            x       y       z     vdW  Elec       q    Type
REMARK                         _______ _______ _______ _____ _____    ______ ____
ROOT
ATOM      1  C   UNL     1      44.874   5.321  10.707  0.00  0.00    +0.000 A 
ATOM      2  C   UNL     1      43.916   4.601  11.421  0.00  0.00    +0.000 A 
ATOM      3  C   UNL     1      43.549   3.349  10.953  0.00  0.00    +0.000 A 
ATOM      4  N   UNL     1      44.071   2.773   9.847  0.00  0.00    +0.000 NA
ATOM      5  C   UNL     1      44.989   3.480   9.145  0.00  0.00    +0.000 A 
ATOM      6  C   UNL     1      45.380   4.763   9.529  0.00  0.00    +0.000 A 
ENDROOT
BRANCH   5   7
ATOM      7  C   UNL     1      45.624   2.776   7.961  0.00  0.00    +0.000 C 
ATOM      8  C   UNL     1      46.183   1.400   8.356  0.00  0.00    +0.000 C 
ATOM      9  C   UNL     1      46.916   0.755   7.191  0.00  0.00    +0.000 C 
ATOM     10  O   UNL     1      47.932   1.627   6.697  0.00  0.00    +0.000 OA
ATOM     11  C   UNL     1      47.389   2.841   6.180  0.00  0.00    +0.000 C 
ATOM     12  C   UNL     1      46.700   3.631   7.283  0.00  0.00    +0.000 C 
ENDBRANCH   5   7
BRANCH   1  13
ATOM     13  C   UNL     1      45.404   6.640  11.209  0.00  0.00    +0.000 C 
BRANCH  13  14
ATOM     14  N   UNL     1      46.842   6.591  11.377  0.00  0.00    +0.000 N 
ATOM     15  H   UNL     1      47.348   7.343  10.912  0.00  0.00    +0.000 HD
BRANCH  14  20
ATOM     16  F   UNL     1      49.139   6.339  16.350  0.00  0.00    +0.000 F 
ATOM     17  C   UNL     1      48.531   6.360  15.159  0.00  0.00    +0.000 A 
ATOM     18  C   UNL     1      48.818   7.349  14.243  0.00  0.00    +0.000 A 
ATOM     19  N   UNL     1      48.242   7.434  13.016  0.00  0.00    +0.000 NA
ATOM     20  C   UNL     1      47.344   6.489  12.667  0.00  0.00    +0.000 A 
ATOM     21  C   UNL     1      47.010   5.454  13.532  0.00  0.00    +0.000 A 
ATOM     22  C   UNL     1      47.605   5.400  14.792  0.00  0.00    +0.000 A 
ATOM     23 CL   UNL     1      47.178   4.130  15.873  0.00  0.00    +0.000 Cl
ENDBRANCH  14  20
ENDBRANCH  13  14
ENDBRANCH   1  13
TORSDOF 4
ENDMDL
MODEL 7
REMARK VINA RESULT:    -7.155      4.787      7.595
REMARK INTER + INTRA:          -9.607
REMARK INTER:                  -9.070
REMARK INTRA:                  -0.537
REMARK UNBOUND:                -0.779
REMARK  Name = 
REMARK  4 active torsions:
REMARK  status: ('A' for Active; 'I' for Inactive)
REMARK    1  A    between atoms: C_5  and  N_6
REMARK    2  A    between atoms: N_6  and  C_7
REMARK    3  A    between atoms: C_7  and  C_8
REMARK    4  A    between atoms: C_12  and  C_13
REMARK                            x       y       z     vdW  Elec       q    Type
REMARK                         _______ _______ _______ _____ _____    ______ ____
ROOT
ATOM      1  C   UNL     1      45.038   5.246  12.569  0.00  0.00    +0.000 A 
ATOM      2  C   UNL     1      43.719   5.684  12.679  0.00  0.00    +0.000 A 
ATOM      3  C   UNL     1      42.862   5.468  11.612  0.00  0.00    +0.000 A 
ATOM      4  N   UNL     1      43.222   4.844  10.468  0.00  0.00    +0.000 NA
ATOM      5  C   UNL     1      44.508   4.433  10.356  0.00  0.00    +0.000 A 
ATOM      6  C   UNL     1      45.441   4.651  11.369  0.00  0.00    +0.000 A 
ENDROOT
BRANCH   5   7
ATOM      7  C   UNL     1      44.863   3.657   9.102  0.00  0.00    +0.000 C 
ATOM      8  C   UNL     1      45.318   2.227   9.432  0.00  0.00    +0.000 C 
ATOM      9  C   UNL     1      45.779   1.498   8.180  0.00  0.00    +0.000 C 
ATOM     10  O   UNL     1      46.795   2.246   7.514  0.00  0.00    +0.000 OA
ATOM     11  C   UNL     1      46.318   3.514   7.063  0.00  0.00    +0.000 C 
ATOM     12  C   UNL     1      45.907   4.381   8.244  0.00  0.00    +0.000 C 
ENDBRANCH   5   7
BRANCH   1  13
ATOM     13  C   UNL     1      46.002   5.348  13.725  0.00  0.00    +0.000 C 
BRANCH  13  14
ATOM     14  N   UNL     1      46.618   4.066  14.001  0.00  0.00    +0.000 N 
ATOM     15  H   UNL     1      47.268   3.747  13.285  0.00  0.00    +0.000 HD
BRANCH  14  20
ATOM     16  F   UNL     1      49.023   3.019  18.817  0.00  0.00    +0.000 F 
ATOM     17  C   UNL     1      48.432   3.339  17.660  0.00  0.00    +0.000 A 
ATOM     18  C   UNL     1      48.505   2.487  16.578  0.00  0.00    +0.000 A 
ATOM     19  N   UNL     1      47.931   2.744  15.374  0.00  0.00    +0.000 NA
ATOM     20  C   UNL     1      47.238   3.893  15.231  0.00  0.00    +0.000 A 
ATOM     21  C   UNL     1      47.111   4.797  16.279  0.00  0.00    +0.000 A 
ATOM     22  C   UNL     1      47.724   4.516  17.499  0.00  0.00    +0.000 A 
ATOM     23 CL   UNL     1      47.584   5.642  18.793  0.00  0.00    +0.000 Cl
ENDBRANCH  14  20
ENDBRANCH  13  14
ENDBRANCH   1  13
TORSDOF 4
ENDMDL
MODEL 8
REMARK VINA RESULT:    -6.707      4.133      6.938
REMARK INTER + INTRA:          -9.054
REMARK INTER:                  -8.323
REMARK INTRA:                  -0.731
REMARK UNBOUND:                -0.779
REMARK  Name = 
REMARK  4 active torsions:
REMARK  status: ('A' for Active; 'I' for Inactive)
REMARK    1  A    between atoms: C_5  and  N_6
REMARK    2  A    between atoms: N_6  and  C_7
REMARK    3  A    between atoms: C_7  and  C_8
REMARK    4  A    between atoms: C_12  and  C_13
REMARK                            x       y       z     vdW  Elec       q    Type
REMARK                         _______ _______ _______ _____ _____    ______ ____
ROOT
ATOM      1  C   UNL     1      44.822   4.906  12.544  0.00  0.00    +0.000 A 
ATOM      2  C   UNL     1      43.527   5.422  12.540  0.00  0.00    +0.000 A 
ATOM      3  C   UNL     1      42.787   5.335  11.372  0.00  0.00    +0.000 A 
ATOM      4  N   UNL     1      43.238   4.767  10.232  0.00  0.00    +0.000 NA
ATOM      5  C   UNL     1      44.503   4.281  10.231  0.00  0.00    +0.000 A 
ATOM      6  C   UNL     1      45.325   4.368  11.355  0.00  0.00    +0.000 A 
ENDROOT
BRANCH   5   7
ATOM      7  C   UNL     1      44.953   3.570   8.970  0.00  0.00    +0.000 C 
ATOM      8  C   UNL     1      45.486   2.161   9.275  0.00  0.00    +0.000 C 
ATOM      9  C   UNL     1      46.039   1.504   8.021  0.00  0.00    +0.000 C 
ATOM     10  O   UNL     1      47.030   2.335   7.418  0.00  0.00    +0.000 OA
ATOM     11  C   UNL     1      46.490   3.584   6.987  0.00  0.00    +0.000 C 
ATOM     12  C   UNL     1      45.980   4.385   8.176  0.00  0.00    +0.000 C 
ENDBRANCH   5   7
BRANCH   1  13
ATOM     13  C   UNL     1      45.651   4.866  13.803  0.00  0.00    +0.000 C 
BRANCH  13  14
ATOM     14  N   UNL     1      47.061   4.737  13.492  0.00  0.00    +0.000 N 
ATOM     15  H   UNL     1      47.257   4.308  12.590  0.00  0.00    +0.000 HD
BRANCH  14  20
ATOM     16  F   UNL     1      50.115   9.227  14.256  0.00  0.00    +0.000 F 
ATOM     17  C   UNL     1      49.376   8.141  14.004  0.00  0.00    +0.000 A 
ATOM     18  C   UNL     1      49.184   7.183  14.976  0.00  0.00    +0.000 A 
ATOM     19  N   UNL     1      48.446   6.057  14.793  0.00  0.00    +0.000 NA
ATOM     20  C   UNL     1      47.856   5.870  13.595  0.00  0.00    +0.000 A 
ATOM     21  C   UNL     1      47.994   6.796  12.568  0.00  0.00    +0.000 A 
ATOM     22  C   UNL     1      48.770   7.935  12.777  0.00  0.00    +0.000 A 
ATOM     23 CL   UNL     1      48.959   9.075  11.501  0.00  0.00    +0.000 Cl
ENDBRANCH  14  20
ENDBRANCH  13  14
ENDBRANCH   1  13
TORSDOF 4
ENDMDL
MODEL 9
REMARK VINA RESULT:    -6.415      3.908      5.842
REMARK INTER + INTRA:          -8.695
REMARK INTER:                  -8.027
REMARK INTRA:                  -0.668
REMARK UNBOUND:                -0.779
REMARK  Name = 
REMARK  4 active torsions:
REMARK  status: ('A' for Active; 'I' for Inactive)
REMARK    1  A    between atoms: C_5  and  N_6
REMARK    2  A    between atoms: N_6  and  C_7
REMARK    3  A    between atoms: C_7  and  C_8
REMARK    4  A    between atoms: C_12  and  C_13
REMARK                            x       y       z     vdW  Elec       q    Type
REMARK                         _______ _______ _______ _____ _____    ______ ____
ROOT
ATOM      1  C   UNL     1      47.906   6.871  12.912  0.00  0.00    +0.000 A 
ATOM      2  C   UNL     1      49.126   7.545  12.861  0.00  0.00    +0.000 A 
ATOM      3  C   UNL     1      49.952   7.496  13.972  0.00  0.00    +0.000 A 
ATOM      4  N   UNL     1      49.653   6.824  15.107  0.00  0.00    +0.000 NA
ATOM      5  C   UNL     1      48.461   6.184  15.161  0.00  0.00    +0.000 A 
ATOM      6  C   UNL     1      47.557   6.220  14.100  0.00  0.00    +0.000 A 
ENDROOT
BRANCH   5   7
ATOM      7  C   UNL     1      48.190   5.364  16.408  0.00  0.00    +0.000 C 
ATOM      8  C   UNL     1      49.463   5.176  17.248  0.00  0.00    +0.000 C 
ATOM      9  C   UNL     1      49.204   4.259  18.433  0.00  0.00    +0.000 C 
ATOM     10  O   UNL     1      48.662   3.015  17.991  0.00  0.00    +0.000 OA
ATOM     11  C   UNL     1      47.396   3.180  17.353  0.00  0.00    +0.000 C 
ATOM     12  C   UNL     1      47.539   4.014  16.088  0.00  0.00    +0.000 C 
ENDBRANCH   5   7
BRANCH   1  13
ATOM     13  C   UNL     1      47.001   6.787  11.708  0.00  0.00    +0.000 C 
BRANCH  13  14
ATOM     14  N   UNL     1      45.610   6.730  12.108  0.00  0.00    +0.000 N 
ATOM     15  H   UNL     1      45.031   7.480  11.734  0.00  0.00    +0.000 HD
BRANCH  14  20
ATOM     16  F   UNL     1      42.919   1.970  11.691  0.00  0.00    +0.000 F 
ATOM     17  C   UNL     1      43.583   3.130  11.726  0.00  0.00    +0.000 A 
ATOM     18  C   UNL     1      43.495   3.955  12.828  0.00  0.00    +0.000 A 
ATOM     19  N   UNL     1      44.140   5.145  12.936  0.00  0.00    +0.000 NA
ATOM     20  C   UNL     1      44.923   5.539  11.910  0.00  0.00    +0.000 A 
ATOM     21  C   UNL     1      45.071   4.759  10.770  0.00  0.00    +0.000 A 
ATOM     22  C   UNL     1      44.384   3.549  10.679  0.00  0.00    +0.000 A 
ATOM     23 CL   UNL     1      44.550   2.589   9.260  0.00  0.00    +0.000 Cl
ENDBRANCH  14  20
ENDBRANCH  13  14
ENDBRANCH   1  13
TORSDOF 4
ENDMDL
