MODEL 1
REMARK VINA RESULT:    -7.530      0.000      0.000
REMARK INTER + INTRA:         -13.146
REMARK INTER:                 -11.932
REMARK INTRA:                  -1.214
REMARK UNBOUND:                -1.214
REMARK  Name = 
REMARK  12 active torsions:
REMARK  status: ('A' for Active; 'I' for Inactive)
REMARK    1  A    between atoms: C_1  and  N_2
REMARK    2  A    between atoms: N_2  and  C_3
REMARK    3  A    between atoms: N_2  and  C_4
REMARK    4  A    between atoms: C_4  and  C_5
REMARK    5  A    between atoms: C_5  and  C_6
REMARK    6  A    between atoms: C_6  and  C_7
REMARK    7  A    between atoms: C_6  and  C_18
REMARK    8  A    between atoms: C_7  and  O_8
REMARK    9  A    between atoms: O_8  and  C_9
REMARK   10  A    between atoms: C_12  and  C_13
REMARK   11  A    between atoms: C_22  and  O_23
REMARK   12  A    between atoms: O_23  and  C_24
REMARK                            x       y       z     vdW  Elec       q    Type
REMARK                         _______ _______ _______ _____ _____    ______ ____
ROOT
ATOM      1  C   UNL     1      44.054   5.805  11.840  0.00  0.00    +0.000 C 
ENDROOT
BRANCH   1   2
ATOM      2  C   UNL     1      45.408   5.725  12.548  0.00  0.00    +0.000 A 
ATOM      3  C   UNL     1      46.503   6.513  12.172  0.00  0.00    +0.000 A 
ATOM      4  C   UNL     1      47.704   6.446  12.882  0.00  0.00    +0.000 A 
ATOM      5  C   UNL     1      47.829   5.595  13.980  0.00  0.00    +0.000 A 
ATOM      6  C   UNL     1      46.755   4.797  14.361  0.00  0.00    +0.000 A 
ATOM      7  C   UNL     1      45.551   4.869  13.654  0.00  0.00    +0.000 A 
BRANCH   6   8
ATOM      8  O   UNL     1      46.767   3.942  15.435  0.00  0.00    +0.000 OA
BRANCH   8   9
ATOM      9  C   UNL     1      47.841   4.049  16.397  0.00  0.00    +0.000 C 
ATOM     10  C   UNL     1      48.528   2.732  16.830  0.00  0.00    +0.000 C 
ATOM     11  C   UNL     1      48.384   3.158  18.296  0.00  0.00    +0.000 C 
ATOM     12  C   UNL     1      47.367   4.219  17.860  0.00  0.00    +0.000 C 
ENDBRANCH   8   9
ENDBRANCH   6   8
ENDBRANCH   1   2
BRANCH   1  13
ATOM     13  C   UNL     1      44.099   6.978  10.831  0.00  0.00    +0.000 C 
BRANCH  13  14
ATOM     14  C   UNL     1      43.387   8.265  11.277  0.00  0.00    +0.000 C 
BRANCH  14  16
ATOM     15  C   UNL     1      42.972  10.376  10.139  0.00  0.00    +0.000 C 
ATOM     16  N   UNL     1      43.980   9.505  10.749  0.00  0.00    +0.000 NA
ATOM     17  C   UNL     1      44.668  10.232  11.821  0.00  0.00    +0.000 C 
ENDBRANCH  14  16
ENDBRANCH  13  14
ENDBRANCH   1  13
BRANCH   1  18
ATOM     18  C   UNL     1      43.628   4.497  11.145  0.00  0.00    +0.000 C 
BRANCH  18  19
ATOM     19  O   UNL     1      43.582   4.680   9.724  0.00  0.00    +0.000 OA
BRANCH  19  20
ATOM     20  C   UNL     1      44.580   3.988   9.072  0.00  0.00    +0.000 A 
ATOM     21  C   UNL     1      44.626   2.619   9.268  0.00  0.00    +0.000 A 
ATOM     22  C   UNL     1      45.597   1.885   8.586  0.00  0.00    +0.000 A 
ATOM     23  C   UNL     1      46.489   2.541   7.730  0.00  0.00    +0.000 A 
ATOM     24  C   UNL     1      46.368   3.917   7.618  0.00  0.00    +0.000 A 
ATOM     25  N   UNL     1      45.439   4.655   8.269  0.00  0.00    +0.000 NA
BRANCH  23  26
ATOM     26  C   UNL     1      47.496   1.751   6.982  0.00  0.00    +0.000 C 
ATOM     27  N   UNL     1      48.536   2.399   6.380  0.00  0.00    +0.000 N 
ATOM     28  O   UNL     1      47.403   0.531   6.894  0.00  0.00    +0.000 OA
ATOM     29  H   UNL     1      48.699   3.395   6.370  0.00  0.00    +0.000 HD
ATOM     30  H   UNL     1      49.187   1.819   5.862  0.00  0.00    +0.000 HD
ENDBRANCH  23  26
ENDBRANCH  19  20
ENDBRANCH  18  19
ENDBRANCH   1  18
TORSDOF 10
ENDMDL
MODEL 2
REMARK VINA RESULT:    -7.398      2.464      4.536
REMARK INTER + INTRA:         -12.938
REMARK INTER:                 -11.516
REMARK INTRA:                  -1.421
REMARK UNBOUND:                -1.214
REMARK  Name = 
REMARK  12 active torsions:
REMARK  status: ('A' for Active; 'I' for Inactive)
REMARK    1  A    between atoms: C_1  and  N_2
REMARK    2  A    between atoms: N_2  and  C_3
REMARK    3  A    between atoms: N_2  and  C_4
REMARK    4  A    between atoms: C_4  and  C_5
REMARK    5  A    between atoms: C_5  and  C_6
REMARK    6  A    between atoms: C_6  and  C_7
REMARK    7  A    between atoms: C_6  and  C_18
REMARK    8  A    between atoms: C_7  and  O_8
REMARK    9  A    between atoms: O_8  and  C_9
REMARK   10  A    between atoms: C_12  and  C_13
REMARK   11  A    between atoms: C_22  and  O_23
REMARK   12  A    between atoms: O_23  and  C_24
REMARK                            x       y       z     vdW  Elec       q    Type
REMARK                         _______ _______ _______ _____ _____    ______ ____
ROOT
ATOM      1  C   UNL     1      45.288   4.741  11.834  0.00  0.00    +0.000 C 
ENDROOT
BRANCH   1   2
ATOM      2  C   UNL     1      45.759   6.185  12.015  0.00  0.00    +0.000 A 
ATOM      3  C   UNL     1      44.969   7.165  12.630  0.00  0.00    +0.000 A 
ATOM      4  C   UNL     1      45.462   8.458  12.823  0.00  0.00    +0.000 A 
ATOM      5  C   UNL     1      46.752   8.791  12.410  0.00  0.00    +0.000 A 
ATOM      6  C   UNL     1      47.547   7.833  11.787  0.00  0.00    +0.000 A 
ATOM      7  C   UNL     1      47.055   6.538  11.600  0.00  0.00    +0.000 A 
BRANCH   6   8
ATOM      8  O   UNL     1      48.833   8.051  11.362  0.00  0.00    +0.000 OA
BRANCH   8   9
ATOM      9  C   UNL     1      49.725   8.816  12.206  0.00  0.00    +0.000 C 
ATOM     10  C   UNL     1      51.189   8.961  11.728  0.00  0.00    +0.000 C 
ATOM     11  C   UNL     1      51.669   8.559  13.128  0.00  0.00    +0.000 C 
ATOM     12  C   UNL     1      50.259   8.040  13.432  0.00  0.00    +0.000 C 
ENDBRANCH   8   9
ENDBRANCH   6   8
ENDBRANCH   1   2
BRANCH   1  13
ATOM     13  C   UNL     1      45.367   4.026  13.205  0.00  0.00    +0.000 C 
BRANCH  13  14
ATOM     14  C   UNL     1      46.786   3.789  13.748  0.00  0.00    +0.000 C 
BRANCH  14  16
ATOM     15  C   UNL     1      47.708   3.303  15.947  0.00  0.00    +0.000 C 
ATOM     16  N   UNL     1      47.005   4.284  15.117  0.00  0.00    +0.000 NA
ATOM     17  C   UNL     1      47.771   5.534  15.086  0.00  0.00    +0.000 C 
ENDBRANCH  14  16
ENDBRANCH  13  14
ENDBRANCH   1  13
BRANCH   1  18
ATOM     18  C   UNL     1      43.878   4.609  11.225  0.00  0.00    +0.000 C 
BRANCH  18  19
ATOM     19  O   UNL     1      43.911   4.908   9.823  0.00  0.00    +0.000 OA
BRANCH  19  20
ATOM     20  C   UNL     1      44.799   4.108   9.135  0.00  0.00    +0.000 A 
ATOM     21  C   UNL     1      44.720   2.745   9.361  0.00  0.00    +0.000 A 
ATOM     22  C   UNL     1      45.575   1.906   8.646  0.00  0.00    +0.000 A 
ATOM     23  C   UNL     1      46.479   2.454   7.728  0.00  0.00    +0.000 A 
ATOM     24  C   UNL     1      46.488   3.833   7.590  0.00  0.00    +0.000 A 
ATOM     25  N   UNL     1      45.673   4.671   8.272  0.00  0.00    +0.000 NA
BRANCH  23  26
ATOM     26  C   UNL     1      47.361   1.554   6.947  0.00  0.00    +0.000 C 
ATOM     27  N   UNL     1      48.536   2.041   6.450  0.00  0.00    +0.000 N 
ATOM     28  O   UNL     1      47.045   0.387   6.738  0.00  0.00    +0.000 OA
ATOM     29  H   UNL     1      48.882   2.984   6.542  0.00  0.00    +0.000 HD
ATOM     30  H   UNL     1      49.094   1.395   5.903  0.00  0.00    +0.000 HD
ENDBRANCH  23  26
ENDBRANCH  19  20
ENDBRANCH  18  19
ENDBRANCH   1  18
TORSDOF 10
ENDMDL
MODEL 3
REMARK VINA RESULT:    -7.308      1.955      6.006
REMARK INTER + INTRA:         -12.795
REMARK INTER:                 -11.961
REMARK INTRA:                  -0.834
REMARK UNBOUND:                -1.214
REMARK  Name = 
REMARK  12 active torsions:
REMARK  status: ('A' for Active; 'I' for Inactive)
REMARK    1  A    between atoms: C_1  and  N_2
REMARK    2  A    between atoms: N_2  and  C_3
REMARK    3  A    between atoms: N_2  and  C_4
REMARK    4  A    between atoms: C_4  and  C_5
REMARK    5  A    between atoms: C_5  and  C_6
REMARK    6  A    between atoms: C_6  and  C_7
REMARK    7  A    between atoms: C_6  and  C_18
REMARK    8  A    between atoms: C_7  and  O_8
REMARK    9  A    between atoms: O_8  and  C_9
REMARK   10  A    between atoms: C_12  and  C_13
REMARK   11  A    between atoms: C_22  and  O_23
REMARK   12  A    between atoms: O_23  and  C_24
REMARK                            x       y       z     vdW  Elec       q    Type
REMARK                         _______ _______ _______ _____ _____    ______ ____
ROOT
ATOM      1  C   UNL     1      45.048   5.510  11.764  0.00  0.00    +0.000 C 
ENDROOT
BRANCH   1   2
ATOM      2  C   UNL     1      44.918   7.034  11.781  0.00  0.00    +0.000 A 
ATOM      3  C   UNL     1      45.848   7.864  12.421  0.00  0.00    +0.000 A 
ATOM      4  C   UNL     1      45.719   9.254  12.363  0.00  0.00    +0.000 A 
ATOM      5  C   UNL     1      44.662   9.837  11.664  0.00  0.00    +0.000 A 
ATOM      6  C   UNL     1      43.722   9.027  11.032  0.00  0.00    +0.000 A 
ATOM      7  C   UNL     1      43.856   7.636  11.084  0.00  0.00    +0.000 A 
BRANCH   6   8
ATOM      8  O   UNL     1      42.658   9.498  10.303  0.00  0.00    +0.000 OA
BRANCH   8   9
ATOM      9  C   UNL     1      41.826  10.533  10.877  0.00  0.00    +0.000 C 
ATOM     10  C   UNL     1      40.378  10.138  11.254  0.00  0.00    +0.000 C 
ATOM     11  C   UNL     1      39.866  11.388  10.527  0.00  0.00    +0.000 C 
ATOM     12  C   UNL     1      41.230  11.515   9.841  0.00  0.00    +0.000 C 
ENDBRANCH   8   9
ENDBRANCH   6   8
ENDBRANCH   1   2
BRANCH   1  13
ATOM     13  C   UNL     1      45.388   5.033  13.197  0.00  0.00    +0.000 C 
BRANCH  13  14
ATOM     14  C   UNL     1      46.610   4.108  13.316  0.00  0.00    +0.000 C 
BRANCH  14  16
ATOM     15  C   UNL     1      47.798   5.994  14.291  0.00  0.00    +0.000 C 
ATOM     16  N   UNL     1      47.609   4.542  14.306  0.00  0.00    +0.000 NA
ATOM     17  C   UNL     1      47.207   4.116  15.651  0.00  0.00    +0.000 C 
ENDBRANCH  14  16
ENDBRANCH  13  14
ENDBRANCH   1  13
BRANCH   1  18
ATOM     18  C   UNL     1      43.807   4.777  11.220  0.00  0.00    +0.000 C 
BRANCH  18  19
ATOM     19  O   UNL     1      43.740   4.902   9.792  0.00  0.00    +0.000 OA
BRANCH  19  20
ATOM     20  C   UNL     1      44.658   4.098   9.150  0.00  0.00    +0.000 A 
ATOM     21  C   UNL     1      44.630   2.747   9.454  0.00  0.00    +0.000 A 
ATOM     22  C   UNL     1      45.517   1.902   8.787  0.00  0.00    +0.000 A 
ATOM     23  C   UNL     1      46.402   2.430   7.839  0.00  0.00    +0.000 A 
ATOM     24  C   UNL     1      46.359   3.798   7.622  0.00  0.00    +0.000 A 
ATOM     25  N   UNL     1      45.512   4.643   8.257  0.00  0.00    +0.000 NA
BRANCH  23  26
ATOM     26  C   UNL     1      47.317   1.521   7.109  0.00  0.00    +0.000 C 
ATOM     27  N   UNL     1      48.497   2.011   6.628  0.00  0.00    +0.000 N 
ATOM     28  O   UNL     1      47.025   0.343   6.928  0.00  0.00    +0.000 OA
ATOM     29  H   UNL     1      48.826   2.962   6.700  0.00  0.00    +0.000 HD
ATOM     30  H   UNL     1      49.079   1.358   6.117  0.00  0.00    +0.000 HD
ENDBRANCH  23  26
ENDBRANCH  19  20
ENDBRANCH  18  19
ENDBRANCH   1  18
TORSDOF 10
ENDMDL
MODEL 4
REMARK VINA RESULT:    -7.073      2.933      7.462
REMARK INTER + INTRA:         -12.421
REMARK INTER:                 -11.408
REMARK INTRA:                  -1.014
REMARK UNBOUND:                -1.214
REMARK  Name = 
REMARK  12 active torsions:
REMARK  status: ('A' for Active; 'I' for Inactive)
REMARK    1  A    between atoms: C_1  and  N_2
REMARK    2  A    between atoms: N_2  and  C_3
REMARK    3  A    between atoms: N_2  and  C_4
REMARK    4  A    between atoms: C_4  and  C_5
REMARK    5  A    between atoms: C_5  and  C_6
REMARK    6  A    between atoms: C_6  and  C_7
REMARK    7  A    between atoms: C_6  and  C_18
REMARK    8  A    between atoms: C_7  and  O_8
REMARK    9  A    between atoms: O_8  and  C_9
REMARK   10  A    between atoms: C_12  and  C_13
REMARK   11  A    between atoms: C_22  and  O_23
REMARK   12  A    between atoms: O_23  and  C_24
REMARK                            x       y       z     vdW  Elec       q    Type
REMARK                         _______ _______ _______ _____ _____    ______ ____
ROOT
ATOM      1  C   UNL     1      45.832   6.964  11.593  0.00  0.00    +0.000 C 
ENDROOT
BRANCH   1   2
ATOM      2  C   UNL     1      45.263   5.668  11.012  0.00  0.00    +0.000 A 
ATOM      3  C   UNL     1      44.455   4.799  11.755  0.00  0.00    +0.000 A 
ATOM      4  C   UNL     1      43.912   3.654  11.166  0.00  0.00    +0.000 A 
ATOM      5  C   UNL     1      44.165   3.362   9.825  0.00  0.00    +0.000 A 
ATOM      6  C   UNL     1      44.976   4.208   9.075  0.00  0.00    +0.000 A 
ATOM      7  C   UNL     1      45.513   5.358   9.664  0.00  0.00    +0.000 A 
BRANCH   6   8
ATOM      8  O   UNL     1      45.271   4.023   7.747  0.00  0.00    +0.000 OA
BRANCH   8   9
ATOM      9  C   UNL     1      46.570   3.495   7.391  0.00  0.00    +0.000 C 
ATOM     10  C   UNL     1      46.835   3.245   5.887  0.00  0.00    +0.000 C 
ATOM     11  C   UNL     1      47.364   1.847   6.231  0.00  0.00    +0.000 C 
ATOM     12  C   UNL     1      46.719   1.972   7.616  0.00  0.00    +0.000 C 
ENDBRANCH   8   9
ENDBRANCH   6   8
ENDBRANCH   1   2
BRANCH   1  13
ATOM     13  C   UNL     1      44.730   8.050  11.537  0.00  0.00    +0.000 C 
BRANCH  13  14
ATOM     14  C   UNL     1      45.076   9.383  12.218  0.00  0.00    +0.000 C 
BRANCH  14  16
ATOM     15  C   UNL     1      44.936  11.708  11.513  0.00  0.00    +0.000 C 
ATOM     16  N   UNL     1      44.185  10.499  11.862  0.00  0.00    +0.000 NA
ATOM     17  C   UNL     1      43.323  10.119  10.738  0.00  0.00    +0.000 C 
ENDBRANCH  14  16
ENDBRANCH  13  14
ENDBRANCH   1  13
BRANCH   1  18
ATOM     18  C   UNL     1      46.392   6.822  13.022  0.00  0.00    +0.000 C 
BRANCH  18  19
ATOM     19  O   UNL     1      47.230   5.662  13.115  0.00  0.00    +0.000 OA
BRANCH  19  20
ATOM     20  C   UNL     1      47.591   5.376  14.415  0.00  0.00    +0.000 A 
ATOM     21  C   UNL     1      47.008   4.265  14.998  0.00  0.00    +0.000 A 
ATOM     22  C   UNL     1      47.386   3.924  16.297  0.00  0.00    +0.000 A 
ATOM     23  C   UNL     1      48.335   4.702  16.971  0.00  0.00    +0.000 A 
ATOM     24  C   UNL     1      48.845   5.804  16.302  0.00  0.00    +0.000 A 
ATOM     25  N   UNL     1      48.494   6.161  15.044  0.00  0.00    +0.000 NA
BRANCH  23  26
ATOM     26  C   UNL     1      48.759   4.315  18.337  0.00  0.00    +0.000 C 
ATOM     27  N   UNL     1      48.380   3.100  18.832  0.00  0.00    +0.000 N 
ATOM     28  O   UNL     1      49.435   5.072  19.027  0.00  0.00    +0.000 OA
ATOM     29  H   UNL     1      47.810   2.412  18.363  0.00  0.00    +0.000 HD
ATOM     30  H   UNL     1      48.675   2.889  19.778  0.00  0.00    +0.000 HD
ENDBRANCH  23  26
ENDBRANCH  19  20
ENDBRANCH  18  19
ENDBRANCH   1  18
TORSDOF 10
ENDMDL
MODEL 5
REMARK VINA RESULT:    -6.647      3.747      8.404
REMARK INTER + INTRA:         -11.747
REMARK INTER:                 -10.634
REMARK INTRA:                  -1.114
REMARK UNBOUND:                -1.214
REMARK  Name = 
REMARK  12 active torsions:
REMARK  status: ('A' for Active; 'I' for Inactive)
REMARK    1  A    between atoms: C_1  and  N_2
REMARK    2  A    between atoms: N_2  and  C_3
REMARK    3  A    between atoms: N_2  and  C_4
REMARK    4  A    between atoms: C_4  and  C_5
REMARK    5  A    between atoms: C_5  and  C_6
REMARK    6  A    between atoms: C_6  and  C_7
REMARK    7  A    between atoms: C_6  and  C_18
REMARK    8  A    between atoms: C_7  and  O_8
REMARK    9  A    between atoms: O_8  and  C_9
REMARK   10  A    between atoms: C_12  and  C_13
REMARK   11  A    between atoms: C_22  and  O_23
REMARK   12  A    between atoms: O_23  and  C_24
REMARK                            x       y       z     vdW  Elec       q    Type
REMARK                         _______ _______ _______ _____ _____    ______ ____
ROOT
ATOM      1  C   UNL     1      46.854   4.575  13.456  0.00  0.00    +0.000 C 
ENDROOT
BRANCH   1   2
ATOM      2  C   UNL     1      45.521   4.564  12.706  0.00  0.00    +0.000 A 
ATOM      3  C   UNL     1      44.557   5.568  12.865  0.00  0.00    +0.000 A 
ATOM      4  C   UNL     1      43.377   5.545  12.117  0.00  0.00    +0.000 A 
ATOM      5  C   UNL     1      43.142   4.523  11.198  0.00  0.00    +0.000 A 
ATOM      6  C   UNL     1      44.083   3.511  11.035  0.00  0.00    +0.000 A 
ATOM      7  C   UNL     1      45.267   3.538  11.779  0.00  0.00    +0.000 A 
BRANCH   6   8
ATOM      8  O   UNL     1      43.959   2.472  10.147  0.00  0.00    +0.000 OA
BRANCH   8   9
ATOM      9  C   UNL     1      44.408   2.665   8.785  0.00  0.00    +0.000 C 
ATOM     10  C   UNL     1      45.813   2.123   8.428  0.00  0.00    +0.000 C 
ATOM     11  C   UNL     1      46.146   3.469   7.771  0.00  0.00    +0.000 C 
ATOM     12  C   UNL     1      44.940   4.087   8.487  0.00  0.00    +0.000 C 
ENDBRANCH   8   9
ENDBRANCH   6   8
ENDBRANCH   1   2
BRANCH   1  13
ATOM     13  C   UNL     1      47.648   5.831  13.021  0.00  0.00    +0.000 C 
BRANCH  13  14
ATOM     14  C   UNL     1      48.055   6.784  14.157  0.00  0.00    +0.000 C 
BRANCH  14  16
ATOM     15  C   UNL     1      46.592   8.558  13.362  0.00  0.00    +0.000 C 
ATOM     16  N   UNL     1      47.938   8.213  13.824  0.00  0.00    +0.000 NA
ATOM     17  C   UNL     1      48.277   9.033  14.993  0.00  0.00    +0.000 C 
ENDBRANCH  14  16
ENDBRANCH  13  14
ENDBRANCH   1  13
BRANCH   1  18
ATOM     18  C   UNL     1      46.715   4.514  14.989  0.00  0.00    +0.000 C 
BRANCH  18  19
ATOM     19  O   UNL     1      47.581   3.506  15.529  0.00  0.00    +0.000 OA
BRANCH  19  20
ATOM     20  C   UNL     1      48.179   3.901  16.706  0.00  0.00    +0.000 A 
ATOM     21  C   UNL     1      47.399   4.621  17.595  0.00  0.00    +0.000 A 
ATOM     22  C   UNL     1      47.963   4.996  18.815  0.00  0.00    +0.000 A 
ATOM     23  C   UNL     1      49.284   4.640  19.109  0.00  0.00    +0.000 A 
ATOM     24  C   UNL     1      49.983   3.933  18.143  0.00  0.00    +0.000 A 
ATOM     25  N   UNL     1      49.463   3.559  16.950  0.00  0.00    +0.000 NA
BRANCH  23  26
ATOM     26  C   UNL     1      49.865   5.012  20.421  0.00  0.00    +0.000 C 
ATOM     27  N   UNL     1      51.074   4.491  20.785  0.00  0.00    +0.000 N 
ATOM     28  O   UNL     1      49.274   5.772  21.181  0.00  0.00    +0.000 OA
ATOM     29  H   UNL     1      51.635   3.844  20.251  0.00  0.00    +0.000 HD
ATOM     30  H   UNL     1      51.420   4.756  21.699  0.00  0.00    +0.000 HD
ENDBRANCH  23  26
ENDBRANCH  19  20
ENDBRANCH  18  19
ENDBRANCH   1  18
TORSDOF 10
ENDMDL
MODEL 6
REMARK VINA RESULT:    -6.627      2.900      7.864
REMARK INTER + INTRA:         -11.715
REMARK INTER:                 -10.545
REMARK INTRA:                  -1.170
REMARK UNBOUND:                -1.214
REMARK  Name = 
REMARK  12 active torsions:
REMARK  status: ('A' for Active; 'I' for Inactive)
REMARK    1  A    between atoms: C_1  and  N_2
REMARK    2  A    between atoms: N_2  and  C_3
REMARK    3  A    between atoms: N_2  and  C_4
REMARK    4  A    between atoms: C_4  and  C_5
REMARK    5  A    between atoms: C_5  and  C_6
REMARK    6  A    between atoms: C_6  and  C_7
REMARK    7  A    between atoms: C_6  and  C_18
REMARK    8  A    between atoms: C_7  and  O_8
REMARK    9  A    between atoms: O_8  and  C_9
REMARK   10  A    between atoms: C_12  and  C_13
REMARK   11  A    between atoms: C_22  and  O_23
REMARK   12  A    between atoms: O_23  and  C_24
REMARK                            x       y       z     vdW  Elec       q    Type
REMARK                         _______ _______ _______ _____ _____    ______ ____
ROOT
ATOM      1  C   UNL     1      46.348   5.478  13.684  0.00  0.00    +0.000 C 
ENDROOT
BRANCH   1   2
ATOM      2  C   UNL     1      45.178   4.933  12.864  0.00  0.00    +0.000 A 
ATOM      3  C   UNL     1      43.883   5.460  12.953  0.00  0.00    +0.000 A 
ATOM      4  C   UNL     1      42.857   4.966  12.143  0.00  0.00    +0.000 A 
ATOM      5  C   UNL     1      43.108   3.942  11.231  0.00  0.00    +0.000 A 
ATOM      6  C   UNL     1      44.385   3.398  11.137  0.00  0.00    +0.000 A 
ATOM      7  C   UNL     1      45.414   3.897  11.942  0.00  0.00    +0.000 A 
BRANCH   6   8
ATOM      8  O   UNL     1      44.742   2.403  10.261  0.00  0.00    +0.000 OA
BRANCH   8   9
ATOM      9  C   UNL     1      44.797   2.708   8.848  0.00  0.00    +0.000 C 
ATOM     10  C   UNL     1      45.981   2.114   8.049  0.00  0.00    +0.000 C 
ATOM     11  C   UNL     1      46.238   3.496   7.435  0.00  0.00    +0.000 C 
ATOM     12  C   UNL     1      45.353   4.114   8.523  0.00  0.00    +0.000 C 
ENDBRANCH   8   9
ENDBRANCH   6   8
ENDBRANCH   1   2
BRANCH   1  13
ATOM     13  C   UNL     1      47.117   4.280  14.294  0.00  0.00    +0.000 C 
BRANCH  13  14
ATOM     14  C   UNL     1      47.195   4.254  15.829  0.00  0.00    +0.000 C 
BRANCH  14  16
ATOM     15  C   UNL     1      48.972   5.139  17.236  0.00  0.00    +0.000 C 
ATOM     16  N   UNL     1      48.548   4.039  16.367  0.00  0.00    +0.000 NA
ATOM     17  C   UNL     1      48.599   2.778  17.116  0.00  0.00    +0.000 C 
ENDBRANCH  14  16
ENDBRANCH  13  14
ENDBRANCH   1  13
BRANCH   1  18
ATOM     18  C   UNL     1      47.298   6.397  12.893  0.00  0.00    +0.000 C 
BRANCH  18  19
ATOM     19  O   UNL     1      47.489   7.636  13.591  0.00  0.00    +0.000 OA
BRANCH  19  20
ATOM     20  C   UNL     1      46.900   8.701  12.943  0.00  0.00    +0.000 A 
ATOM     21  C   UNL     1      45.518   8.700  12.863  0.00  0.00    +0.000 A 
ATOM     22  C   UNL     1      44.890   9.787  12.252  0.00  0.00    +0.000 A 
ATOM     23  C   UNL     1      45.661  10.838  11.743  0.00  0.00    +0.000 A 
ATOM     24  C   UNL     1      47.038  10.732  11.859  0.00  0.00    +0.000 A 
ATOM     25  N   UNL     1      47.674   9.689  12.443  0.00  0.00    +0.000 NA
BRANCH  23  26
ATOM     26  C   UNL     1      44.987  12.005  11.126  0.00  0.00    +0.000 C 
ATOM     27  N   UNL     1      45.301  12.354   9.844  0.00  0.00    +0.000 N 
ATOM     28  O   UNL     1      44.160  12.660  11.753  0.00  0.00    +0.000 OA
ATOM     29  H   UNL     1      45.977  11.903   9.247  0.00  0.00    +0.000 HD
ATOM     30  H   UNL     1      44.830  13.172   9.474  0.00  0.00    +0.000 HD
ENDBRANCH  23  26
ENDBRANCH  19  20
ENDBRANCH  18  19
ENDBRANCH   1  18
TORSDOF 10
ENDMDL
MODEL 7
REMARK VINA RESULT:    -6.474      3.180      7.174
REMARK INTER + INTRA:         -11.473
REMARK INTER:                 -10.039
REMARK INTRA:                  -1.435
REMARK UNBOUND:                -1.214
REMARK  Name = 
REMARK  12 active torsions:
REMARK  status: ('A' for Active; 'I' for Inactive)
REMARK    1  A    between atoms: C_1  and  N_2
REMARK    2  A    between atoms: N_2  and  C_3
REMARK    3  A    between atoms: N_2  and  C_4
REMARK    4  A    between atoms: C_4  and  C_5
REMARK    5  A    between atoms: C_5  and  C_6
REMARK    6  A    between atoms: C_6  and  C_7
REMARK    7  A    between atoms: C_6  and  C_18
REMARK    8  A    between atoms: C_7  and  O_8
REMARK    9  A    between atoms: O_8  and  C_9
REMARK   10  A    between atoms: C_12  and  C_13
REMARK   11  A    between atoms: C_22  and  O_23
REMARK   12  A    between atoms: O_23  and  C_24
REMARK                            x       y       z     vdW  Elec       q    Type
REMARK                         _______ _______ _______ _____ _____    ______ ____
ROOT
ATOM      1  C   UNL     1      47.392   7.389  11.789  0.00  0.00    +0.000 C 
ENDROOT
BRANCH   1   2
ATOM      2  C   UNL     1      46.017   6.748  11.593  0.00  0.00    +0.000 A 
ATOM      3  C   UNL     1      44.826   7.480  11.673  0.00  0.00    +0.000 A 
ATOM      4  C   UNL     1      43.595   6.864  11.432  0.00  0.00    +0.000 A 
ATOM      5  C   UNL     1      43.535   5.510  11.103  0.00  0.00    +0.000 A 
ATOM      6  C   UNL     1      44.708   4.765  11.031  0.00  0.00    +0.000 A 
ATOM      7  C   UNL     1      45.940   5.383  11.265  0.00  0.00    +0.000 A 
BRANCH   6   8
ATOM      8  O   UNL     1      44.762   3.434  10.697  0.00  0.00    +0.000 OA
BRANCH   8   9
ATOM      9  C   UNL     1      44.604   3.058   9.310  0.00  0.00    +0.000 C 
ATOM     10  C   UNL     1      45.503   1.911   8.788  0.00  0.00    +0.000 C 
ATOM     11  C   UNL     1      45.870   2.773   7.574  0.00  0.00    +0.000 C 
ATOM     12  C   UNL     1      45.319   3.999   8.312  0.00  0.00    +0.000 C 
ENDBRANCH   8   9
ENDBRANCH   6   8
ENDBRANCH   1   2
BRANCH   1  13
ATOM     13  C   UNL     1      47.197   8.766  12.470  0.00  0.00    +0.000 C 
BRANCH  13  14
ATOM     14  C   UNL     1      47.950   9.939  11.822  0.00  0.00    +0.000 C 
BRANCH  14  16
ATOM     15  C   UNL     1      47.837  12.226  10.998  0.00  0.00    +0.000 C 
ATOM     16  N   UNL     1      47.245  11.229  11.894  0.00  0.00    +0.000 NA
ATOM     17  C   UNL     1      45.829  11.051  11.557  0.00  0.00    +0.000 C 
ENDBRANCH  14  16
ENDBRANCH  13  14
ENDBRANCH   1  13
BRANCH   1  18
ATOM     18  C   UNL     1      48.386   6.518  12.582  0.00  0.00    +0.000 C 
BRANCH  18  19
ATOM     19  O   UNL     1      48.604   7.073  13.887  0.00  0.00    +0.000 OA
BRANCH  19  20
ATOM     20  C   UNL     1      48.349   6.168  14.894  0.00  0.00    +0.000 A 
ATOM     21  C   UNL     1      47.335   5.251  14.671  0.00  0.00    +0.000 A 
ATOM     22  C   UNL     1      47.083   4.293  15.654  0.00  0.00    +0.000 A 
ATOM     23  C   UNL     1      47.850   4.280  16.825  0.00  0.00    +0.000 A 
ATOM     24  C   UNL     1      48.828   5.252  16.955  0.00  0.00    +0.000 A 
ATOM     25  N   UNL     1      49.093   6.196  16.021  0.00  0.00    +0.000 NA
BRANCH  23  26
ATOM     26  C   UNL     1      47.599   3.238  17.849  0.00  0.00    +0.000 C 
ATOM     27  N   UNL     1      48.424   3.159  18.934  0.00  0.00    +0.000 N 
ATOM     28  O   UNL     1      46.668   2.446  17.730  0.00  0.00    +0.000 OA
ATOM     29  H   UNL     1      49.227   3.741  19.121  0.00  0.00    +0.000 HD
ATOM     30  H   UNL     1      48.227   2.417  19.595  0.00  0.00    +0.000 HD
ENDBRANCH  23  26
ENDBRANCH  19  20
ENDBRANCH  18  19
ENDBRANCH   1  18
TORSDOF 10
ENDMDL
MODEL 8
REMARK VINA RESULT:    -6.399      2.431      6.076
REMARK INTER + INTRA:         -11.354
REMARK INTER:                 -10.460
REMARK INTRA:                  -0.894
REMARK UNBOUND:                -1.214
REMARK  Name = 
REMARK  12 active torsions:
REMARK  status: ('A' for Active; 'I' for Inactive)
REMARK    1  A    between atoms: C_1  and  N_2
REMARK    2  A    between atoms: N_2  and  C_3
REMARK    3  A    between atoms: N_2  and  C_4
REMARK    4  A    between atoms: C_4  and  C_5
REMARK    5  A    between atoms: C_5  and  C_6
REMARK    6  A    between atoms: C_6  and  C_7
REMARK    7  A    between atoms: C_6  and  C_18
REMARK    8  A    between atoms: C_7  and  O_8
REMARK    9  A    between atoms: O_8  and  C_9
REMARK   10  A    between atoms: C_12  and  C_13
REMARK   11  A    between atoms: C_22  and  O_23
REMARK   12  A    between atoms: O_23  and  C_24
REMARK                            x       y       z     vdW  Elec       q    Type
REMARK                         _______ _______ _______ _____ _____    ______ ____
ROOT
ATOM      1  C   UNL     1      46.278   6.140  12.359  0.00  0.00    +0.000 C 
ENDROOT
BRANCH   1   2
ATOM      2  C   UNL     1      46.432   7.659  12.269  0.00  0.00    +0.000 A 
ATOM      3  C   UNL     1      47.677   8.283  12.112  0.00  0.00    +0.000 A 
ATOM      4  C   UNL     1      47.764   9.671  11.979  0.00  0.00    +0.000 A 
ATOM      5  C   UNL     1      46.612  10.457  11.996  0.00  0.00    +0.000 A 
ATOM      6  C   UNL     1      45.368   9.855  12.162  0.00  0.00    +0.000 A 
ATOM      7  C   UNL     1      45.281   8.465  12.288  0.00  0.00    +0.000 A 
BRANCH   6   8
ATOM      8  O   UNL     1      44.174  10.532  12.174  0.00  0.00    +0.000 OA
BRANCH   8   9
ATOM      9  C   UNL     1      43.575  10.906  10.911  0.00  0.00    +0.000 C 
ATOM     10  C   UNL     1      42.492  12.010  10.951  0.00  0.00    +0.000 C 
ATOM     11  C   UNL     1      41.583  11.125  10.087  0.00  0.00    +0.000 C 
ATOM     12  C   UNL     1      42.485   9.929  10.411  0.00  0.00    +0.000 C 
ENDBRANCH   8   9
ENDBRANCH   6   8
ENDBRANCH   1   2
BRANCH   1  13
ATOM     13  C   UNL     1      47.384   5.592  13.294  0.00  0.00    +0.000 C 
BRANCH  13  14
ATOM     14  C   UNL     1      46.894   4.724  14.464  0.00  0.00    +0.000 C 
BRANCH  14  16
ATOM     15  C   UNL     1      48.464   5.864  15.933  0.00  0.00    +0.000 C 
ATOM     16  N   UNL     1      47.862   4.580  15.564  0.00  0.00    +0.000 NA
ATOM     17  C   UNL     1      47.209   3.993  16.738  0.00  0.00    +0.000 C 
ENDBRANCH  14  16
ENDBRANCH  13  14
ENDBRANCH   1  13
BRANCH   1  18
ATOM     18  C   UNL     1      44.885   5.674  12.823  0.00  0.00    +0.000 C 
BRANCH  18  19
ATOM     19  O   UNL     1      44.001   5.551  11.701  0.00  0.00    +0.000 OA
BRANCH  19  20
ATOM     20  C   UNL     1      44.487   4.693  10.738  0.00  0.00    +0.000 A 
ATOM     21  C   UNL     1      45.222   5.256   9.709  0.00  0.00    +0.000 A 
ATOM     22  C   UNL     1      45.766   4.407   8.744  0.00  0.00    +0.000 A 
ATOM     23  C   UNL     1      45.561   3.026   8.838  0.00  0.00    +0.000 A 
ATOM     24  C   UNL     1      44.796   2.567   9.899  0.00  0.00    +0.000 A 
ATOM     25  N   UNL     1      44.253   3.367  10.847  0.00  0.00    +0.000 NA
BRANCH  23  26
ATOM     26  C   UNL     1      46.171   2.128   7.829  0.00  0.00    +0.000 C 
ATOM     27  N   UNL     1      46.399   2.600   6.569  0.00  0.00    +0.000 N 
ATOM     28  O   UNL     1      46.465   0.970   8.110  0.00  0.00    +0.000 OA
ATOM     29  H   UNL     1      46.178   3.523   6.224  0.00  0.00    +0.000 HD
ATOM     30  H   UNL     1      46.797   1.943   5.908  0.00  0.00    +0.000 HD
ENDBRANCH  23  26
ENDBRANCH  19  20
ENDBRANCH  18  19
ENDBRANCH   1  18
TORSDOF 10
ENDMDL
MODEL 9
REMARK VINA RESULT:    -6.106      3.518      8.167
REMARK INTER + INTRA:         -10.889
REMARK INTER:                  -9.684
REMARK INTRA:                  -1.205
REMARK UNBOUND:                -1.214
REMARK  Name = 
REMARK  12 active torsions:
REMARK  status: ('A' for Active; 'I' for Inactive)
REMARK    1  A    between atoms: C_1  and  N_2
REMARK    2  A    between atoms: N_2  and  C_3
REMARK    3  A    between atoms: N_2  and  C_4
REMARK    4  A    between atoms: C_4  and  C_5
REMARK    5  A    between atoms: C_5  and  C_6
REMARK    6  A    between atoms: C_6  and  C_7
REMARK    7  A    between atoms: C_6  and  C_18
REMARK    8  A    between atoms: C_7  and  O_8
REMARK    9  A    between atoms: O_8  and  C_9
REMARK   10  A    between atoms: C_12  and  C_13
REMARK   11  A    between atoms: C_22  and  O_23
REMARK   12  A    between atoms: O_23  and  C_24
REMARK                            x       y       z     vdW  Elec       q    Type
REMARK                         _______ _______ _______ _____ _____    ______ ____
ROOT
ATOM      1  C   UNL     1      46.207   6.421  12.555  0.00  0.00    +0.000 C 
ENDROOT
BRANCH   1   2
ATOM      2  C   UNL     1      46.478   7.909  12.327  0.00  0.00    +0.000 A 
ATOM      3  C   UNL     1      47.770   8.423  12.161  0.00  0.00    +0.000 A 
ATOM      4  C   UNL     1      47.967   9.782  11.900  0.00  0.00    +0.000 A 
ATOM      5  C   UNL     1      46.877  10.647  11.798  0.00  0.00    +0.000 A 
ATOM      6  C   UNL     1      45.587  10.155  11.972  0.00  0.00    +0.000 A 
ATOM      7  C   UNL     1      45.390   8.794  12.226  0.00  0.00    +0.000 A 
BRANCH   6   8
ATOM      8  O   UNL     1      44.447  10.914  11.873  0.00  0.00    +0.000 OA
BRANCH   8   9
ATOM      9  C   UNL     1      43.288  10.347  11.222  0.00  0.00    +0.000 C 
ATOM     10  C   UNL     1      43.153  10.586   9.699  0.00  0.00    +0.000 C 
ATOM     11  C   UNL     1      41.697  11.019   9.913  0.00  0.00    +0.000 C 
ATOM     12  C   UNL     1      41.989  11.165  11.411  0.00  0.00    +0.000 C 
ENDBRANCH   8   9
ENDBRANCH   6   8
ENDBRANCH   1   2
BRANCH   1  13
ATOM     13  C   UNL     1      45.863   5.773  11.191  0.00  0.00    +0.000 C 
BRANCH  13  14
ATOM     14  C   UNL     1      44.434   5.220  11.061  0.00  0.00    +0.000 C 
BRANCH  14  16
ATOM     15  C   UNL     1      42.890   5.078  12.936  0.00  0.00    +0.000 C 
ATOM     16  N   UNL     1      43.982   4.423  12.212  0.00  0.00    +0.000 NA
ATOM     17  C   UNL     1      43.543   3.096  11.766  0.00  0.00    +0.000 C 
ENDBRANCH  14  16
ENDBRANCH  13  14
ENDBRANCH   1  13
BRANCH   1  18
ATOM     18  C   UNL     1      47.360   5.668  13.247  0.00  0.00    +0.000 C 
BRANCH  18  19
ATOM     19  O   UNL     1      46.843   4.619  14.076  0.00  0.00    +0.000 OA
BRANCH  19  20
ATOM     20  C   UNL     1      47.429   4.596  15.324  0.00  0.00    +0.000 A 
ATOM     21  C   UNL     1      47.084   3.549  16.160  0.00  0.00    +0.000 A 
ATOM     22  C   UNL     1      47.695   3.474  17.413  0.00  0.00    +0.000 A 
ATOM     23  C   UNL     1      48.631   4.445  17.789  0.00  0.00    +0.000 A 
ATOM     24  C   UNL     1      48.891   5.461  16.883  0.00  0.00    +0.000 A 
ATOM     25  N   UNL     1      48.312   5.561  15.663  0.00  0.00    +0.000 NA
BRANCH  23  26
ATOM     26  C   UNL     1      49.301   4.340  19.106  0.00  0.00    +0.000 C 
ATOM     27  N   UNL     1      48.583   3.914  20.186  0.00  0.00    +0.000 N 
ATOM     28  O   UNL     1      50.485   4.636  19.238  0.00  0.00    +0.000 OA
ATOM     29  H   UNL     1      47.605   3.666  20.197  0.00  0.00    +0.000 HD
ATOM     30  H   UNL     1      49.078   3.880  21.070  0.00  0.00    +0.000 HD
ENDBRANCH  23  26
ENDBRANCH  19  20
ENDBRANCH  18  19
ENDBRANCH   1  18
TORSDOF 10
ENDMDL
