MODEL 1
REMARK VINA RESULT:    -8.211      0.000      0.000
REMARK INTER + INTRA:         -11.428
REMARK INTER:                 -10.611
REMARK INTRA:                  -0.816
REMARK UNBOUND:                -0.816
REMARK  Name = 
REMARK  5 active torsions:
REMARK  status: ('A' for Active; 'I' for Inactive)
REMARK    1  A    between atoms: C_2  and  C_4
REMARK    2  A    between atoms: N_8  and  C_9
REMARK    3  A    between atoms: C_9  and  C_10
REMARK    4  A    between atoms: C_10  and  C_11
REMARK    5  A    between atoms: C_15  and  C_16
REMARK                            x       y       z     vdW  Elec       q    Type
REMARK                         _______ _______ _______ _____ _____    ______ ____
ROOT
ATOM      1  C   UNL     1      43.666   5.087  10.784  0.00  0.00    +0.000 C 
ENDROOT
BRANCH   1   6
ATOM      2  C   UNL     1      46.487   2.695   7.488  0.00  0.00    +0.000 A 
ATOM      3  C   UNL     1      45.939   1.803   8.381  0.00  0.00    +0.000 A 
ATOM      4  N   UNL     1      45.013   2.144   9.307  0.00  0.00    +0.000 NA
ATOM      5  C   UNL     1      44.629   3.428   9.342  0.00  0.00    +0.000 A 
ATOM      6  N   UNL     1      43.629   3.732  10.251  0.00  0.00    +0.000 N 
ATOM      7  N   UNL     1      45.140   4.379   8.544  0.00  0.00    +0.000 NA
ATOM      8  C   UNL     1      46.066   3.994   7.637  0.00  0.00    +0.000 A 
ATOM      9  H   UNL     1      43.623   2.983  10.935  0.00  0.00    +0.000 HD
BRANCH   2  11
ATOM     10  N   UNL     1      47.554   3.158   5.358  0.00  0.00    +0.000 N 
ATOM     11  C   UNL     1      47.453   2.333   6.444  0.00  0.00    +0.000 C 
ATOM     12  O   UNL     1      48.181   1.353   6.567  0.00  0.00    +0.000 OA
ATOM     13  H   UNL     1      48.314   2.959   4.720  0.00  0.00    +0.000 HD
ATOM     14  H   UNL     1      47.183   4.099   5.344  0.00  0.00    +0.000 HD
ENDBRANCH   2  11
ENDBRANCH   1   6
BRANCH   1  15
ATOM     15  C   UNL     1      43.912   5.044  12.299  0.00  0.00    +0.000 C 
BRANCH  15  16
ATOM     16  C   UNL     1      45.331   5.415  12.651  0.00  0.00    +0.000 A 
ATOM     17  C   UNL     1      46.069   6.275  11.835  0.00  0.00    +0.000 A 
ATOM     18  C   UNL     1      47.368   6.631  12.191  0.00  0.00    +0.000 A 
ATOM     19  C   UNL     1      47.930   6.151  13.377  0.00  0.00    +0.000 A 
ATOM     20  C   UNL     1      47.203   5.322  14.250  0.00  0.00    +0.000 A 
ATOM     21  C   UNL     1      45.908   4.946  13.845  0.00  0.00    +0.000 A 
BRANCH  20  22
ATOM     22  C   UNL     1      47.726   4.941  15.585  0.00  0.00    +0.000 A 
ATOM     23  C   UNL     1      47.328   3.737  16.201  0.00  0.00    +0.000 A 
ATOM     24  C   UNL     1      47.903   3.300  17.397  0.00  0.00    +0.000 A 
ATOM     25  C   UNL     1      48.895   4.057  18.010  0.00  0.00    +0.000 A 
ATOM     26  C   UNL     1      49.288   5.265  17.443  0.00  0.00    +0.000 A 
ATOM     27  C   UNL     1      48.700   5.707  16.252  0.00  0.00    +0.000 A 
ENDBRANCH  20  22
ENDBRANCH  15  16
ENDBRANCH   1  15
TORSDOF 5
ENDMDL
MODEL 2
REMARK VINA RESULT:    -8.154      3.857      7.936
REMARK INTER + INTRA:         -11.353
REMARK INTER:                 -10.615
REMARK INTRA:                  -0.738
REMARK UNBOUND:                -0.816
REMARK  Name = 
REMARK  5 active torsions:
REMARK  status: ('A' for Active; 'I' for Inactive)
REMARK    1  A    between atoms: C_2  and  C_4
REMARK    2  A    between atoms: N_8  and  C_9
REMARK    3  A    between atoms: C_9  and  C_10
REMARK    4  A    between atoms: C_10  and  C_11
REMARK    5  A    between atoms: C_15  and  C_16
REMARK                            x       y       z     vdW  Elec       q    Type
REMARK                         _______ _______ _______ _____ _____    ______ ____
ROOT
ATOM      1  C   UNL     1      47.547   7.043  12.053  0.00  0.00    +0.000 C 
ENDROOT
BRANCH   1   6
ATOM      2  C   UNL     1      47.730   4.410  16.246  0.00  0.00    +0.000 A 
ATOM      3  C   UNL     1      48.595   5.477  16.317  0.00  0.00    +0.000 A 
ATOM      4  N   UNL     1      48.659   6.452  15.381  0.00  0.00    +0.000 NA
ATOM      5  C   UNL     1      47.829   6.348  14.333  0.00  0.00    +0.000 A 
ATOM      6  N   UNL     1      47.866   7.398  13.429  0.00  0.00    +0.000 N 
ATOM      7  N   UNL     1      46.985   5.321  14.153  0.00  0.00    +0.000 NA
ATOM      8  C   UNL     1      46.958   4.366  15.110  0.00  0.00    +0.000 A 
ATOM      9  H   UNL     1      48.751   7.871  13.575  0.00  0.00    +0.000 HD
BRANCH   2  11
ATOM     10  N   UNL     1      48.721   3.086  18.022  0.00  0.00    +0.000 N 
ATOM     11  C   UNL     1      47.611   3.371  17.275  0.00  0.00    +0.000 C 
ATOM     12  O   UNL     1      46.540   2.813  17.493  0.00  0.00    +0.000 OA
ATOM     13  H   UNL     1      48.578   2.463  18.807  0.00  0.00    +0.000 HD
ATOM     14  H   UNL     1      49.528   3.695  18.065  0.00  0.00    +0.000 HD
ENDBRANCH   2  11
ENDBRANCH   1   6
BRANCH   1  15
ATOM     15  C   UNL     1      46.122   7.503  11.714  0.00  0.00    +0.000 C 
BRANCH  15  16
ATOM     16  C   UNL     1      45.267   6.367  11.208  0.00  0.00    +0.000 A 
ATOM     17  C   UNL     1      43.911   6.295  11.531  0.00  0.00    +0.000 A 
ATOM     18  C   UNL     1      43.129   5.256  11.031  0.00  0.00    +0.000 A 
ATOM     19  C   UNL     1      43.690   4.298  10.184  0.00  0.00    +0.000 A 
ATOM     20  C   UNL     1      45.041   4.363   9.795  0.00  0.00    +0.000 A 
ATOM     21  C   UNL     1      45.816   5.399  10.349  0.00  0.00    +0.000 A 
BRANCH  20  22
ATOM     22  C   UNL     1      45.606   3.450   8.771  0.00  0.00    +0.000 A 
ATOM     23  C   UNL     1      46.296   3.958   7.652  0.00  0.00    +0.000 A 
ATOM     24  C   UNL     1      46.943   3.115   6.745  0.00  0.00    +0.000 A 
ATOM     25  C   UNL     1      46.917   1.738   6.933  0.00  0.00    +0.000 A 
ATOM     26  C   UNL     1      46.218   1.204   8.011  0.00  0.00    +0.000 A 
ATOM     27  C   UNL     1      45.560   2.050   8.911  0.00  0.00    +0.000 A 
ENDBRANCH  20  22
ENDBRANCH  15  16
ENDBRANCH   1  15
TORSDOF 5
ENDMDL
MODEL 3
REMARK VINA RESULT:    -8.119      1.704      3.668
REMARK INTER + INTRA:         -11.308
REMARK INTER:                 -10.477
REMARK INTRA:                  -0.832
REMARK UNBOUND:                -0.816
REMARK  Name = 
REMARK  5 active torsions:
REMARK  status: ('A' for Active; 'I' for Inactive)
REMARK    1  A    between atoms: C_2  and  C_4
REMARK    2  A    between atoms: N_8  and  C_9
REMARK    3  A    between atoms: C_9  and  C_10
REMARK    4  A    between atoms: C_10  and  C_11
REMARK    5  A    between atoms: C_15  and  C_16
REMARK                            x       y       z     vdW  Elec       q    Type
REMARK                         _______ _______ _______ _____ _____    ______ ____
ROOT
ATOM      1  C   UNL     1      43.705   5.365  10.609  0.00  0.00    +0.000 C 
ENDROOT
BRANCH   1   6
ATOM      2  C   UNL     1      46.524   2.661   7.561  0.00  0.00    +0.000 A 
ATOM      3  C   UNL     1      45.803   1.839   8.396  0.00  0.00    +0.000 A 
ATOM      4  N   UNL     1      44.842   2.285   9.238  0.00  0.00    +0.000 NA
ATOM      5  C   UNL     1      44.602   3.604   9.248  0.00  0.00    +0.000 A 
ATOM      6  N   UNL     1      43.565   4.021  10.066  0.00  0.00    +0.000 N 
ATOM      7  N   UNL     1      45.285   4.489   8.505  0.00  0.00    +0.000 NA
ATOM      8  C   UNL     1      46.240   4.000   7.681  0.00  0.00    +0.000 A 
ATOM      9  H   UNL     1      43.415   3.280  10.741  0.00  0.00    +0.000 HD
BRANCH   2  11
ATOM     10  N   UNL     1      47.830   3.000   5.544  0.00  0.00    +0.000 N 
ATOM     11  C   UNL     1      47.533   2.191   6.606  0.00  0.00    +0.000 C 
ATOM     12  O   UNL     1      48.127   1.131   6.781  0.00  0.00    +0.000 OA
ATOM     13  H   UNL     1      48.617   2.714   4.975  0.00  0.00    +0.000 HD
ATOM     14  H   UNL     1      47.575   3.978   5.508  0.00  0.00    +0.000 HD
ENDBRANCH   2  11
ENDBRANCH   1   6
BRANCH   1  15
ATOM     15  C   UNL     1      43.675   5.312  12.143  0.00  0.00    +0.000 C 
BRANCH  15  16
ATOM     16  C   UNL     1      45.045   5.508  12.742  0.00  0.00    +0.000 A 
ATOM     17  C   UNL     1      45.610   4.533  13.568  0.00  0.00    +0.000 A 
ATOM     18  C   UNL     1      46.889   4.716  14.089  0.00  0.00    +0.000 A 
ATOM     19  C   UNL     1      47.623   5.860  13.768  0.00  0.00    +0.000 A 
ATOM     20  C   UNL     1      47.109   6.842  12.901  0.00  0.00    +0.000 A 
ATOM     21  C   UNL     1      45.799   6.651  12.423  0.00  0.00    +0.000 A 
BRANCH  20  22
ATOM     22  C   UNL     1      47.938   7.977  12.425  0.00  0.00    +0.000 A 
ATOM     23  C   UNL     1      49.277   7.778  12.032  0.00  0.00    +0.000 A 
ATOM     24  C   UNL     1      50.035   8.806  11.462  0.00  0.00    +0.000 A 
ATOM     25  C   UNL     1      49.471  10.062  11.270  0.00  0.00    +0.000 A 
ATOM     26  C   UNL     1      48.161  10.298  11.676  0.00  0.00    +0.000 A 
ATOM     27  C   UNL     1      47.409   9.270  12.257  0.00  0.00    +0.000 A 
ENDBRANCH  20  22
ENDBRANCH  15  16
ENDBRANCH   1  15
TORSDOF 5
ENDMDL
MODEL 4
REMARK VINA RESULT:    -7.450      4.295      7.882
REMARK INTER + INTRA:         -10.444
REMARK INTER:                  -9.521
REMARK INTRA:                  -0.924
REMARK UNBOUND:                -0.816
REMARK  Name = 
REMARK  5 active torsions:
REMARK  status: ('A' for Active; 'I' for Inactive)
REMARK    1  A    between atoms: C_2  and  C_4
REMARK    2  A    between atoms: N_8  and  C_9
REMARK    3  A    between atoms: C_9  and  C_10
REMARK    4  A    between atoms: C_10  and  C_11
REMARK    5  A    between atoms: C_15  and  C_16
REMARK                            x       y       z     vdW  Elec       q    Type
REMARK                         _______ _______ _______ _____ _____    ______ ____
ROOT
ATOM      1  C   UNL     1      49.401   7.251  12.881  0.00  0.00    +0.000 C 
ENDROOT
BRANCH   1   6
ATOM      2  C   UNL     1      48.107   4.464  16.767  0.00  0.00    +0.000 A 
ATOM      3  C   UNL     1      49.201   5.236  17.080  0.00  0.00    +0.000 A 
ATOM      4  N   UNL     1      49.694   6.200  16.267  0.00  0.00    +0.000 NA
ATOM      5  C   UNL     1      49.070   6.389  15.096  0.00  0.00    +0.000 A 
ATOM      6  N   UNL     1      49.551   7.429  14.318  0.00  0.00    +0.000 N 
ATOM      7  N   UNL     1      48.025   5.654  14.684  0.00  0.00    +0.000 NA
ATOM      8  C   UNL     1      47.569   4.699  15.525  0.00  0.00    +0.000 A 
ATOM      9  H   UNL     1      50.491   7.624  14.648  0.00  0.00    +0.000 HD
BRANCH   2  11
ATOM     10  N   UNL     1      48.189   3.174  18.822  0.00  0.00    +0.000 N 
ATOM     11  C   UNL     1      47.528   3.451  17.657  0.00  0.00    +0.000 C 
ATOM     12  O   UNL     1      46.461   2.907  17.389  0.00  0.00    +0.000 OA
ATOM     13  H   UNL     1      47.704   2.571  19.474  0.00  0.00    +0.000 HD
ATOM     14  H   UNL     1      48.904   3.778  19.206  0.00  0.00    +0.000 HD
ENDBRANCH   2  11
ENDBRANCH   1   6
BRANCH   1  15
ATOM     15  C   UNL     1      48.538   8.382  12.303  0.00  0.00    +0.000 C 
BRANCH  15  16
ATOM     16  C   UNL     1      47.115   7.941  12.065  0.00  0.00    +0.000 A 
ATOM     17  C   UNL     1      46.044   8.779  12.386  0.00  0.00    +0.000 A 
ATOM     18  C   UNL     1      44.737   8.369  12.132  0.00  0.00    +0.000 A 
ATOM     19  C   UNL     1      44.492   7.132  11.531  0.00  0.00    +0.000 A 
ATOM     20  C   UNL     1      45.544   6.280  11.148  0.00  0.00    +0.000 A 
ATOM     21  C   UNL     1      46.852   6.702  11.455  0.00  0.00    +0.000 A 
BRANCH  20  22
ATOM     22  C   UNL     1      45.305   5.043  10.365  0.00  0.00    +0.000 A 
ATOM     23  C   UNL     1      44.559   3.977  10.907  0.00  0.00    +0.000 A 
ATOM     24  C   UNL     1      44.216   2.858  10.143  0.00  0.00    +0.000 A 
ATOM     25  C   UNL     1      44.610   2.776   8.813  0.00  0.00    +0.000 A 
ATOM     26  C   UNL     1      45.374   3.798   8.257  0.00  0.00    +0.000 A 
ATOM     27  C   UNL     1      45.727   4.911   9.029  0.00  0.00    +0.000 A 
ENDBRANCH  20  22
ENDBRANCH  15  16
ENDBRANCH   1  15
TORSDOF 5
ENDMDL
MODEL 5
REMARK VINA RESULT:    -7.149      4.149      8.101
REMARK INTER + INTRA:         -10.055
REMARK INTER:                  -9.374
REMARK INTRA:                  -0.681
REMARK UNBOUND:                -0.816
REMARK  Name = 
REMARK  5 active torsions:
REMARK  status: ('A' for Active; 'I' for Inactive)
REMARK    1  A    between atoms: C_2  and  C_4
REMARK    2  A    between atoms: N_8  and  C_9
REMARK    3  A    between atoms: C_9  and  C_10
REMARK    4  A    between atoms: C_10  and  C_11
REMARK    5  A    between atoms: C_15  and  C_16
REMARK                            x       y       z     vdW  Elec       q    Type
REMARK                         _______ _______ _______ _____ _____    ______ ____
ROOT
ATOM      1  C   UNL     1      45.570   7.178  11.286  0.00  0.00    +0.000 C 
ENDROOT
BRANCH   1   6
ATOM      2  C   UNL     1      48.903   7.535  14.934  0.00  0.00    +0.000 A 
ATOM      3  C   UNL     1      48.512   8.789  14.524  0.00  0.00    +0.000 A 
ATOM      4  N   UNL     1      47.509   9.008  13.642  0.00  0.00    +0.000 NA
ATOM      5  C   UNL     1      46.882   7.930  13.149  0.00  0.00    +0.000 A 
ATOM      6  N   UNL     1      45.813   8.188  12.306  0.00  0.00    +0.000 N 
ATOM      7  N   UNL     1      47.223   6.668  13.454  0.00  0.00    +0.000 NA
ATOM      8  C   UNL     1      48.234   6.495  14.335  0.00  0.00    +0.000 A 
ATOM      9  H   UNL     1      45.932   9.139  11.973  0.00  0.00    +0.000 HD
BRANCH   2  11
ATOM     10  N   UNL     1      51.210   7.001  15.465  0.00  0.00    +0.000 N 
ATOM     11  C   UNL     1      49.953   7.280  15.926  0.00  0.00    +0.000 C 
ATOM     12  O   UNL     1      49.723   7.365  17.129  0.00  0.00    +0.000 OA
ATOM     13  H   UNL     1      51.940   6.959  16.165  0.00  0.00    +0.000 HD
ATOM     14  H   UNL     1      51.503   7.188  14.514  0.00  0.00    +0.000 HD
ENDBRANCH   2  11
ENDBRANCH   1   6
BRANCH   1  15
ATOM     15  C   UNL     1      44.194   6.534  11.508  0.00  0.00    +0.000 C 
BRANCH  15  16
ATOM     16  C   UNL     1      44.191   5.069  11.145  0.00  0.00    +0.000 A 
ATOM     17  C   UNL     1      43.365   4.168  11.820  0.00  0.00    +0.000 A 
ATOM     18  C   UNL     1      43.352   2.824  11.453  0.00  0.00    +0.000 A 
ATOM     19  C   UNL     1      44.142   2.377  10.392  0.00  0.00    +0.000 A 
ATOM     20  C   UNL     1      44.951   3.261   9.655  0.00  0.00    +0.000 A 
ATOM     21  C   UNL     1      44.976   4.605  10.075  0.00  0.00    +0.000 A 
BRANCH  20  22
ATOM     22  C   UNL     1      45.666   2.831   8.428  0.00  0.00    +0.000 A 
ATOM     23  C   UNL     1      45.884   3.731   7.366  0.00  0.00    +0.000 A 
ATOM     24  C   UNL     1      46.663   3.384   6.259  0.00  0.00    +0.000 A 
ATOM     25  C   UNL     1      47.246   2.124   6.185  0.00  0.00    +0.000 A 
ATOM     26  C   UNL     1      47.024   1.203   7.203  0.00  0.00    +0.000 A 
ATOM     27  C   UNL     1      46.233   1.549   8.305  0.00  0.00    +0.000 A 
ENDBRANCH  20  22
ENDBRANCH  15  16
ENDBRANCH   1  15
TORSDOF 5
ENDMDL
MODEL 6
REMARK VINA RESULT:    -7.001      4.853      7.969
REMARK INTER + INTRA:          -9.863
REMARK INTER:                  -9.244
REMARK INTRA:                  -0.620
REMARK UNBOUND:                -0.816
REMARK  Name = 
REMARK  5 active torsions:
REMARK  status: ('A' for Active; 'I' for Inactive)
REMARK    1  A    between atoms: C_2  and  C_4
REMARK    2  A    between atoms: N_8  and  C_9
REMARK    3  A    between atoms: C_9  and  C_10
REMARK    4  A    between atoms: C_10  and  C_11
REMARK    5  A    between atoms: C_15  and  C_16
REMARK                            x       y       z     vdW  Elec       q    Type
REMARK                         _______ _______ _______ _____ _____    ______ ____
ROOT
ATOM      1  C   UNL     1      45.675   6.946  12.427  0.00  0.00    +0.000 C 
ENDROOT
BRANCH   1   6
ATOM      2  C   UNL     1      48.880  10.564  11.341  0.00  0.00    +0.000 A 
ATOM      3  C   UNL     1      47.626  11.088  11.551  0.00  0.00    +0.000 A 
ATOM      4  N   UNL     1      46.577  10.361  12.002  0.00  0.00    +0.000 NA
ATOM      5  C   UNL     1      46.794   9.061  12.244  0.00  0.00    +0.000 A 
ATOM      6  N   UNL     1      45.723   8.359  12.773  0.00  0.00    +0.000 N 
ATOM      7  N   UNL     1      47.970   8.451  12.026  0.00  0.00    +0.000 NA
ATOM      8  C   UNL     1      48.989   9.214  11.570  0.00  0.00    +0.000 A 
ATOM      9  H   UNL     1      44.892   8.900  12.560  0.00  0.00    +0.000 HD
BRANCH   2  11
ATOM     10  N   UNL     1      50.057  11.789   9.607  0.00  0.00    +0.000 N 
ATOM     11  C   UNL     1      50.041  11.347  10.901  0.00  0.00    +0.000 C 
ATOM     12  O   UNL     1      50.942  11.638  11.682  0.00  0.00    +0.000 OA
ATOM     13  H   UNL     1      50.800  12.433   9.368  0.00  0.00    +0.000 HD
ATOM     14  H   UNL     1      49.231  11.809   9.021  0.00  0.00    +0.000 HD
ENDBRANCH   2  11
ENDBRANCH   1   6
BRANCH   1  15
ATOM     15  C   UNL     1      44.407   6.652  11.613  0.00  0.00    +0.000 C 
BRANCH  15  16
ATOM     16  C   UNL     1      44.303   5.195  11.236  0.00  0.00    +0.000 A 
ATOM     17  C   UNL     1      43.408   4.349  11.894  0.00  0.00    +0.000 A 
ATOM     18  C   UNL     1      43.302   3.013  11.513  0.00  0.00    +0.000 A 
ATOM     19  C   UNL     1      44.071   2.520  10.455  0.00  0.00    +0.000 A 
ATOM     20  C   UNL     1      44.948   3.352   9.735  0.00  0.00    +0.000 A 
ATOM     21  C   UNL     1      45.064   4.686  10.169  0.00  0.00    +0.000 A 
BRANCH  20  22
ATOM     22  C   UNL     1      45.644   2.883   8.511  0.00  0.00    +0.000 A 
ATOM     23  C   UNL     1      45.968   3.782   7.476  0.00  0.00    +0.000 A 
ATOM     24  C   UNL     1      46.733   3.387   6.374  0.00  0.00    +0.000 A 
ATOM     25  C   UNL     1      47.194   2.079   6.280  0.00  0.00    +0.000 A 
ATOM     26  C   UNL     1      46.865   1.160   7.272  0.00  0.00    +0.000 A 
ATOM     27  C   UNL     1      46.088   1.556   8.367  0.00  0.00    +0.000 A 
ENDBRANCH  20  22
ENDBRANCH  15  16
ENDBRANCH   1  15
TORSDOF 5
ENDMDL
MODEL 7
REMARK VINA RESULT:    -6.768      4.803      8.370
REMARK INTER + INTRA:          -9.562
REMARK INTER:                  -8.927
REMARK INTRA:                  -0.635
REMARK UNBOUND:                -0.816
REMARK  Name = 
REMARK  5 active torsions:
REMARK  status: ('A' for Active; 'I' for Inactive)
REMARK    1  A    between atoms: C_2  and  C_4
REMARK    2  A    between atoms: N_8  and  C_9
REMARK    3  A    between atoms: C_9  and  C_10
REMARK    4  A    between atoms: C_10  and  C_11
REMARK    5  A    between atoms: C_15  and  C_16
REMARK                            x       y       z     vdW  Elec       q    Type
REMARK                         _______ _______ _______ _____ _____    ______ ____
ROOT
ATOM      1  C   UNL     1      46.959   4.704  15.390  0.00  0.00    +0.000 C 
ENDROOT
BRANCH   1   6
ATOM      2  C   UNL     1      50.877   2.547  17.520  0.00  0.00    +0.000 A 
ATOM      3  C   UNL     1      50.630   3.768  18.105  0.00  0.00    +0.000 A 
ATOM      4  N   UNL     1      49.541   4.522  17.830  0.00  0.00    +0.000 NA
ATOM      5  C   UNL     1      48.673   4.038  16.931  0.00  0.00    +0.000 A 
ATOM      6  N   UNL     1      47.533   4.797  16.724  0.00  0.00    +0.000 N 
ATOM      7  N   UNL     1      48.851   2.880  16.275  0.00  0.00    +0.000 NA
ATOM      8  C   UNL     1      49.955   2.161  16.576  0.00  0.00    +0.000 A 
ATOM      9  H   UNL     1      47.747   5.732  17.055  0.00  0.00    +0.000 HD
BRANCH   2  11
ATOM     10  N   UNL     1      52.912   2.144  18.780  0.00  0.00    +0.000 N 
ATOM     11  C   UNL     1      52.025   1.692  17.842  0.00  0.00    +0.000 C 
ATOM     12  O   UNL     1      52.157   0.586  17.326  0.00  0.00    +0.000 OA
ATOM     13  H   UNL     1      53.618   1.483  19.077  0.00  0.00    +0.000 HD
ATOM     14  H   UNL     1      52.702   2.903  19.416  0.00  0.00    +0.000 HD
ENDBRANCH   2  11
ENDBRANCH   1   6
BRANCH   1  15
ATOM     15  C   UNL     1      47.595   5.760  14.474  0.00  0.00    +0.000 C 
BRANCH  15  16
ATOM     16  C   UNL     1      46.685   6.140  13.332  0.00  0.00    +0.000 A 
ATOM     17  C   UNL     1      46.285   7.465  13.148  0.00  0.00    +0.000 A 
ATOM     18  C   UNL     1      45.469   7.804  12.072  0.00  0.00    +0.000 A 
ATOM     19  C   UNL     1      45.068   6.827  11.157  0.00  0.00    +0.000 A 
ATOM     20  C   UNL     1      45.489   5.490  11.279  0.00  0.00    +0.000 A 
ATOM     21  C   UNL     1      46.279   5.169  12.400  0.00  0.00    +0.000 A 
BRANCH  20  22
ATOM     22  C   UNL     1      45.207   4.481  10.229  0.00  0.00    +0.000 A 
ATOM     23  C   UNL     1      45.526   4.734   8.880  0.00  0.00    +0.000 A 
ATOM     24  C   UNL     1      45.385   3.751   7.896  0.00  0.00    +0.000 A 
ATOM     25  C   UNL     1      44.920   2.486   8.238  0.00  0.00    +0.000 A 
ATOM     26  C   UNL     1      44.568   2.215   9.556  0.00  0.00    +0.000 A 
ATOM     27  C   UNL     1      44.698   3.205  10.537  0.00  0.00    +0.000 A 
ENDBRANCH  20  22
ENDBRANCH  15  16
ENDBRANCH   1  15
TORSDOF 5
ENDMDL
MODEL 8
REMARK VINA RESULT:    -6.580      2.760      4.690
REMARK INTER + INTRA:          -9.319
REMARK INTER:                  -8.545
REMARK INTRA:                  -0.774
REMARK UNBOUND:                -0.816
REMARK  Name = 
REMARK  5 active torsions:
REMARK  status: ('A' for Active; 'I' for Inactive)
REMARK    1  A    between atoms: C_2  and  C_4
REMARK    2  A    between atoms: N_8  and  C_9
REMARK    3  A    between atoms: C_9  and  C_10
REMARK    4  A    between atoms: C_10  and  C_11
REMARK    5  A    between atoms: C_15  and  C_16
REMARK                            x       y       z     vdW  Elec       q    Type
REMARK                         _______ _______ _______ _____ _____    ______ ____
ROOT
ATOM      1  C   UNL     1      47.790   8.115  13.352  0.00  0.00    +0.000 C 
ENDROOT
BRANCH   1   6
ATOM      2  C   UNL     1      44.645   5.059  11.045  0.00  0.00    +0.000 A 
ATOM      3  C   UNL     1      44.112   5.473  12.244  0.00  0.00    +0.000 A 
ATOM      4  N   UNL     1      44.678   6.421  13.027  0.00  0.00    +0.000 NA
ATOM      5  C   UNL     1      45.823   6.967  12.595  0.00  0.00    +0.000 A 
ATOM      6  N   UNL     1      46.340   7.984  13.380  0.00  0.00    +0.000 N 
ATOM      7  N   UNL     1      46.442   6.596  11.463  0.00  0.00    +0.000 NA
ATOM      8  C   UNL     1      45.845   5.642  10.714  0.00  0.00    +0.000 A 
ATOM      9  H   UNL     1      45.918   7.882  14.297  0.00  0.00    +0.000 HD
BRANCH   2  11
ATOM     10  N   UNL     1      44.024   4.328   8.816  0.00  0.00    +0.000 N 
ATOM     11  C   UNL     1      44.020   4.071  10.159  0.00  0.00    +0.000 C 
ATOM     12  O   UNL     1      43.556   3.025  10.604  0.00  0.00    +0.000 OA
ATOM     13  H   UNL     1      43.706   3.575   8.220  0.00  0.00    +0.000 HD
ATOM     14  H   UNL     1      44.623   5.024   8.390  0.00  0.00    +0.000 HD
ENDBRANCH   2  11
ENDBRANCH   1   6
BRANCH   1  15
ATOM     15  C   UNL     1      48.242   9.126  14.414  0.00  0.00    +0.000 C 
BRANCH  15  16
ATOM     16  C   UNL     1      48.401   8.488  15.772  0.00  0.00    +0.000 A 
ATOM     17  C   UNL     1      48.082   9.192  16.935  0.00  0.00    +0.000 A 
ATOM     18  C   UNL     1      48.206   8.578  18.179  0.00  0.00    +0.000 A 
ATOM     19  C   UNL     1      48.623   7.247  18.268  0.00  0.00    +0.000 A 
ATOM     20  C   UNL     1      48.907   6.488  17.118  0.00  0.00    +0.000 A 
ATOM     21  C   UNL     1      48.813   7.148  15.878  0.00  0.00    +0.000 A 
BRANCH  20  22
ATOM     22  C   UNL     1      49.191   5.034  17.191  0.00  0.00    +0.000 A 
ATOM     23  C   UNL     1      48.202   4.087  16.857  0.00  0.00    +0.000 A 
ATOM     24  C   UNL     1      48.487   2.720  16.797  0.00  0.00    +0.000 A 
ATOM     25  C   UNL     1      49.771   2.263  17.069  0.00  0.00    +0.000 A 
ATOM     26  C   UNL     1      50.761   3.170  17.432  0.00  0.00    +0.000 A 
ATOM     27  C   UNL     1      50.470   4.537  17.503  0.00  0.00    +0.000 A 
ENDBRANCH  20  22
ENDBRANCH  15  16
ENDBRANCH   1  15
TORSDOF 5
ENDMDL
MODEL 9
REMARK VINA RESULT:    -6.541      3.177      5.511
REMARK INTER + INTRA:          -9.270
REMARK INTER:                  -8.652
REMARK INTRA:                  -0.617
REMARK UNBOUND:                -0.816
REMARK  Name = 
REMARK  5 active torsions:
REMARK  status: ('A' for Active; 'I' for Inactive)
REMARK    1  A    between atoms: C_2  and  C_4
REMARK    2  A    between atoms: N_8  and  C_9
REMARK    3  A    between atoms: C_9  and  C_10
REMARK    4  A    between atoms: C_10  and  C_11
REMARK    5  A    between atoms: C_15  and  C_16
REMARK                            x       y       z     vdW  Elec       q    Type
REMARK                         _______ _______ _______ _____ _____    ______ ____
ROOT
ATOM      1  C   UNL     1      48.466   6.545  14.612  0.00  0.00    +0.000 C 
ENDROOT
BRANCH   1   6
ATOM      2  C   UNL     1      45.134   4.463  11.594  0.00  0.00    +0.000 A 
ATOM      3  C   UNL     1      45.448   3.603  12.620  0.00  0.00    +0.000 A 
ATOM      4  N   UNL     1      46.221   3.948  13.675  0.00  0.00    +0.000 NA
ATOM      5  C   UNL     1      46.701   5.199  13.698  0.00  0.00    +0.000 A 
ATOM      6  N   UNL     1      47.428   5.545  14.825  0.00  0.00    +0.000 N 
ATOM      7  N   UNL     1      46.488   6.095  12.721  0.00  0.00    +0.000 NA
ATOM      8  C   UNL     1      45.714   5.706  11.682  0.00  0.00    +0.000 A 
ATOM      9  H   UNL     1      47.727   4.676  15.253  0.00  0.00    +0.000 HD
BRANCH   2  11
ATOM     10  N   UNL     1      44.553   4.661   9.245  0.00  0.00    +0.000 N 
ATOM     11  C   UNL     1      44.257   4.123  10.468  0.00  0.00    +0.000 C 
ATOM     12  O   UNL     1      43.321   3.342  10.607  0.00  0.00    +0.000 OA
ATOM     13  H   UNL     1      44.014   4.309   8.464  0.00  0.00    +0.000 HD
ATOM     14  H   UNL     1      45.449   5.077   9.029  0.00  0.00    +0.000 HD
ENDBRANCH   2  11
ENDBRANCH   1   6
BRANCH   1  15
ATOM     15  C   UNL     1      48.744   7.295  15.922  0.00  0.00    +0.000 C 
BRANCH  15  16
ATOM     16  C   UNL     1      48.969   6.350  17.077  0.00  0.00    +0.000 A 
ATOM     17  C   UNL     1      48.098   6.335  18.168  0.00  0.00    +0.000 A 
ATOM     18  C   UNL     1      48.302   5.437  19.213  0.00  0.00    +0.000 A 
ATOM     19  C   UNL     1      49.363   4.528  19.162  0.00  0.00    +0.000 A 
ATOM     20  C   UNL     1      50.234   4.478  18.058  0.00  0.00    +0.000 A 
ATOM     21  C   UNL     1      50.028   5.426  17.037  0.00  0.00    +0.000 A 
BRANCH  20  22
ATOM     22  C   UNL     1      51.259   3.415  17.917  0.00  0.00    +0.000 A 
ATOM     23  C   UNL     1      52.571   3.608  18.396  0.00  0.00    +0.000 A 
ATOM     24  C   UNL     1      53.514   2.577  18.387  0.00  0.00    +0.000 A 
ATOM     25  C   UNL     1      53.169   1.322  17.899  0.00  0.00    +0.000 A 
ATOM     26  C   UNL     1      51.891   1.108  17.392  0.00  0.00    +0.000 A 
ATOM     27  C   UNL     1      50.953   2.147  17.390  0.00  0.00    +0.000 A 
ENDBRANCH  20  22
ENDBRANCH  15  16
ENDBRANCH   1  15
TORSDOF 5
ENDMDL
