MODEL 1
REMARK VINA RESULT:    -7.471      0.000      0.000
REMARK INTER + INTRA:         -11.021
REMARK INTER:                  -9.655
REMARK INTRA:                  -1.365
REMARK UNBOUND:                -1.365
REMARK  Name = 
REMARK  6 active torsions:
REMARK  status: ('A' for Active; 'I' for Inactive)
REMARK    1  A    between atoms: C_1  and  C_2
REMARK    2  A    between atoms: C_2  and  N_3
REMARK    3  A    between atoms: C_2  and  C_16
REMARK    4  A    between atoms: C_4  and  C_6
REMARK    5  A    between atoms: C_19  and  O_20
REMARK    6  A    between atoms: O_20  and  C_21
REMARK                            x       y       z     vdW  Elec       q    Type
REMARK                         _______ _______ _______ _____ _____    ______ ____
ROOT
ATOM      1  C   UNL     1      48.429   9.272  13.251  0.00  0.00    +0.000 C 
ATOM      2  C   UNL     1      47.591   8.250  14.029  0.00  0.00    +0.000 C 
ENDROOT
BRANCH   2   3
ATOM      3  C   UNL     1      46.646   7.451  13.149  0.00  0.00    +0.000 A 
ATOM      4  C   UNL     1      45.762   8.135  12.299  0.00  0.00    +0.000 A 
ATOM      5  C   UNL     1      44.857   7.435  11.498  0.00  0.00    +0.000 A 
ATOM      6  C   UNL     1      44.862   6.039  11.496  0.00  0.00    +0.000 A 
ATOM      7  C   UNL     1      45.688   5.351  12.381  0.00  0.00    +0.000 A 
ATOM      8  C   UNL     1      46.566   6.052  13.210  0.00  0.00    +0.000 A 
BRANCH   6   9
ATOM      9  O   UNL     1      44.051   5.255  10.711  0.00  0.00    +0.000 OA
BRANCH   9  10
ATOM     10  C   UNL     1      44.603   4.336   9.844  0.00  0.00    +0.000 A 
ATOM     11  C   UNL     1      45.467   4.684   8.799  0.00  0.00    +0.000 A 
ATOM     12  C   UNL     1      45.954   3.707   7.930  0.00  0.00    +0.000 A 
ATOM     13  C   UNL     1      45.633   2.368   8.138  0.00  0.00    +0.000 A 
ATOM     14  C   UNL     1      44.836   2.002   9.223  0.00  0.00    +0.000 A 
ATOM     15  C   UNL     1      44.323   2.982  10.075  0.00  0.00    +0.000 A 
ATOM     16 CL   UNL     1      43.347   2.477  11.409  0.00  0.00    +0.000 Cl
ENDBRANCH   9  10
ENDBRANCH   6   9
ENDBRANCH   2   3
BRANCH   2  17
ATOM     17  N   UNL     1      48.437   7.324  14.755  0.00  0.00    +0.000 N 
ATOM     18  C   UNL     1      48.826   7.519  16.051  0.00  0.00    +0.000 C 
ATOM     19  O   UNL     1      48.456   8.501  16.693  0.00  0.00    +0.000 OA
ATOM     20  H   UNL     1      48.750   6.505  14.244  0.00  0.00    +0.000 HD
BRANCH  18  21
ATOM     21  C   UNL     1      49.710   6.504  16.649  0.00  0.00    +0.000 A 
ATOM     22  C   UNL     1      50.984   6.877  17.064  0.00  0.00    +0.000 A 
ATOM     23  S   UNL     1      51.911   5.595  17.694  0.00  0.00    +0.000 S 
ATOM     24  C   UNL     1      50.650   4.487  17.437  0.00  0.00    +0.000 A 
ATOM     25  N   UNL     1      50.811   3.171  17.746  0.00  0.00    +0.000 NA
ATOM     26  C   UNL     1      49.780   2.433  17.504  0.00  0.00    +0.000 A 
ATOM     27  N   UNL     1      48.596   2.897  16.995  0.00  0.00    +0.000 N 
ATOM     28  C   UNL     1      48.383   4.218  16.680  0.00  0.00    +0.000 A 
ATOM     29  O   UNL     1      47.297   4.594  16.247  0.00  0.00    +0.000 OA
ATOM     30  C   UNL     1      49.521   5.090  16.905  0.00  0.00    +0.000 A 
ATOM     31  H   UNL     1      47.819   2.273  16.845  0.00  0.00    +0.000 HD
ENDBRANCH  18  21
ENDBRANCH   2  17
TORSDOF 5
ENDMDL
MODEL 2
REMARK VINA RESULT:    -7.230      1.940      2.061
REMARK INTER + INTRA:         -10.709
REMARK INTER:                  -9.488
REMARK INTRA:                  -1.221
REMARK UNBOUND:                -1.365
REMARK  Name = 
REMARK  6 active torsions:
REMARK  status: ('A' for Active; 'I' for Inactive)
REMARK    1  A    between atoms: C_1  and  C_2
REMARK    2  A    between atoms: C_2  and  N_3
REMARK    3  A    between atoms: C_2  and  C_16
REMARK    4  A    between atoms: C_4  and  C_6
REMARK    5  A    between atoms: C_19  and  O_20
REMARK    6  A    between atoms: O_20  and  C_21
REMARK                            x       y       z     vdW  Elec       q    Type
REMARK                         _______ _______ _______ _____ _____    ______ ____
ROOT
ATOM      1  C   UNL     1      49.758   7.670  13.574  0.00  0.00    +0.000 C 
ATOM      2  C   UNL     1      48.338   7.961  14.073  0.00  0.00    +0.000 C 
ENDROOT
BRANCH   2   3
ATOM      3  C   UNL     1      47.259   7.278  13.251  0.00  0.00    +0.000 A 
ATOM      4  C   UNL     1      46.434   8.057  12.425  0.00  0.00    +0.000 A 
ATOM      5  C   UNL     1      45.412   7.468  11.677  0.00  0.00    +0.000 A 
ATOM      6  C   UNL     1      45.237   6.083  11.704  0.00  0.00    +0.000 A 
ATOM      7  C   UNL     1      46.006   5.308  12.568  0.00  0.00    +0.000 A 
ATOM      8  C   UNL     1      47.002   5.901  13.345  0.00  0.00    +0.000 A 
BRANCH   6   9
ATOM      9  O   UNL     1      44.297   5.399  10.971  0.00  0.00    +0.000 OA
BRANCH   9  10
ATOM     10  C   UNL     1      44.691   4.460  10.042  0.00  0.00    +0.000 A 
ATOM     11  C   UNL     1      45.521   4.753   8.953  0.00  0.00    +0.000 A 
ATOM     12  C   UNL     1      45.844   3.763   8.025  0.00  0.00    +0.000 A 
ATOM     13  C   UNL     1      45.395   2.458   8.213  0.00  0.00    +0.000 A 
ATOM     14  C   UNL     1      44.633   2.138   9.336  0.00  0.00    +0.000 A 
ATOM     15  C   UNL     1      44.283   3.136  10.250  0.00  0.00    +0.000 A 
ATOM     16 CL   UNL     1      43.344   2.687  11.630  0.00  0.00    +0.000 Cl
ENDBRANCH   9  10
ENDBRANCH   6   9
ENDBRANCH   2   3
BRANCH   2  17
ATOM     17  N   UNL     1      48.179   7.567  15.459  0.00  0.00    +0.000 N 
ATOM     18  C   UNL     1      48.472   8.388  16.512  0.00  0.00    +0.000 C 
ATOM     19  O   UNL     1      48.878   9.536  16.339  0.00  0.00    +0.000 OA
ATOM     20  H   UNL     1      47.842   6.624  15.622  0.00  0.00    +0.000 HD
BRANCH  18  21
ATOM     21  C   UNL     1      48.286   7.839  17.866  0.00  0.00    +0.000 A 
ATOM     22  C   UNL     1      47.840   8.678  18.881  0.00  0.00    +0.000 A 
ATOM     23  S   UNL     1      47.714   7.921  20.401  0.00  0.00    +0.000 S 
ATOM     24  C   UNL     1      48.253   6.441  19.768  0.00  0.00    +0.000 A 
ATOM     25  N   UNL     1      48.400   5.355  20.575  0.00  0.00    +0.000 NA
ATOM     26  C   UNL     1      48.815   4.291  19.974  0.00  0.00    +0.000 A 
ATOM     27  N   UNL     1      49.082   4.212  18.632  0.00  0.00    +0.000 N 
ATOM     28  C   UNL     1      48.935   5.278  17.776  0.00  0.00    +0.000 A 
ATOM     29  O   UNL     1      49.164   5.156  16.576  0.00  0.00    +0.000 OA
ATOM     30  C   UNL     1      48.499   6.510  18.405  0.00  0.00    +0.000 A 
ATOM     31  H   UNL     1      49.387   3.347  18.217  0.00  0.00    +0.000 HD
ENDBRANCH  18  21
ENDBRANCH   2  17
TORSDOF 5
ENDMDL
MODEL 3
REMARK VINA RESULT:    -6.810      2.218      2.587
REMARK INTER + INTRA:         -10.166
REMARK INTER:                  -9.203
REMARK INTRA:                  -0.963
REMARK UNBOUND:                -1.365
REMARK  Name = 
REMARK  6 active torsions:
REMARK  status: ('A' for Active; 'I' for Inactive)
REMARK    1  A    between atoms: C_1  and  C_2
REMARK    2  A    between atoms: C_2  and  N_3
REMARK    3  A    between atoms: C_2  and  C_16
REMARK    4  A    between atoms: C_4  and  C_6
REMARK    5  A    between atoms: C_19  and  O_20
REMARK    6  A    between atoms: O_20  and  C_21
REMARK                            x       y       z     vdW  Elec       q    Type
REMARK                         _______ _______ _______ _____ _____    ______ ____
ROOT
ATOM      1  C   UNL     1      49.720   7.885  13.690  0.00  0.00    +0.000 C 
ATOM      2  C   UNL     1      48.369   7.626  14.367  0.00  0.00    +0.000 C 
ENDROOT
BRANCH   2   3
ATOM      3  C   UNL     1      47.334   7.023  13.433  0.00  0.00    +0.000 A 
ATOM      4  C   UNL     1      47.118   5.636  13.457  0.00  0.00    +0.000 A 
ATOM      5  C   UNL     1      46.196   5.042  12.593  0.00  0.00    +0.000 A 
ATOM      6  C   UNL     1      45.438   5.835  11.730  0.00  0.00    +0.000 A 
ATOM      7  C   UNL     1      45.689   7.203  11.650  0.00  0.00    +0.000 A 
ATOM      8  C   UNL     1      46.638   7.792  12.488  0.00  0.00    +0.000 A 
BRANCH   6   9
ATOM      9  O   UNL     1      44.471   5.360  10.876  0.00  0.00    +0.000 OA
BRANCH   9  10
ATOM     10  C   UNL     1      44.789   4.411   9.928  0.00  0.00    +0.000 A 
ATOM     11  C   UNL     1      45.600   4.673   8.817  0.00  0.00    +0.000 A 
ATOM     12  C   UNL     1      45.845   3.677   7.870  0.00  0.00    +0.000 A 
ATOM     13  C   UNL     1      45.335   2.395   8.061  0.00  0.00    +0.000 A 
ATOM     14  C   UNL     1      44.591   2.103   9.204  0.00  0.00    +0.000 A 
ATOM     15  C   UNL     1      44.319   3.107  10.136  0.00  0.00    +0.000 A 
ATOM     16 CL   UNL     1      43.401   2.692  11.540  0.00  0.00    +0.000 Cl
ENDBRANCH   9  10
ENDBRANCH   6   9
ENDBRANCH   2   3
BRANCH   2  17
ATOM     17  N   UNL     1      48.517   6.754  15.515  0.00  0.00    +0.000 N 
ATOM     18  C   UNL     1      48.826   7.205  16.767  0.00  0.00    +0.000 C 
ATOM     19  O   UNL     1      48.980   8.403  17.000  0.00  0.00    +0.000 OA
ATOM     20  H   UNL     1      48.391   5.761  15.344  0.00  0.00    +0.000 HD
BRANCH  18  21
ATOM     21  C   UNL     1      48.971   6.196  17.831  0.00  0.00    +0.000 A 
ATOM     22  C   UNL     1      49.704   5.043  17.574  0.00  0.00    +0.000 A 
ATOM     23  S   UNL     1      49.751   3.946  18.875  0.00  0.00    +0.000 S 
ATOM     24  C   UNL     1      48.792   4.966  19.837  0.00  0.00    +0.000 A 
ATOM     25  N   UNL     1      48.432   4.592  21.096  0.00  0.00    +0.000 NA
ATOM     26  C   UNL     1      47.704   5.453  21.723  0.00  0.00    +0.000 A 
ATOM     27  N   UNL     1      47.316   6.663  21.210  0.00  0.00    +0.000 N 
ATOM     28  C   UNL     1      47.667   7.088  19.950  0.00  0.00    +0.000 A 
ATOM     29  O   UNL     1      47.317   8.190  19.539  0.00  0.00    +0.000 OA
ATOM     30  C   UNL     1      48.463   6.145  19.187  0.00  0.00    +0.000 A 
ATOM     31  H   UNL     1      46.762   7.302  21.756  0.00  0.00    +0.000 HD
ENDBRANCH  18  21
ENDBRANCH   2  17
TORSDOF 5
ENDMDL
MODEL 4
REMARK VINA RESULT:    -6.787      1.809      2.510
REMARK INTER + INTRA:         -10.136
REMARK INTER:                  -8.780
REMARK INTRA:                  -1.356
REMARK UNBOUND:                -1.365
REMARK  Name = 
REMARK  6 active torsions:
REMARK  status: ('A' for Active; 'I' for Inactive)
REMARK    1  A    between atoms: C_1  and  C_2
REMARK    2  A    between atoms: C_2  and  N_3
REMARK    3  A    between atoms: C_2  and  C_16
REMARK    4  A    between atoms: C_4  and  C_6
REMARK    5  A    between atoms: C_19  and  O_20
REMARK    6  A    between atoms: O_20  and  C_21
REMARK                            x       y       z     vdW  Elec       q    Type
REMARK                         _______ _______ _______ _____ _____    ______ ____
ROOT
ATOM      1  C   UNL     1      48.309   9.719  12.755  0.00  0.00    +0.000 C 
ATOM      2  C   UNL     1      47.625   8.699  13.673  0.00  0.00    +0.000 C 
ENDROOT
BRANCH   2   3
ATOM      3  C   UNL     1      46.664   7.780  12.942  0.00  0.00    +0.000 A 
ATOM      4  C   UNL     1      45.704   8.338  12.084  0.00  0.00    +0.000 A 
ATOM      5  C   UNL     1      44.783   7.527  11.418  0.00  0.00    +0.000 A 
ATOM      6  C   UNL     1      44.846   6.139  11.558  0.00  0.00    +0.000 A 
ATOM      7  C   UNL     1      45.751   5.578  12.455  0.00  0.00    +0.000 A 
ATOM      8  C   UNL     1      46.647   6.392  13.151  0.00  0.00    +0.000 A 
BRANCH   6   9
ATOM      9  O   UNL     1      44.024   5.249  10.911  0.00  0.00    +0.000 OA
BRANCH   9  10
ATOM     10  C   UNL     1      44.546   4.361   9.995  0.00  0.00    +0.000 A 
ATOM     11  C   UNL     1      45.389   4.744   8.944  0.00  0.00    +0.000 A 
ATOM     12  C   UNL     1      45.847   3.798   8.026  0.00  0.00    +0.000 A 
ATOM     13  C   UNL     1      45.518   2.454   8.187  0.00  0.00    +0.000 A 
ATOM     14  C   UNL     1      44.743   2.052   9.274  0.00  0.00    +0.000 A 
ATOM     15  C   UNL     1      44.259   3.002  10.177  0.00  0.00    +0.000 A 
ATOM     16 CL   UNL     1      43.310   2.451  11.513  0.00  0.00    +0.000 Cl
ENDBRANCH   9  10
ENDBRANCH   6   9
ENDBRANCH   2   3
BRANCH   2  17
ATOM     17  N   UNL     1      48.602   7.885  14.369  0.00  0.00    +0.000 N 
ATOM     18  C   UNL     1      48.879   8.017  15.701  0.00  0.00    +0.000 C 
ATOM     19  O   UNL     1      48.289   8.838  16.403  0.00  0.00    +0.000 OA
ATOM     20  H   UNL     1      49.097   7.199  13.808  0.00  0.00    +0.000 HD
BRANCH  18  21
ATOM     21  C   UNL     1      49.917   7.137  16.264  0.00  0.00    +0.000 A 
ATOM     22  C   UNL     1      49.584   6.278  17.305  0.00  0.00    +0.000 A 
ATOM     23  S   UNL     1      50.891   5.353  17.886  0.00  0.00    +0.000 S 
ATOM     24  C   UNL     1      51.957   6.065  16.772  0.00  0.00    +0.000 A 
ATOM     25  N   UNL     1      53.275   5.723  16.760  0.00  0.00    +0.000 NA
ATOM     26  C   UNL     1      53.979   6.333  15.868  0.00  0.00    +0.000 A 
ATOM     27  N   UNL     1      53.481   7.244  14.974  0.00  0.00    +0.000 N 
ATOM     28  C   UNL     1      52.156   7.610  14.940  0.00  0.00    +0.000 A 
ATOM     29  O   UNL     1      51.747   8.414  14.108  0.00  0.00    +0.000 OA
ATOM     30  C   UNL     1      51.322   6.976  15.944  0.00  0.00    +0.000 A 
ATOM     31  H   UNL     1      54.079   7.674  14.287  0.00  0.00    +0.000 HD
ENDBRANCH  18  21
ENDBRANCH   2  17
TORSDOF 5
ENDMDL
MODEL 5
REMARK VINA RESULT:    -6.514      3.801      8.297
REMARK INTER + INTRA:          -9.783
REMARK INTER:                  -8.822
REMARK INTRA:                  -0.961
REMARK UNBOUND:                -1.365
REMARK  Name = 
REMARK  6 active torsions:
REMARK  status: ('A' for Active; 'I' for Inactive)
REMARK    1  A    between atoms: C_1  and  C_2
REMARK    2  A    between atoms: C_2  and  N_3
REMARK    3  A    between atoms: C_2  and  C_16
REMARK    4  A    between atoms: C_4  and  C_6
REMARK    5  A    between atoms: C_19  and  O_20
REMARK    6  A    between atoms: O_20  and  C_21
REMARK                            x       y       z     vdW  Elec       q    Type
REMARK                         _______ _______ _______ _____ _____    ______ ____
ROOT
ATOM      1  C   UNL     1      48.545   9.297  16.030  0.00  0.00    +0.000 C 
ATOM      2  C   UNL     1      48.884   8.024  15.245  0.00  0.00    +0.000 C 
ENDROOT
BRANCH   2   3
ATOM      3  C   UNL     1      49.414   6.901  16.119  0.00  0.00    +0.000 A 
ATOM      4  C   UNL     1      50.801   6.708  16.215  0.00  0.00    +0.000 A 
ATOM      5  C   UNL     1      51.325   5.667  16.985  0.00  0.00    +0.000 A 
ATOM      6  C   UNL     1      50.470   4.839  17.713  0.00  0.00    +0.000 A 
ATOM      7  C   UNL     1      49.091   4.980  17.575  0.00  0.00    +0.000 A 
ATOM      8  C   UNL     1      48.566   5.996  16.775  0.00  0.00    +0.000 A 
BRANCH   6   9
ATOM      9  O   UNL     1      50.881   3.820  18.538  0.00  0.00    +0.000 OA
BRANCH   9  10
ATOM     10  C   UNL     1      52.223   3.526  18.661  0.00  0.00    +0.000 A 
ATOM     11  C   UNL     1      53.120   4.313  19.392  0.00  0.00    +0.000 A 
ATOM     12  C   UNL     1      54.475   3.982  19.439  0.00  0.00    +0.000 A 
ATOM     13  C   UNL     1      54.931   2.826  18.809  0.00  0.00    +0.000 A 
ATOM     14  C   UNL     1      54.032   1.993  18.143  0.00  0.00    +0.000 A 
ATOM     15  C   UNL     1      52.680   2.341  18.070  0.00  0.00    +0.000 A 
ATOM     16 CL   UNL     1      51.605   1.271  17.242  0.00  0.00    +0.000 Cl
ENDBRANCH   9  10
ENDBRANCH   6   9
ENDBRANCH   2   3
BRANCH   2  17
ATOM     17  N   UNL     1      47.731   7.536  14.517  0.00  0.00    +0.000 N 
ATOM     18  C   UNL     1      47.823   6.767  13.390  0.00  0.00    +0.000 C 
ATOM     19  O   UNL     1      48.912   6.424  12.933  0.00  0.00    +0.000 OA
ATOM     20  H   UNL     1      46.822   7.806  14.880  0.00  0.00    +0.000 HD
BRANCH  18  21
ATOM     21  C   UNL     1      46.562   6.368  12.741  0.00  0.00    +0.000 A 
ATOM     22  C   UNL     1      45.791   7.335  12.108  0.00  0.00    +0.000 A 
ATOM     23  S   UNL     1      44.341   6.741  11.441  0.00  0.00    +0.000 S 
ATOM     24  C   UNL     1      44.682   5.164  11.973  0.00  0.00    +0.000 A 
ATOM     25  N   UNL     1      43.803   4.151  11.743  0.00  0.00    +0.000 NA
ATOM     26  C   UNL     1      44.177   3.003  12.196  0.00  0.00    +0.000 A 
ATOM     27  N   UNL     1      45.362   2.773  12.846  0.00  0.00    +0.000 N 
ATOM     28  C   UNL     1      46.286   3.761  13.089  0.00  0.00    +0.000 A 
ATOM     29  O   UNL     1      47.344   3.506  13.655  0.00  0.00    +0.000 OA
ATOM     30  C   UNL     1      45.902   5.082  12.626  0.00  0.00    +0.000 A 
ATOM     31  H   UNL     1      45.607   1.848  13.161  0.00  0.00    +0.000 HD
ENDBRANCH  18  21
ENDBRANCH   2  17
TORSDOF 5
ENDMDL
MODEL 6
REMARK VINA RESULT:    -6.498      4.086      8.451
REMARK INTER + INTRA:          -9.762
REMARK INTER:                  -8.600
REMARK INTRA:                  -1.162
REMARK UNBOUND:                -1.365
REMARK  Name = 
REMARK  6 active torsions:
REMARK  status: ('A' for Active; 'I' for Inactive)
REMARK    1  A    between atoms: C_1  and  C_2
REMARK    2  A    between atoms: C_2  and  N_3
REMARK    3  A    between atoms: C_2  and  C_16
REMARK    4  A    between atoms: C_4  and  C_6
REMARK    5  A    between atoms: C_19  and  O_20
REMARK    6  A    between atoms: O_20  and  C_21
REMARK                            x       y       z     vdW  Elec       q    Type
REMARK                         _______ _______ _______ _____ _____    ______ ____
ROOT
ATOM      1  C   UNL     1      48.130   9.084  15.850  0.00  0.00    +0.000 C 
ATOM      2  C   UNL     1      48.690   7.841  15.149  0.00  0.00    +0.000 C 
ENDROOT
BRANCH   2   3
ATOM      3  C   UNL     1      49.536   6.967  16.058  0.00  0.00    +0.000 A 
ATOM      4  C   UNL     1      50.930   6.955  15.890  0.00  0.00    +0.000 A 
ATOM      5  C   UNL     1      51.738   6.141  16.686  0.00  0.00    +0.000 A 
ATOM      6  C   UNL     1      51.168   5.370  17.700  0.00  0.00    +0.000 A 
ATOM      7  C   UNL     1      49.782   5.323  17.834  0.00  0.00    +0.000 A 
ATOM      8  C   UNL     1      48.971   6.108  17.012  0.00  0.00    +0.000 A 
BRANCH   6   9
ATOM      9  O   UNL     1      51.874   4.575  18.570  0.00  0.00    +0.000 OA
BRANCH   9  10
ATOM     10  C   UNL     1      52.304   3.326  18.177  0.00  0.00    +0.000 A 
ATOM     11  C   UNL     1      51.441   2.322  17.720  0.00  0.00    +0.000 A 
ATOM     12  C   UNL     1      51.938   1.064  17.380  0.00  0.00    +0.000 A 
ATOM     13  C   UNL     1      53.309   0.819  17.431  0.00  0.00    +0.000 A 
ATOM     14  C   UNL     1      54.185   1.836  17.810  0.00  0.00    +0.000 A 
ATOM     15  C   UNL     1      53.685   3.087  18.181  0.00  0.00    +0.000 A 
ATOM     16 CL   UNL     1      54.812   4.316  18.634  0.00  0.00    +0.000 Cl
ENDBRANCH   9  10
ENDBRANCH   6   9
ENDBRANCH   2   3
BRANCH   2  17
ATOM     17  N   UNL     1      47.626   7.030  14.591  0.00  0.00    +0.000 N 
ATOM     18  C   UNL     1      47.786   6.227  13.497  0.00  0.00    +0.000 C 
ATOM     19  O   UNL     1      48.870   6.130  12.923  0.00  0.00    +0.000 OA
ATOM     20  H   UNL     1      46.724   7.094  15.053  0.00  0.00    +0.000 HD
BRANCH  18  21
ATOM     21  C   UNL     1      46.605   5.483  13.028  0.00  0.00    +0.000 A 
ATOM     22  C   UNL     1      46.583   4.099  13.154  0.00  0.00    +0.000 A 
ATOM     23  S   UNL     1      45.177   3.367  12.531  0.00  0.00    +0.000 S 
ATOM     24  C   UNL     1      44.539   4.870  12.065  0.00  0.00    +0.000 A 
ATOM     25  N   UNL     1      43.336   4.945  11.431  0.00  0.00    +0.000 NA
ATOM     26  C   UNL     1      42.962   6.142  11.130  0.00  0.00    +0.000 A 
ATOM     27  N   UNL     1      43.676   7.275  11.420  0.00  0.00    +0.000 N 
ATOM     28  C   UNL     1      44.888   7.250  12.070  0.00  0.00    +0.000 A 
ATOM     29  O   UNL     1      45.483   8.291  12.330  0.00  0.00    +0.000 OA
ATOM     30  C   UNL     1      45.372   5.924  12.406  0.00  0.00    +0.000 A 
ATOM     31  H   UNL     1      43.322   8.186  11.175  0.00  0.00    +0.000 HD
ENDBRANCH  18  21
ENDBRANCH   2  17
TORSDOF 5
ENDMDL
MODEL 7
REMARK VINA RESULT:    -6.490      1.955      2.578
REMARK INTER + INTRA:          -9.753
REMARK INTER:                  -8.257
REMARK INTRA:                  -1.496
REMARK UNBOUND:                -1.365
REMARK  Name = 
REMARK  6 active torsions:
REMARK  status: ('A' for Active; 'I' for Inactive)
REMARK    1  A    between atoms: C_1  and  C_2
REMARK    2  A    between atoms: C_2  and  N_3
REMARK    3  A    between atoms: C_2  and  C_16
REMARK    4  A    between atoms: C_4  and  C_6
REMARK    5  A    between atoms: C_19  and  O_20
REMARK    6  A    between atoms: O_20  and  C_21
REMARK                            x       y       z     vdW  Elec       q    Type
REMARK                         _______ _______ _______ _____ _____    ______ ____
ROOT
ATOM      1  C   UNL     1      50.605   8.618  13.603  0.00  0.00    +0.000 C 
ATOM      2  C   UNL     1      49.228   8.671  14.274  0.00  0.00    +0.000 C 
ENDROOT
BRANCH   2   3
ATOM      3  C   UNL     1      48.106   8.160  13.389  0.00  0.00    +0.000 A 
ATOM      4  C   UNL     1      48.356   7.083  12.524  0.00  0.00    +0.000 A 
ATOM      5  C   UNL     1      47.357   6.604  11.672  0.00  0.00    +0.000 A 
ATOM      6  C   UNL     1      46.078   7.161  11.715  0.00  0.00    +0.000 A 
ATOM      7  C   UNL     1      45.836   8.271  12.521  0.00  0.00    +0.000 A 
ATOM      8  C   UNL     1      46.845   8.774  13.344  0.00  0.00    +0.000 A 
BRANCH   6   9
ATOM      9  O   UNL     1      45.013   6.734  10.959  0.00  0.00    +0.000 OA
BRANCH   9  10
ATOM     10  C   UNL     1      44.507   5.463  11.128  0.00  0.00    +0.000 A 
ATOM     11  C   UNL     1      43.674   5.101  12.194  0.00  0.00    +0.000 A 
ATOM     12  C   UNL     1      43.233   3.784  12.330  0.00  0.00    +0.000 A 
ATOM     13  C   UNL     1      43.569   2.834  11.367  0.00  0.00    +0.000 A 
ATOM     14  C   UNL     1      44.334   3.203  10.261  0.00  0.00    +0.000 A 
ATOM     15  C   UNL     1      44.801   4.514  10.140  0.00  0.00    +0.000 A 
ATOM     16 CL   UNL     1      45.738   4.923   8.747  0.00  0.00    +0.000 Cl
ENDBRANCH   9  10
ENDBRANCH   6   9
ENDBRANCH   2   3
BRANCH   2  17
ATOM     17  N   UNL     1      49.220   7.916  15.511  0.00  0.00    +0.000 N 
ATOM     18  C   UNL     1      48.579   8.334  16.644  0.00  0.00    +0.000 C 
ATOM     19  O   UNL     1      47.945   9.388  16.672  0.00  0.00    +0.000 OA
ATOM     20  H   UNL     1      49.735   7.041  15.507  0.00  0.00    +0.000 HD
BRANCH  18  21
ATOM     21  C   UNL     1      48.682   7.473  17.834  0.00  0.00    +0.000 A 
ATOM     22  C   UNL     1      48.882   8.059  19.078  0.00  0.00    +0.000 A 
ATOM     23  S   UNL     1      49.027   6.943  20.356  0.00  0.00    +0.000 S 
ATOM     24  C   UNL     1      48.830   5.628  19.299  0.00  0.00    +0.000 A 
ATOM     25  N   UNL     1      48.880   4.350  19.766  0.00  0.00    +0.000 NA
ATOM     26  C   UNL     1      48.717   3.442  18.865  0.00  0.00    +0.000 A 
ATOM     27  N   UNL     1      48.491   3.698  17.538  0.00  0.00    +0.000 N 
ATOM     28  C   UNL     1      48.418   4.970  17.023  0.00  0.00    +0.000 A 
ATOM     29  O   UNL     1      48.192   5.154  15.830  0.00  0.00    +0.000 OA
ATOM     30  C   UNL     1      48.625   6.032  17.989  0.00  0.00    +0.000 A 
ATOM     31  H   UNL     1      48.352   2.945  16.883  0.00  0.00    +0.000 HD
ENDBRANCH  18  21
ENDBRANCH   2  17
TORSDOF 5
ENDMDL
MODEL 8
REMARK VINA RESULT:    -6.481      3.395      5.408
REMARK INTER + INTRA:          -9.741
REMARK INTER:                  -8.613
REMARK INTRA:                  -1.128
REMARK UNBOUND:                -1.365
REMARK  Name = 
REMARK  6 active torsions:
REMARK  status: ('A' for Active; 'I' for Inactive)
REMARK    1  A    between atoms: C_1  and  C_2
REMARK    2  A    between atoms: C_2  and  N_3
REMARK    3  A    between atoms: C_2  and  C_16
REMARK    4  A    between atoms: C_4  and  C_6
REMARK    5  A    between atoms: C_19  and  O_20
REMARK    6  A    between atoms: O_20  and  C_21
REMARK                            x       y       z     vdW  Elec       q    Type
REMARK                         _______ _______ _______ _____ _____    ______ ____
ROOT
ATOM      1  C   UNL     1      44.677   4.455  12.986  0.00  0.00    +0.000 C 
ATOM      2  C   UNL     1      45.940   5.324  13.024  0.00  0.00    +0.000 C 
ENDROOT
BRANCH   2   3
ATOM      3  C   UNL     1      45.680   6.779  12.677  0.00  0.00    +0.000 A 
ATOM      4  C   UNL     1      44.710   7.088  11.710  0.00  0.00    +0.000 A 
ATOM      5  C   UNL     1      44.466   8.413  11.342  0.00  0.00    +0.000 A 
ATOM      6  C   UNL     1      45.150   9.451  11.977  0.00  0.00    +0.000 A 
ATOM      7  C   UNL     1      46.159   9.155  12.889  0.00  0.00    +0.000 A 
ATOM      8  C   UNL     1      46.431   7.828  13.229  0.00  0.00    +0.000 A 
BRANCH   6   9
ATOM      9  O   UNL     1      44.950  10.787  11.727  0.00  0.00    +0.000 OA
BRANCH   9  10
ATOM     10  C   UNL     1      45.538  11.384  10.633  0.00  0.00    +0.000 A 
ATOM     11  C   UNL     1      46.894  11.730  10.579  0.00  0.00    +0.000 A 
ATOM     12  C   UNL     1      47.415  12.373   9.456  0.00  0.00    +0.000 A 
ATOM     13  C   UNL     1      46.601  12.618   8.353  0.00  0.00    +0.000 A 
ATOM     14  C   UNL     1      45.267  12.208   8.366  0.00  0.00    +0.000 A 
ATOM     15  C   UNL     1      44.737  11.592   9.502  0.00  0.00    +0.000 A 
ATOM     16 CL   UNL     1      43.082  11.095   9.465  0.00  0.00    +0.000 Cl
ENDBRANCH   9  10
ENDBRANCH   6   9
ENDBRANCH   2   3
BRANCH   2  17
ATOM     17  N   UNL     1      46.574   5.268  14.326  0.00  0.00    +0.000 N 
ATOM     18  C   UNL     1      47.221   4.161  14.801  0.00  0.00    +0.000 C 
ATOM     19  O   UNL     1      47.320   3.136  14.128  0.00  0.00    +0.000 OA
ATOM     20  H   UNL     1      46.507   6.106  14.896  0.00  0.00    +0.000 HD
BRANCH  18  21
ATOM     21  C   UNL     1      47.794   4.244  16.155  0.00  0.00    +0.000 A 
ATOM     22  C   UNL     1      47.431   3.294  17.102  0.00  0.00    +0.000 A 
ATOM     23  S   UNL     1      48.133   3.538  18.634  0.00  0.00    +0.000 S 
ATOM     24  C   UNL     1      48.951   4.926  18.096  0.00  0.00    +0.000 A 
ATOM     25  N   UNL     1      49.730   5.645  18.950  0.00  0.00    +0.000 NA
ATOM     26  C   UNL     1      50.297   6.676  18.420  0.00  0.00    +0.000 A 
ATOM     27  N   UNL     1      50.168   7.043  17.107  0.00  0.00    +0.000 N 
ATOM     28  C   UNL     1      49.404   6.340  16.205  0.00  0.00    +0.000 A 
ATOM     29  O   UNL     1      49.335   6.693  15.031  0.00  0.00    +0.000 OA
ATOM     30  C   UNL     1      48.718   5.186  16.755  0.00  0.00    +0.000 A 
ATOM     31  H   UNL     1      50.651   7.850  16.746  0.00  0.00    +0.000 HD
ENDBRANCH  18  21
ENDBRANCH   2  17
TORSDOF 5
ENDMDL
MODEL 9
REMARK VINA RESULT:    -6.415      3.545      5.532
REMARK INTER + INTRA:          -9.655
REMARK INTER:                  -8.548
REMARK INTRA:                  -1.107
REMARK UNBOUND:                -1.365
REMARK  Name = 
REMARK  6 active torsions:
REMARK  status: ('A' for Active; 'I' for Inactive)
REMARK    1  A    between atoms: C_1  and  C_2
REMARK    2  A    between atoms: C_2  and  N_3
REMARK    3  A    between atoms: C_2  and  C_16
REMARK    4  A    between atoms: C_4  and  C_6
REMARK    5  A    between atoms: C_19  and  O_20
REMARK    6  A    between atoms: O_20  and  C_21
REMARK                            x       y       z     vdW  Elec       q    Type
REMARK                         _______ _______ _______ _____ _____    ______ ____
ROOT
ATOM      1  C   UNL     1      44.559   4.389  12.943  0.00  0.00    +0.000 C 
ATOM      2  C   UNL     1      45.802   5.287  12.932  0.00  0.00    +0.000 C 
ENDROOT
BRANCH   2   3
ATOM      3  C   UNL     1      45.505   6.723  12.537  0.00  0.00    +0.000 A 
ATOM      4  C   UNL     1      44.562   6.972  11.527  0.00  0.00    +0.000 A 
ATOM      5  C   UNL     1      44.284   8.277  11.116  0.00  0.00    +0.000 A 
ATOM      6  C   UNL     1      44.906   9.355  11.748  0.00  0.00    +0.000 A 
ATOM      7  C   UNL     1      45.890   9.119  12.706  0.00  0.00    +0.000 A 
ATOM      8  C   UNL     1      46.195   7.812  13.090  0.00  0.00    +0.000 A 
BRANCH   6   9
ATOM      9  O   UNL     1      44.668  10.677  11.457  0.00  0.00    +0.000 OA
BRANCH   9  10
ATOM     10  C   UNL     1      43.476  11.056  10.879  0.00  0.00    +0.000 A 
ATOM     11  C   UNL     1      42.248  11.022  11.551  0.00  0.00    +0.000 A 
ATOM     12  C   UNL     1      41.071  11.379  10.891  0.00  0.00    +0.000 A 
ATOM     13  C   UNL     1      41.121  11.832   9.575  0.00  0.00    +0.000 A 
ATOM     14  C   UNL     1      42.348  11.944   8.922  0.00  0.00    +0.000 A 
ATOM     15  C   UNL     1      43.523  11.558   9.571  0.00  0.00    +0.000 A 
ATOM     16 CL   UNL     1      45.019  11.723   8.721  0.00  0.00    +0.000 Cl
ENDBRANCH   9  10
ENDBRANCH   6   9
ENDBRANCH   2   3
BRANCH   2  17
ATOM     17  N   UNL     1      46.456   5.291  14.225  0.00  0.00    +0.000 N 
ATOM     18  C   UNL     1      47.152   4.224  14.720  0.00  0.00    +0.000 C 
ATOM     19  O   UNL     1      47.282   3.185  14.074  0.00  0.00    +0.000 OA
ATOM     20  H   UNL     1      46.363   6.141  14.773  0.00  0.00    +0.000 HD
BRANCH  18  21
ATOM     21  C   UNL     1      47.740   4.367  16.063  0.00  0.00    +0.000 A 
ATOM     22  C   UNL     1      47.407   3.444  17.048  0.00  0.00    +0.000 A 
ATOM     23  S   UNL     1      48.123   3.757  18.562  0.00  0.00    +0.000 S 
ATOM     24  C   UNL     1      48.907   5.140  17.964  0.00  0.00    +0.000 A 
ATOM     25  N   UNL     1      49.681   5.904  18.782  0.00  0.00    +0.000 NA
ATOM     26  C   UNL     1      50.221   6.926  18.208  0.00  0.00    +0.000 A 
ATOM     27  N   UNL     1      50.069   7.244  16.884  0.00  0.00    +0.000 N 
ATOM     28  C   UNL     1      49.308   6.494  16.018  0.00  0.00    +0.000 A 
ATOM     29  O   UNL     1      49.217   6.803  14.833  0.00  0.00    +0.000 OA
ATOM     30  C   UNL     1      48.652   5.348  16.617  0.00  0.00    +0.000 A 
ATOM     31  H   UNL     1      50.531   8.047  16.489  0.00  0.00    +0.000 HD
ENDBRANCH  18  21
ENDBRANCH   2  17
TORSDOF 5
ENDMDL
