MODEL 1
REMARK VINA RESULT:    -8.839      0.000      0.000
REMARK INTER + INTRA:         -14.282
REMARK INTER:                 -13.231
REMARK INTRA:                  -1.051
REMARK UNBOUND:                -1.051
REMARK  Name = 
REMARK  10 active torsions:
REMARK  status: ('A' for Active; 'I' for Inactive)
REMARK    1  A    between atoms: C_1  and  N_2
REMARK    2  A    between atoms: N_2  and  C_3
REMARK    3  A    between atoms: N_2  and  C_10
REMARK    4  A    between atoms: C_3  and  C_4
REMARK    5  A    between atoms: C_10  and  C_11
REMARK    6  A    between atoms: C_10  and  C_13
REMARK    7  A    between atoms: C_11  and  N_12
REMARK    8  A    between atoms: C_16  and  C_17
REMARK    9  A    between atoms: C_17  and  N_18
REMARK   10  A    between atoms: C_19  and  C_21
REMARK                            x       y       z     vdW  Elec       q    Type
REMARK                         _______ _______ _______ _____ _____    ______ ____
ROOT
ATOM      1  C   UNL     1      45.331   5.208  11.663  0.00  0.00    +0.000 A 
ATOM      2  C   UNL     1      45.614   4.781  12.971  0.00  0.00    +0.000 A 
ATOM      3  C   UNL     1      46.687   5.321  13.686  0.00  0.00    +0.000 A 
ATOM      4  C   UNL     1      47.473   6.335  13.124  0.00  0.00    +0.000 A 
ATOM      5  C   UNL     1      47.192   6.770  11.824  0.00  0.00    +0.000 A 
ATOM      6  C   UNL     1      46.146   6.201  11.097  0.00  0.00    +0.000 A 
ENDROOT
BRANCH   1   7
ATOM      7  C   UNL     1      44.201   4.541  10.865  0.00  0.00    +0.000 C 
BRANCH   7   9
ATOM      8  C   UNL     1      43.297   2.425  11.766  0.00  0.00    +0.000 C 
ATOM      9  N   UNL     1      44.289   3.050  10.898  0.00  0.00    +0.000 NA
BRANCH   9  10
ATOM     10  C   UNL     1      44.368   2.419   9.563  0.00  0.00    +0.000 C 
BRANCH  10  11
ATOM     11  C   UNL     1      45.669   2.553   8.734  0.00  0.00    +0.000 C 
ATOM     12  C   UNL     1      45.563   3.594   7.609  0.00  0.00    +0.000 C 
ATOM     13  C   UNL     1      46.829   3.669   6.768  0.00  0.00    +0.000 C 
ATOM     14  C   UNL     1      47.204   2.310   6.197  0.00  0.00    +0.000 C 
ATOM     15  C   UNL     1      47.323   1.264   7.300  0.00  0.00    +0.000 C 
ATOM     16  C   UNL     1      46.047   1.182   8.136  0.00  0.00    +0.000 C 
ENDBRANCH  10  11
ENDBRANCH   9  10
ENDBRANCH   7   9
BRANCH   7  17
ATOM     17  C   UNL     1      42.826   5.098  11.397  0.00  0.00    +0.000 C 
BRANCH  17  18
ATOM     18  N   UNL     1      42.576   6.524  11.127  0.00  0.00    +0.000 NA
ATOM     19  H   UNL     1      43.425   6.929  10.728  0.00  0.00    +0.000 HD
ATOM     20  H   UNL     1      42.432   7.007  12.011  0.00  0.00    +0.000 HD
ENDBRANCH  17  18
ENDBRANCH   7  17
ENDBRANCH   1   7
BRANCH   4  21
ATOM     21  C   UNL     1      48.649   6.906  13.870  0.00  0.00    +0.000 C 
BRANCH  21  22
ATOM     22  N   UNL     1      48.337   7.063  15.270  0.00  0.00    +0.000 N 
ATOM     23  C   UNL     1      49.244   6.718  16.237  0.00  0.00    +0.000 C 
ATOM     24  O   UNL     1      50.366   6.307  15.953  0.00  0.00    +0.000 OA
ATOM     25  H   UNL     1      47.362   7.193  15.515  0.00  0.00    +0.000 HD
BRANCH  23  26
ATOM     26  C   UNL     1      48.832   6.918  17.630  0.00  0.00    +0.000 A 
ATOM     27  C   UNL     1      48.405   8.176  18.037  0.00  0.00    +0.000 A 
ATOM     28  S   UNL     1      47.913   8.238  19.667  0.00  0.00    +0.000 S 
ATOM     29  C   UNL     1      48.297   6.598  19.901  0.00  0.00    +0.000 A 
ATOM     30  N   UNL     1      48.127   6.011  21.117  0.00  0.00    +0.000 NA
ATOM     31  C   UNL     1      48.483   4.771  21.163  0.00  0.00    +0.000 A 
ATOM     32  N   UNL     1      48.989   4.063  20.105  0.00  0.00    +0.000 N 
ATOM     33  C   UNL     1      49.148   4.604  18.848  0.00  0.00    +0.000 A 
ATOM     34  O   UNL     1      49.559   3.929  17.911  0.00  0.00    +0.000 OA
ATOM     35  C   UNL     1      48.778   6.004  18.748  0.00  0.00    +0.000 A 
ATOM     36  H   UNL     1      49.239   3.089  20.205  0.00  0.00    +0.000 HD
ENDBRANCH  23  26
ENDBRANCH  21  22
ENDBRANCH   4  21
TORSDOF 9
ENDMDL
MODEL 2
REMARK VINA RESULT:    -8.677      1.390      2.305
REMARK INTER + INTRA:         -14.041
REMARK INTER:                 -12.752
REMARK INTRA:                  -1.289
REMARK UNBOUND:                -1.051
REMARK  Name = 
REMARK  10 active torsions:
REMARK  status: ('A' for Active; 'I' for Inactive)
REMARK    1  A    between atoms: C_1  and  N_2
REMARK    2  A    between atoms: N_2  and  C_3
REMARK    3  A    between atoms: N_2  and  C_10
REMARK    4  A    between atoms: C_3  and  C_4
REMARK    5  A    between atoms: C_10  and  C_11
REMARK    6  A    between atoms: C_10  and  C_13
REMARK    7  A    between atoms: C_11  and  N_12
REMARK    8  A    between atoms: C_16  and  C_17
REMARK    9  A    between atoms: C_17  and  N_18
REMARK   10  A    between atoms: C_19  and  C_21
REMARK                            x       y       z     vdW  Elec       q    Type
REMARK                         _______ _______ _______ _____ _____    ______ ____
ROOT
ATOM      1  C   UNL     1      45.396   5.150  11.625  0.00  0.00    +0.000 A 
ATOM      2  C   UNL     1      46.111   6.223  11.067  0.00  0.00    +0.000 A 
ATOM      3  C   UNL     1      47.118   6.866  11.791  0.00  0.00    +0.000 A 
ATOM      4  C   UNL     1      47.465   6.420  13.072  0.00  0.00    +0.000 A 
ATOM      5  C   UNL     1      46.762   5.346  13.630  0.00  0.00    +0.000 A 
ATOM      6  C   UNL     1      45.729   4.732  12.922  0.00  0.00    +0.000 A 
ENDROOT
BRANCH   1   7
ATOM      7  C   UNL     1      44.235   4.513  10.845  0.00  0.00    +0.000 C 
BRANCH   7   9
ATOM      8  C   UNL     1      43.262   2.409  11.697  0.00  0.00    +0.000 C 
ATOM      9  N   UNL     1      44.292   3.020  10.866  0.00  0.00    +0.000 NA
BRANCH   9  10
ATOM     10  C   UNL     1      44.399   2.400   9.528  0.00  0.00    +0.000 C 
BRANCH  10  11
ATOM     11  C   UNL     1      45.723   2.527   8.735  0.00  0.00    +0.000 C 
ATOM     12  C   UNL     1      45.669   3.606   7.641  0.00  0.00    +0.000 C 
ATOM     13  C   UNL     1      46.956   3.675   6.832  0.00  0.00    +0.000 C 
ATOM     14  C   UNL     1      47.311   2.326   6.227  0.00  0.00    +0.000 C 
ATOM     15  C   UNL     1      47.378   1.243   7.298  0.00  0.00    +0.000 C 
ATOM     16  C   UNL     1      46.081   1.166   8.101  0.00  0.00    +0.000 C 
ENDBRANCH  10  11
ENDBRANCH   9  10
ENDBRANCH   7   9
BRANCH   7  17
ATOM     17  C   UNL     1      42.884   5.095  11.409  0.00  0.00    +0.000 C 
BRANCH  17  18
ATOM     18  N   UNL     1      42.698   6.546  11.228  0.00  0.00    +0.000 NA
ATOM     19  H   UNL     1      43.518   6.916  10.746  0.00  0.00    +0.000 HD
ATOM     20  H   UNL     1      42.691   6.994  12.142  0.00  0.00    +0.000 HD
ENDBRANCH  17  18
ENDBRANCH   7  17
ENDBRANCH   1   7
BRANCH   4  21
ATOM     21  C   UNL     1      48.529   7.120  13.874  0.00  0.00    +0.000 C 
BRANCH  21  22
ATOM     22  N   UNL     1      48.185   7.136  15.275  0.00  0.00    +0.000 N 
ATOM     23  C   UNL     1      49.054   6.658  16.220  0.00  0.00    +0.000 C 
ATOM     24  O   UNL     1      50.169   6.241  15.920  0.00  0.00    +0.000 OA
ATOM     25  H   UNL     1      47.207   7.273  15.510  0.00  0.00    +0.000 HD
BRANCH  23  26
ATOM     26  C   UNL     1      48.611   6.720  17.617  0.00  0.00    +0.000 A 
ATOM     27  C   UNL     1      48.621   5.561  18.383  0.00  0.00    +0.000 A 
ATOM     28  S   UNL     1      48.127   5.802  19.996  0.00  0.00    +0.000 S 
ATOM     29  C   UNL     1      47.837   7.454  19.717  0.00  0.00    +0.000 A 
ATOM     30  N   UNL     1      47.367   8.255  20.711  0.00  0.00    +0.000 NA
ATOM     31  C   UNL     1      47.165   9.479  20.357  0.00  0.00    +0.000 A 
ATOM     32  N   UNL     1      47.394   9.978  19.101  0.00  0.00    +0.000 N 
ATOM     33  C   UNL     1      47.902   9.215  18.072  0.00  0.00    +0.000 A 
ATOM     34  O   UNL     1      48.141   9.704  16.974  0.00  0.00    +0.000 OA
ATOM     35  C   UNL     1      48.129   7.823  18.416  0.00  0.00    +0.000 A 
ATOM     36  H   UNL     1      47.225  10.952  18.892  0.00  0.00    +0.000 HD
ENDBRANCH  23  26
ENDBRANCH  21  22
ENDBRANCH   4  21
TORSDOF 9
ENDMDL
MODEL 3
REMARK VINA RESULT:    -8.202      1.132      1.654
REMARK INTER + INTRA:         -13.329
REMARK INTER:                 -12.484
REMARK INTRA:                  -0.846
REMARK UNBOUND:                -1.051
REMARK  Name = 
REMARK  10 active torsions:
REMARK  status: ('A' for Active; 'I' for Inactive)
REMARK    1  A    between atoms: C_1  and  N_2
REMARK    2  A    between atoms: N_2  and  C_3
REMARK    3  A    between atoms: N_2  and  C_10
REMARK    4  A    between atoms: C_3  and  C_4
REMARK    5  A    between atoms: C_10  and  C_11
REMARK    6  A    between atoms: C_10  and  C_13
REMARK    7  A    between atoms: C_11  and  N_12
REMARK    8  A    between atoms: C_16  and  C_17
REMARK    9  A    between atoms: C_17  and  N_18
REMARK   10  A    between atoms: C_19  and  C_21
REMARK                            x       y       z     vdW  Elec       q    Type
REMARK                         _______ _______ _______ _____ _____    ______ ____
ROOT
ATOM      1  C   UNL     1      45.640   5.360  11.944  0.00  0.00    +0.000 A 
ATOM      2  C   UNL     1      46.287   6.460  11.357  0.00  0.00    +0.000 A 
ATOM      3  C   UNL     1      47.443   7.000  11.926  0.00  0.00    +0.000 A 
ATOM      4  C   UNL     1      48.006   6.422  13.070  0.00  0.00    +0.000 A 
ATOM      5  C   UNL     1      47.371   5.320  13.656  0.00  0.00    +0.000 A 
ATOM      6  C   UNL     1      46.194   4.808  13.109  0.00  0.00    +0.000 A 
ENDROOT
BRANCH   1   7
ATOM      7  C   UNL     1      44.324   4.836  11.350  0.00  0.00    +0.000 C 
BRANCH   7   9
ATOM      8  C   UNL     1      43.753   2.480  10.876  0.00  0.00    +0.000 C 
ATOM      9  N   UNL     1      44.533   3.644  10.474  0.00  0.00    +0.000 NA
BRANCH   9  10
ATOM     10  C   UNL     1      44.437   3.933   9.027  0.00  0.00    +0.000 C 
BRANCH  10  11
ATOM     11  C   UNL     1      45.198   3.036   8.020  0.00  0.00    +0.000 C 
ATOM     12  C   UNL     1      45.830   1.798   8.674  0.00  0.00    +0.000 C 
ATOM     13  C   UNL     1      46.625   0.961   7.682  0.00  0.00    +0.000 C 
ATOM     14  C   UNL     1      47.688   1.787   6.977  0.00  0.00    +0.000 C 
ATOM     15  C   UNL     1      47.079   3.017   6.313  0.00  0.00    +0.000 C 
ATOM     16  C   UNL     1      46.292   3.863   7.313  0.00  0.00    +0.000 C 
ENDBRANCH  10  11
ENDBRANCH   9  10
ENDBRANCH   7   9
BRANCH   7  17
ATOM     17  C   UNL     1      43.319   4.572  12.535  0.00  0.00    +0.000 C 
BRANCH  17  18
ATOM     18  N   UNL     1      42.850   5.775  13.245  0.00  0.00    +0.000 NA
ATOM     19  H   UNL     1      41.831   5.805  13.186  0.00  0.00    +0.000 HD
ATOM     20  H   UNL     1      43.178   6.600  12.747  0.00  0.00    +0.000 HD
ENDBRANCH  17  18
ENDBRANCH   7  17
ENDBRANCH   1   7
BRANCH   4  21
ATOM     21  C   UNL     1      49.234   7.009  13.710  0.00  0.00    +0.000 C 
BRANCH  21  22
ATOM     22  N   UNL     1      49.151   6.925  15.148  0.00  0.00    +0.000 N 
ATOM     23  C   UNL     1      50.273   7.032  15.926  0.00  0.00    +0.000 C 
ATOM     24  O   UNL     1      51.380   7.247  15.439  0.00  0.00    +0.000 OA
ATOM     25  H   UNL     1      48.298   6.541  15.540  0.00  0.00    +0.000 HD
BRANCH  23  26
ATOM     26  C   UNL     1      50.082   6.935  17.377  0.00  0.00    +0.000 A 
ATOM     27  C   UNL     1      50.383   8.031  18.176  0.00  0.00    +0.000 A 
ATOM     28  S   UNL     1      50.062   7.782  19.831  0.00  0.00    +0.000 S 
ATOM     29  C   UNL     1      49.555   6.185  19.547  0.00  0.00    +0.000 A 
ATOM     30  N   UNL     1      49.156   5.389  20.576  0.00  0.00    +0.000 NA
ATOM     31  C   UNL     1      48.823   4.193  20.225  0.00  0.00    +0.000 A 
ATOM     32  N   UNL     1      48.846   3.720  18.938  0.00  0.00    +0.000 N 
ATOM     33  C   UNL     1      49.209   4.498  17.861  0.00  0.00    +0.000 A 
ATOM     34  O   UNL     1      49.172   4.058  16.717  0.00  0.00    +0.000 OA
ATOM     35  C   UNL     1      49.611   5.849  18.206  0.00  0.00    +0.000 A 
ATOM     36  H   UNL     1      48.562   2.774  18.729  0.00  0.00    +0.000 HD
ENDBRANCH  23  26
ENDBRANCH  21  22
ENDBRANCH   4  21
TORSDOF 9
ENDMDL
MODEL 4
REMARK VINA RESULT:    -8.113      1.775      2.066
REMARK INTER + INTRA:         -13.196
REMARK INTER:                 -12.079
REMARK INTRA:                  -1.117
REMARK UNBOUND:                -1.051
REMARK  Name = 
REMARK  10 active torsions:
REMARK  status: ('A' for Active; 'I' for Inactive)
REMARK    1  A    between atoms: C_1  and  N_2
REMARK    2  A    between atoms: N_2  and  C_3
REMARK    3  A    between atoms: N_2  and  C_10
REMARK    4  A    between atoms: C_3  and  C_4
REMARK    5  A    between atoms: C_10  and  C_11
REMARK    6  A    between atoms: C_10  and  C_13
REMARK    7  A    between atoms: C_11  and  N_12
REMARK    8  A    between atoms: C_16  and  C_17
REMARK    9  A    between atoms: C_17  and  N_18
REMARK   10  A    between atoms: C_19  and  C_21
REMARK                            x       y       z     vdW  Elec       q    Type
REMARK                         _______ _______ _______ _____ _____    ______ ____
ROOT
ATOM      1  C   UNL     1      44.935   6.015  11.459  0.00  0.00    +0.000 A 
ATOM      2  C   UNL     1      44.830   7.412  11.572  0.00  0.00    +0.000 A 
ATOM      3  C   UNL     1      45.851   8.162  12.160  0.00  0.00    +0.000 A 
ATOM      4  C   UNL     1      47.022   7.537  12.607  0.00  0.00    +0.000 A 
ATOM      5  C   UNL     1      47.136   6.147  12.490  0.00  0.00    +0.000 A 
ATOM      6  C   UNL     1      46.098   5.395  11.940  0.00  0.00    +0.000 A 
ENDROOT
BRANCH   1   7
ATOM      7  C   UNL     1      43.765   5.201  10.887  0.00  0.00    +0.000 C 
BRANCH   7   9
ATOM      8  C   UNL     1      43.337   2.835  11.453  0.00  0.00    +0.000 C 
ATOM      9  N   UNL     1      44.129   3.770  10.662  0.00  0.00    +0.000 NA
BRANCH   9  10
ATOM     10  C   UNL     1      44.222   3.386   9.237  0.00  0.00    +0.000 C 
BRANCH  10  11
ATOM     11  C   UNL     1      45.577   2.900   8.667  0.00  0.00    +0.000 C 
ATOM     12  C   UNL     1      45.995   3.642   7.388  0.00  0.00    +0.000 C 
ATOM     13  C   UNL     1      47.298   3.110   6.808  0.00  0.00    +0.000 C 
ATOM     14  C   UNL     1      47.227   1.613   6.552  0.00  0.00    +0.000 C 
ATOM     15  C   UNL     1      46.822   0.858   7.812  0.00  0.00    +0.000 C 
ATOM     16  C   UNL     1      45.508   1.384   8.386  0.00  0.00    +0.000 C 
ENDBRANCH  10  11
ENDBRANCH   9  10
ENDBRANCH   7   9
BRANCH   7  17
ATOM     17  C   UNL     1      42.522   5.388  11.837  0.00  0.00    +0.000 C 
BRANCH  17  18
ATOM     18  N   UNL     1      42.835   5.500  13.272  0.00  0.00    +0.000 NA
ATOM     19  H   UNL     1      42.013   5.210  13.804  0.00  0.00    +0.000 HD
ATOM     20  H   UNL     1      42.978   6.482  13.503  0.00  0.00    +0.000 HD
ENDBRANCH  17  18
ENDBRANCH   7  17
ENDBRANCH   1   7
BRANCH   4  21
ATOM     21  C   UNL     1      48.118   8.329  13.268  0.00  0.00    +0.000 C 
BRANCH  21  22
ATOM     22  N   UNL     1      48.714   7.576  14.345  0.00  0.00    +0.000 N 
ATOM     23  C   UNL     1      48.644   8.020  15.638  0.00  0.00    +0.000 C 
ATOM     24  O   UNL     1      48.038   9.045  15.938  0.00  0.00    +0.000 OA
ATOM     25  H   UNL     1      49.385   6.859  14.091  0.00  0.00    +0.000 HD
BRANCH  23  26
ATOM     26  C   UNL     1      49.279   7.181  16.660  0.00  0.00    +0.000 A 
ATOM     27  C   UNL     1      50.274   7.726  17.462  0.00  0.00    +0.000 A 
ATOM     28  S   UNL     1      50.879   6.645  18.633  0.00  0.00    +0.000 S 
ATOM     29  C   UNL     1      49.868   5.395  18.079  0.00  0.00    +0.000 A 
ATOM     30  N   UNL     1      49.907   4.163  18.655  0.00  0.00    +0.000 NA
ATOM     31  C   UNL     1      49.109   3.301  18.121  0.00  0.00    +0.000 A 
ATOM     32  N   UNL     1      48.272   3.558  17.066  0.00  0.00    +0.000 N 
ATOM     33  C   UNL     1      48.174   4.798  16.473  0.00  0.00    +0.000 A 
ATOM     34  O   UNL     1      47.380   5.007  15.563  0.00  0.00    +0.000 OA
ATOM     35  C   UNL     1      49.066   5.799  17.027  0.00  0.00    +0.000 A 
ATOM     36  H   UNL     1      47.663   2.840  16.701  0.00  0.00    +0.000 HD
ENDBRANCH  23  26
ENDBRANCH  21  22
ENDBRANCH   4  21
TORSDOF 9
ENDMDL
MODEL 5
REMARK VINA RESULT:    -7.463      1.950      2.446
REMARK INTER + INTRA:         -12.223
REMARK INTER:                 -12.000
REMARK INTRA:                  -0.223
REMARK UNBOUND:                -1.051
REMARK  Name = 
REMARK  10 active torsions:
REMARK  status: ('A' for Active; 'I' for Inactive)
REMARK    1  A    between atoms: C_1  and  N_2
REMARK    2  A    between atoms: N_2  and  C_3
REMARK    3  A    between atoms: N_2  and  C_10
REMARK    4  A    between atoms: C_3  and  C_4
REMARK    5  A    between atoms: C_10  and  C_11
REMARK    6  A    between atoms: C_10  and  C_13
REMARK    7  A    between atoms: C_11  and  N_12
REMARK    8  A    between atoms: C_16  and  C_17
REMARK    9  A    between atoms: C_17  and  N_18
REMARK   10  A    between atoms: C_19  and  C_21
REMARK                            x       y       z     vdW  Elec       q    Type
REMARK                         _______ _______ _______ _____ _____    ______ ____
ROOT
ATOM      1  C   UNL     1      44.878   6.135  11.758  0.00  0.00    +0.000 A 
ATOM      2  C   UNL     1      44.843   7.539  11.778  0.00  0.00    +0.000 A 
ATOM      3  C   UNL     1      45.762   8.269  12.536  0.00  0.00    +0.000 A 
ATOM      4  C   UNL     1      46.767   7.611  13.256  0.00  0.00    +0.000 A 
ATOM      5  C   UNL     1      46.813   6.212  13.234  0.00  0.00    +0.000 A 
ATOM      6  C   UNL     1      45.869   5.484  12.509  0.00  0.00    +0.000 A 
ENDROOT
BRANCH   1   7
ATOM      7  C   UNL     1      43.806   5.351  10.986  0.00  0.00    +0.000 C 
BRANCH   7   9
ATOM      8  C   UNL     1      43.518   2.924  11.343  0.00  0.00    +0.000 C 
ATOM      9  N   UNL     1      44.256   3.968  10.642  0.00  0.00    +0.000 NA
BRANCH   9  10
ATOM     10  C   UNL     1      44.377   3.715   9.190  0.00  0.00    +0.000 C 
BRANCH  10  11
ATOM     11  C   UNL     1      45.677   3.084   8.635  0.00  0.00    +0.000 C 
ATOM     12  C   UNL     1      46.144   3.724   7.318  0.00  0.00    +0.000 C 
ATOM     13  C   UNL     1      47.388   3.051   6.756  0.00  0.00    +0.000 C 
ATOM     14  C   UNL     1      47.182   1.556   6.573  0.00  0.00    +0.000 C 
ATOM     15  C   UNL     1      46.727   0.900   7.872  0.00  0.00    +0.000 C 
ATOM     16  C   UNL     1      45.472   1.568   8.429  0.00  0.00    +0.000 C 
ENDBRANCH  10  11
ENDBRANCH   9  10
ENDBRANCH   7   9
BRANCH   7  17
ATOM     17  C   UNL     1      42.471   5.385  11.822  0.00  0.00    +0.000 C 
BRANCH  17  18
ATOM     18  N   UNL     1      42.644   5.418  13.285  0.00  0.00    +0.000 NA
ATOM     19  H   UNL     1      43.322   6.147  13.512  0.00  0.00    +0.000 HD
ATOM     20  H   UNL     1      43.071   4.544  13.586  0.00  0.00    +0.000 HD
ENDBRANCH  17  18
ENDBRANCH   7  17
ENDBRANCH   1   7
BRANCH   4  21
ATOM     21  C   UNL     1      47.746   8.382  14.100  0.00  0.00    +0.000 C 
BRANCH  21  22
ATOM     22  N   UNL     1      48.108   7.631  15.277  0.00  0.00    +0.000 N 
ATOM     23  C   UNL     1      49.271   6.909  15.323  0.00  0.00    +0.000 C 
ATOM     24  O   UNL     1      50.068   6.906  14.388  0.00  0.00    +0.000 OA
ATOM     25  H   UNL     1      47.375   7.454  15.956  0.00  0.00    +0.000 HD
BRANCH  23  26
ATOM     26  C   UNL     1      49.548   6.182  16.566  0.00  0.00    +0.000 A 
ATOM     27  C   UNL     1      48.489   5.653  17.293  0.00  0.00    +0.000 A 
ATOM     28  S   UNL     1      48.972   4.795  18.683  0.00  0.00    +0.000 S 
ATOM     29  C   UNL     1      50.611   5.138  18.390  0.00  0.00    +0.000 A 
ATOM     30  N   UNL     1      51.577   4.699  19.242  0.00  0.00    +0.000 NA
ATOM     31  C   UNL     1      52.775   5.052  18.917  0.00  0.00    +0.000 A 
ATOM     32  N   UNL     1      53.097   5.801  17.815  0.00  0.00    +0.000 N 
ATOM     33  C   UNL     1      52.159   6.239  16.906  0.00  0.00    +0.000 A 
ATOM     34  O   UNL     1      52.487   6.866  15.906  0.00  0.00    +0.000 OA
ATOM     35  C   UNL     1      50.792   5.882  17.238  0.00  0.00    +0.000 A 
ATOM     36  H   UNL     1      54.058   6.035  17.611  0.00  0.00    +0.000 HD
ENDBRANCH  23  26
ENDBRANCH  21  22
ENDBRANCH   4  21
TORSDOF 9
ENDMDL
MODEL 6
REMARK VINA RESULT:    -7.095      3.794     10.258
REMARK INTER + INTRA:         -11.672
REMARK INTER:                  -9.770
REMARK INTRA:                  -1.902
REMARK UNBOUND:                -1.051
REMARK  Name = 
REMARK  10 active torsions:
REMARK  status: ('A' for Active; 'I' for Inactive)
REMARK    1  A    between atoms: C_1  and  N_2
REMARK    2  A    between atoms: N_2  and  C_3
REMARK    3  A    between atoms: N_2  and  C_10
REMARK    4  A    between atoms: C_3  and  C_4
REMARK    5  A    between atoms: C_10  and  C_11
REMARK    6  A    between atoms: C_10  and  C_13
REMARK    7  A    between atoms: C_11  and  N_12
REMARK    8  A    between atoms: C_16  and  C_17
REMARK    9  A    between atoms: C_17  and  N_18
REMARK   10  A    between atoms: C_19  and  C_21
REMARK                            x       y       z     vdW  Elec       q    Type
REMARK                         _______ _______ _______ _____ _____    ______ ____
ROOT
ATOM      1  C   UNL     1      51.239   4.567  17.868  0.00  0.00    +0.000 A 
ATOM      2  C   UNL     1      50.887   3.209  17.800  0.00  0.00    +0.000 A 
ATOM      3  C   UNL     1      49.608   2.819  17.396  0.00  0.00    +0.000 A 
ATOM      4  C   UNL     1      48.666   3.778  17.004  0.00  0.00    +0.000 A 
ATOM      5  C   UNL     1      49.013   5.133  17.061  0.00  0.00    +0.000 A 
ATOM      6  C   UNL     1      50.276   5.522  17.504  0.00  0.00    +0.000 A 
ENDROOT
BRANCH   1   7
ATOM      7  C   UNL     1      52.622   4.978  18.396  0.00  0.00    +0.000 C 
BRANCH   7   9
ATOM      8  C   UNL     1      53.967   4.422  20.392  0.00  0.00    +0.000 C 
ATOM      9  N   UNL     1      52.695   4.926  19.888  0.00  0.00    +0.000 NA
BRANCH   9  10
ATOM     10  C   UNL     1      52.259   6.170  20.559  0.00  0.00    +0.000 C 
BRANCH  10  11
ATOM     11  C   UNL     1      50.840   6.245  21.172  0.00  0.00    +0.000 C 
ATOM     12  C   UNL     1      50.099   4.899  21.146  0.00  0.00    +0.000 C 
ATOM     13  C   UNL     1      48.684   5.006  21.696  0.00  0.00    +0.000 C 
ATOM     14  C   UNL     1      47.877   6.067  20.966  0.00  0.00    +0.000 C 
ATOM     15  C   UNL     1      48.592   7.414  20.989  0.00  0.00    +0.000 C 
ATOM     16  C   UNL     1      50.007   7.308  20.425  0.00  0.00    +0.000 C 
ENDBRANCH  10  11
ENDBRANCH   9  10
ENDBRANCH   7   9
BRANCH   7  17
ATOM     17  C   UNL     1      53.707   4.084  17.685  0.00  0.00    +0.000 C 
BRANCH  17  18
ATOM     18  N   UNL     1      54.826   4.820  17.071  0.00  0.00    +0.000 NA
ATOM     19  H   UNL     1      54.459   5.682  16.665  0.00  0.00    +0.000 HD
ATOM     20  H   UNL     1      55.185   4.279  16.286  0.00  0.00    +0.000 HD
ENDBRANCH  17  18
ENDBRANCH   7  17
ENDBRANCH   1   7
BRANCH   4  21
ATOM     21  C   UNL     1      47.276   3.374  16.593  0.00  0.00    +0.000 C 
BRANCH  21  22
ATOM     22  N   UNL     1      46.704   4.350  15.696  0.00  0.00    +0.000 N 
ATOM     23  C   UNL     1      46.743   4.168  14.339  0.00  0.00    +0.000 C 
ATOM     24  O   UNL     1      47.221   3.155  13.836  0.00  0.00    +0.000 OA
ATOM     25  H   UNL     1      46.505   5.268  16.079  0.00  0.00    +0.000 HD
BRANCH  23  26
ATOM     26  C   UNL     1      46.133   5.217  13.515  0.00  0.00    +0.000 A 
ATOM     27  C   UNL     1      46.823   6.405  13.310  0.00  0.00    +0.000 A 
ATOM     28  S   UNL     1      46.010   7.503  12.292  0.00  0.00    +0.000 S 
ATOM     29  C   UNL     1      44.684   6.451  12.127  0.00  0.00    +0.000 A 
ATOM     30  N   UNL     1      43.604   6.806  11.381  0.00  0.00    +0.000 NA
ATOM     31  C   UNL     1      42.658   5.928  11.362  0.00  0.00    +0.000 A 
ATOM     32  N   UNL     1      42.695   4.725  12.018  0.00  0.00    +0.000 N 
ATOM     33  C   UNL     1      43.781   4.307  12.757  0.00  0.00    +0.000 A 
ATOM     34  O   UNL     1      43.801   3.205  13.291  0.00  0.00    +0.000 OA
ATOM     35  C   UNL     1      44.865   5.270  12.823  0.00  0.00    +0.000 A 
ATOM     36  H   UNL     1      41.924   4.076  11.953  0.00  0.00    +0.000 HD
ENDBRANCH  23  26
ENDBRANCH  21  22
ENDBRANCH   4  21
TORSDOF 9
ENDMDL
MODEL 7
REMARK VINA RESULT:    -6.918      3.501      9.126
REMARK INTER + INTRA:         -11.407
REMARK INTER:                  -9.047
REMARK INTRA:                  -2.360
REMARK UNBOUND:                -1.051
REMARK  Name = 
REMARK  10 active torsions:
REMARK  status: ('A' for Active; 'I' for Inactive)
REMARK    1  A    between atoms: C_1  and  N_2
REMARK    2  A    between atoms: N_2  and  C_3
REMARK    3  A    between atoms: N_2  and  C_10
REMARK    4  A    between atoms: C_3  and  C_4
REMARK    5  A    between atoms: C_10  and  C_11
REMARK    6  A    between atoms: C_10  and  C_13
REMARK    7  A    between atoms: C_11  and  N_12
REMARK    8  A    between atoms: C_16  and  C_17
REMARK    9  A    between atoms: C_17  and  N_18
REMARK   10  A    between atoms: C_19  and  C_21
REMARK                            x       y       z     vdW  Elec       q    Type
REMARK                         _______ _______ _______ _____ _____    ______ ____
ROOT
ATOM      1  C   UNL     1      50.264   7.007  18.390  0.00  0.00    +0.000 A 
ATOM      2  C   UNL     1      49.206   7.931  18.352  0.00  0.00    +0.000 A 
ATOM      3  C   UNL     1      48.656   8.341  17.135  0.00  0.00    +0.000 A 
ATOM      4  C   UNL     1      49.121   7.800  15.929  0.00  0.00    +0.000 A 
ATOM      5  C   UNL     1      50.169   6.873  15.961  0.00  0.00    +0.000 A 
ATOM      6  C   UNL     1      50.744   6.496  17.175  0.00  0.00    +0.000 A 
ENDROOT
BRANCH   1   7
ATOM      7  C   UNL     1      50.910   6.635  19.733  0.00  0.00    +0.000 C 
BRANCH   7   9
ATOM      8  C   UNL     1      51.258   4.824  21.376  0.00  0.00    +0.000 C 
ATOM      9  N   UNL     1      50.605   5.230  20.137  0.00  0.00    +0.000 NA
BRANCH   9  10
ATOM     10  C   UNL     1      49.166   4.890  20.105  0.00  0.00    +0.000 C 
BRANCH  10  11
ATOM     11  C   UNL     1      48.641   3.909  19.029  0.00  0.00    +0.000 C 
ATOM     12  C   UNL     1      49.749   3.373  18.108  0.00  0.00    +0.000 C 
ATOM     13  C   UNL     1      49.206   2.459  17.019  0.00  0.00    +0.000 C 
ATOM     14  C   UNL     1      48.124   3.145  16.200  0.00  0.00    +0.000 C 
ATOM     15  C   UNL     1      47.010   3.675  17.095  0.00  0.00    +0.000 C 
ATOM     16  C   UNL     1      47.554   4.603  18.180  0.00  0.00    +0.000 C 
ENDBRANCH  10  11
ENDBRANCH   9  10
ENDBRANCH   7   9
BRANCH   7  17
ATOM     17  C   UNL     1      52.454   6.937  19.638  0.00  0.00    +0.000 C 
BRANCH  17  18
ATOM     18  N   UNL     1      52.967   7.914  20.614  0.00  0.00    +0.000 NA
ATOM     19  H   UNL     1      53.981   7.969  20.510  0.00  0.00    +0.000 HD
ATOM     20  H   UNL     1      52.807   7.556  21.554  0.00  0.00    +0.000 HD
ENDBRANCH  17  18
ENDBRANCH   7  17
ENDBRANCH   1   7
BRANCH   4  21
ATOM     21  C   UNL     1      48.557   8.253  14.609  0.00  0.00    +0.000 C 
BRANCH  21  22
ATOM     22  N   UNL     1      47.479   7.389  14.191  0.00  0.00    +0.000 N 
ATOM     23  C   UNL     1      47.693   6.382  13.288  0.00  0.00    +0.000 C 
ATOM     24  O   UNL     1      48.810   6.147  12.834  0.00  0.00    +0.000 OA
ATOM     25  H   UNL     1      46.534   7.701  14.388  0.00  0.00    +0.000 HD
BRANCH  23  26
ATOM     26  C   UNL     1      46.533   5.559  12.930  0.00  0.00    +0.000 A 
ATOM     27  C   UNL     1      46.578   4.189  13.156  0.00  0.00    +0.000 A 
ATOM     28  S   UNL     1      45.140   3.377  12.736  0.00  0.00    +0.000 S 
ATOM     29  C   UNL     1      44.422   4.819  12.193  0.00  0.00    +0.000 A 
ATOM     30  N   UNL     1      43.163   4.817  11.676  0.00  0.00    +0.000 NA
ATOM     31  C   UNL     1      42.750   5.973  11.277  0.00  0.00    +0.000 A 
ATOM     32  N   UNL     1      43.478   7.132  11.351  0.00  0.00    +0.000 N 
ATOM     33  C   UNL     1      44.742   7.190  11.898  0.00  0.00    +0.000 A 
ATOM     34  O   UNL     1      45.346   8.252  11.993  0.00  0.00    +0.000 OA
ATOM     35  C   UNL     1      45.259   5.910  12.345  0.00  0.00    +0.000 A 
ATOM     36  H   UNL     1      43.091   8.008  11.030  0.00  0.00    +0.000 HD
ENDBRANCH  23  26
ENDBRANCH  21  22
ENDBRANCH   4  21
TORSDOF 9
ENDMDL
MODEL 8
REMARK VINA RESULT:    -6.832      4.566      6.698
REMARK INTER + INTRA:         -11.279
REMARK INTER:                 -10.067
REMARK INTRA:                  -1.212
REMARK UNBOUND:                -1.051
REMARK  Name = 
REMARK  10 active torsions:
REMARK  status: ('A' for Active; 'I' for Inactive)
REMARK    1  A    between atoms: C_1  and  N_2
REMARK    2  A    between atoms: N_2  and  C_3
REMARK    3  A    between atoms: N_2  and  C_10
REMARK    4  A    between atoms: C_3  and  C_4
REMARK    5  A    between atoms: C_10  and  C_11
REMARK    6  A    between atoms: C_10  and  C_13
REMARK    7  A    between atoms: C_11  and  N_12
REMARK    8  A    between atoms: C_16  and  C_17
REMARK    9  A    between atoms: C_17  and  N_18
REMARK   10  A    between atoms: C_19  and  C_21
REMARK                            x       y       z     vdW  Elec       q    Type
REMARK                         _______ _______ _______ _____ _____    ______ ____
ROOT
ATOM      1  C   UNL     1      45.834   6.520  12.761  0.00  0.00    +0.000 A 
ATOM      2  C   UNL     1      47.175   6.561  12.346  0.00  0.00    +0.000 A 
ATOM      3  C   UNL     1      47.790   7.775  12.026  0.00  0.00    +0.000 A 
ATOM      4  C   UNL     1      47.090   8.980  12.159  0.00  0.00    +0.000 A 
ATOM      5  C   UNL     1      45.756   8.947  12.580  0.00  0.00    +0.000 A 
ATOM      6  C   UNL     1      45.131   7.731  12.859  0.00  0.00    +0.000 A 
ENDROOT
BRANCH   1   7
ATOM      7  C   UNL     1      45.152   5.169  13.025  0.00  0.00    +0.000 C 
BRANCH   7   9
ATOM      8  C   UNL     1      42.815   5.100  12.230  0.00  0.00    +0.000 C 
ATOM      9  N   UNL     1      44.208   4.789  11.932  0.00  0.00    +0.000 NA
BRANCH   9  10
ATOM     10  C   UNL     1      44.627   5.239  10.587  0.00  0.00    +0.000 C 
BRANCH  10  11
ATOM     11  C   UNL     1      44.764   4.202   9.446  0.00  0.00    +0.000 C 
ATOM     12  C   UNL     1      44.959   2.765   9.958  0.00  0.00    +0.000 C 
ATOM     13  C   UNL     1      45.154   1.768   8.825  0.00  0.00    +0.000 C 
ATOM     14  C   UNL     1      46.307   2.168   7.918  0.00  0.00    +0.000 C 
ATOM     15  C   UNL     1      46.127   3.588   7.393  0.00  0.00    +0.000 C 
ATOM     16  C   UNL     1      45.944   4.589   8.531  0.00  0.00    +0.000 C 
ENDBRANCH  10  11
ENDBRANCH   9  10
ENDBRANCH   7   9
BRANCH   7  17
ATOM     17  C   UNL     1      46.274   4.094  13.287  0.00  0.00    +0.000 C 
BRANCH  17  18
ATOM     18  N   UNL     1      46.641   3.894  14.700  0.00  0.00    +0.000 NA
ATOM     19  H   UNL     1      47.139   3.007  14.779  0.00  0.00    +0.000 HD
ATOM     20  H   UNL     1      45.790   3.781  15.248  0.00  0.00    +0.000 HD
ENDBRANCH  17  18
ENDBRANCH   7  17
ENDBRANCH   1   7
BRANCH   4  21
ATOM     21  C   UNL     1      47.730  10.292  11.791  0.00  0.00    +0.000 C 
BRANCH  21  22
ATOM     22  N   UNL     1      48.960  10.074  11.068  0.00  0.00    +0.000 N 
ATOM     23  C   UNL     1      50.035  10.905  11.241  0.00  0.00    +0.000 C 
ATOM     24  O   UNL     1      50.012  11.835  12.043  0.00  0.00    +0.000 OA
ATOM     25  H   UNL     1      48.922   9.457  10.264  0.00  0.00    +0.000 HD
BRANCH  23  26
ATOM     26  C   UNL     1      51.239  10.598  10.462  0.00  0.00    +0.000 A 
ATOM     27  C   UNL     1      51.704  11.526   9.538  0.00  0.00    +0.000 A 
ATOM     28  S   UNL     1      53.137  11.048   8.749  0.00  0.00    +0.000 S 
ATOM     29  C   UNL     1      53.163   9.564   9.579  0.00  0.00    +0.000 A 
ATOM     30  N   UNL     1      54.146   8.654   9.343  0.00  0.00    +0.000 NA
ATOM     31  C   UNL     1      54.030   7.560  10.019  0.00  0.00    +0.000 A 
ATOM     32  N   UNL     1      53.025   7.295  10.912  0.00  0.00    +0.000 N 
ATOM     33  C   UNL     1      52.028   8.199  11.209  0.00  0.00    +0.000 A 
ATOM     34  O   UNL     1      51.171   7.949  12.048  0.00  0.00    +0.000 OA
ATOM     35  C   UNL     1      52.104   9.440  10.459  0.00  0.00    +0.000 A 
ATOM     36  H   UNL     1      52.999   6.421  11.418  0.00  0.00    +0.000 HD
ENDBRANCH  23  26
ENDBRANCH  21  22
ENDBRANCH   4  21
TORSDOF 9
ENDMDL
MODEL 9
REMARK VINA RESULT:    -6.802      3.714      9.556
REMARK INTER + INTRA:         -11.233
REMARK INTER:                  -9.050
REMARK INTRA:                  -2.183
REMARK UNBOUND:                -1.051
REMARK  Name = 
REMARK  10 active torsions:
REMARK  status: ('A' for Active; 'I' for Inactive)
REMARK    1  A    between atoms: C_1  and  N_2
REMARK    2  A    between atoms: N_2  and  C_3
REMARK    3  A    between atoms: N_2  and  C_10
REMARK    4  A    between atoms: C_3  and  C_4
REMARK    5  A    between atoms: C_10  and  C_11
REMARK    6  A    between atoms: C_10  and  C_13
REMARK    7  A    between atoms: C_11  and  N_12
REMARK    8  A    between atoms: C_16  and  C_17
REMARK    9  A    between atoms: C_17  and  N_18
REMARK   10  A    between atoms: C_19  and  C_21
REMARK                            x       y       z     vdW  Elec       q    Type
REMARK                         _______ _______ _______ _____ _____    ______ ____
ROOT
ATOM      1  C   UNL     1      50.556   4.928  19.061  0.00  0.00    +0.000 A 
ATOM      2  C   UNL     1      50.776   3.905  18.124  0.00  0.00    +0.000 A 
ATOM      3  C   UNL     1      49.722   3.387  17.366  0.00  0.00    +0.000 A 
ATOM      4  C   UNL     1      48.431   3.914  17.496  0.00  0.00    +0.000 A 
ATOM      5  C   UNL     1      48.206   4.938  18.423  0.00  0.00    +0.000 A 
ATOM      6  C   UNL     1      49.252   5.425  19.208  0.00  0.00    +0.000 A 
ENDROOT
BRANCH   1   7
ATOM      7  C   UNL     1      51.711   5.423  19.944  0.00  0.00    +0.000 C 
BRANCH   7   9
ATOM      8  C   UNL     1      52.966   7.431  20.648  0.00  0.00    +0.000 C 
ATOM      9  N   UNL     1      52.077   6.842  19.653  0.00  0.00    +0.000 NA
BRANCH   9  10
ATOM     10  C   UNL     1      52.527   7.078  18.264  0.00  0.00    +0.000 C 
BRANCH  10  11
ATOM     11  C   UNL     1      51.594   7.825  17.280  0.00  0.00    +0.000 C 
ATOM     12  C   UNL     1      50.367   8.447  17.966  0.00  0.00    +0.000 C 
ATOM     13  C   UNL     1      49.431   9.125  16.975  0.00  0.00    +0.000 C 
ATOM     14  C   UNL     1      48.994   8.171  15.875  0.00  0.00    +0.000 C 
ATOM     15  C   UNL     1      50.198   7.550  15.175  0.00  0.00    +0.000 C 
ATOM     16  C   UNL     1      51.131   6.859  16.169  0.00  0.00    +0.000 C 
ENDBRANCH  10  11
ENDBRANCH   9  10
ENDBRANCH   7   9
BRANCH   7  17
ATOM     17  C   UNL     1      51.323   5.173  21.451  0.00  0.00    +0.000 C 
BRANCH  17  18
ATOM     18  N   UNL     1      52.266   4.337  22.215  0.00  0.00    +0.000 NA
ATOM     19  H   UNL     1      53.158   4.325  21.719  0.00  0.00    +0.000 HD
ATOM     20  H   UNL     1      51.934   3.374  22.205  0.00  0.00    +0.000 HD
ENDBRANCH  17  18
ENDBRANCH   7  17
ENDBRANCH   1   7
BRANCH   4  21
ATOM     21  C   UNL     1      47.282   3.347  16.707  0.00  0.00    +0.000 C 
BRANCH  21  22
ATOM     22  N   UNL     1      46.760   4.330  15.788  0.00  0.00    +0.000 N 
ATOM     23  C   UNL     1      46.839   4.139  14.434  0.00  0.00    +0.000 C 
ATOM     24  O   UNL     1      47.313   3.114  13.952  0.00  0.00    +0.000 OA
ATOM     25  H   UNL     1      46.567   5.254  16.159  0.00  0.00    +0.000 HD
BRANCH  23  26
ATOM     26  C   UNL     1      46.278   5.195  13.585  0.00  0.00    +0.000 A 
ATOM     27  C   UNL     1      47.000   6.367  13.394  0.00  0.00    +0.000 A 
ATOM     28  S   UNL     1      46.243   7.475  12.344  0.00  0.00    +0.000 S 
ATOM     29  C   UNL     1      44.900   6.451  12.145  0.00  0.00    +0.000 A 
ATOM     30  N   UNL     1      43.851   6.825  11.364  0.00  0.00    +0.000 NA
ATOM     31  C   UNL     1      42.888   5.967  11.321  0.00  0.00    +0.000 A 
ATOM     32  N   UNL     1      42.878   4.768  11.985  0.00  0.00    +0.000 N 
ATOM     33  C   UNL     1      43.931   4.332  12.760  0.00  0.00    +0.000 A 
ATOM     34  O   UNL     1      43.910   3.232  13.301  0.00  0.00    +0.000 OA
ATOM     35  C   UNL     1      45.034   5.271  12.854  0.00  0.00    +0.000 A 
ATOM     36  H   UNL     1      42.095   4.136  11.901  0.00  0.00    +0.000 HD
ENDBRANCH  23  26
ENDBRANCH  21  22
ENDBRANCH   4  21
TORSDOF 9
ENDMDL
