MODEL 1
REMARK VINA RESULT:    -8.461      0.000      0.000
REMARK INTER + INTRA:         -13.143
REMARK INTER:                 -11.923
REMARK INTRA:                  -1.220
REMARK UNBOUND:                -1.220
REMARK  Name = 
REMARK  7 active torsions:
REMARK  status: ('A' for Active; 'I' for Inactive)
REMARK    1  A    between atoms: C_2  and  C_4
REMARK    2  A    between atoms: C_8  and  C_9
REMARK    3  A    between atoms: C_9  and  N_10
REMARK    4  A    between atoms: N_10  and  C_11
REMARK    5  A    between atoms: C_14  and  C_15
REMARK    6  A    between atoms: C_15  and  N_16
REMARK    7  A    between atoms: C_17  and  C_19
REMARK                            x       y       z     vdW  Elec       q    Type
REMARK                         _______ _______ _______ _____ _____    ______ ____
ROOT
ATOM      1  C   UNL     1      45.105   3.941  12.462  0.00  0.00    +0.000 A 
ATOM      2  C   UNL     1      44.548   5.224  12.422  0.00  0.00    +0.000 A 
ATOM      3  C   UNL     1      45.296   6.348  12.823  0.00  0.00    +0.000 A 
ATOM      4  C   UNL     1      46.613   6.205  13.276  0.00  0.00    +0.000 A 
ATOM      5  C   UNL     1      47.133   4.914  13.405  0.00  0.00    +0.000 A 
ATOM      6  C   UNL     1      46.380   3.802  13.013  0.00  0.00    +0.000 A 
ENDROOT
BRANCH   1   7
ATOM      7  N   UNL     1      44.455   2.772  12.046  0.00  0.00    +0.000 N 
ATOM      8  H   UNL     1      43.845   2.420  12.782  0.00  0.00    +0.000 HD
BRANCH   7   9
ATOM      9  C   UNL     1      43.802   2.754  10.745  0.00  0.00    +0.000 C 
BRANCH   9  14
ATOM     10  C   UNL     1      46.368   2.207   7.961  0.00  0.00    +0.000 A 
ATOM     11  C   UNL     1      46.504   3.497   7.442  0.00  0.00    +0.000 A 
ATOM     12  C   UNL     1      45.820   4.559   8.036  0.00  0.00    +0.000 A 
ATOM     13  C   UNL     1      44.981   4.326   9.132  0.00  0.00    +0.000 A 
ATOM     14  C   UNL     1      44.812   3.029   9.647  0.00  0.00    +0.000 A 
ATOM     15  C   UNL     1      45.526   1.977   9.058  0.00  0.00    +0.000 A 
BRANCH  10  17
ATOM     16  N   UNL     1      46.639  -0.206   7.716  0.00  0.00    +0.000 N 
ATOM     17  C   UNL     1      47.045   1.038   7.335  0.00  0.00    +0.000 C 
ATOM     18  O   UNL     1      47.915   1.186   6.485  0.00  0.00    +0.000 OA
ATOM     19  H   UNL     1      47.047  -0.985   7.215  0.00  0.00    +0.000 HD
ATOM     20  H   UNL     1      45.773  -0.367   8.212  0.00  0.00    +0.000 HD
ENDBRANCH  10  17
ENDBRANCH   9  14
ENDBRANCH   7   9
ENDBRANCH   1   7
BRANCH   4  21
ATOM     21  C   UNL     1      47.470   7.395  13.628  0.00  0.00    +0.000 C 
BRANCH  21  22
ATOM     22  N   UNL     1      47.783   7.443  15.032  0.00  0.00    +0.000 N 
ATOM     23  C   UNL     1      49.049   7.170  15.482  0.00  0.00    +0.000 C 
ATOM     24  O   UNL     1      49.977   6.918  14.715  0.00  0.00    +0.000 OA
ATOM     25  H   UNL     1      47.004   7.369  15.680  0.00  0.00    +0.000 HD
BRANCH  23  26
ATOM     26  C   UNL     1      49.263   7.256  16.932  0.00  0.00    +0.000 A 
ATOM     27  C   UNL     1      50.052   8.270  17.457  0.00  0.00    +0.000 A 
ATOM     28  S   UNL     1      50.169   8.233  19.158  0.00  0.00    +0.000 S 
ATOM     29  C   UNL     1      49.208   6.833  19.250  0.00  0.00    +0.000 A 
ATOM     30  N   UNL     1      48.944   6.240  20.445  0.00  0.00    +0.000 NA
ATOM     31  C   UNL     1      48.224   5.172  20.362  0.00  0.00    +0.000 A 
ATOM     32  N   UNL     1      47.733   4.648  19.193  0.00  0.00    +0.000 N 
ATOM     33  C   UNL     1      47.946   5.229  17.968  0.00  0.00    +0.000 A 
ATOM     34  O   UNL     1      47.449   4.766  16.948  0.00  0.00    +0.000 OA
ATOM     35  C   UNL     1      48.775   6.420  18.002  0.00  0.00    +0.000 A 
ATOM     36  H   UNL     1      47.161   3.816  19.198  0.00  0.00    +0.000 HD
ENDBRANCH  23  26
ENDBRANCH  21  22
ENDBRANCH   4  21
TORSDOF 7
ENDMDL
MODEL 2
REMARK VINA RESULT:    -8.183      3.478      5.158
REMARK INTER + INTRA:         -12.752
REMARK INTER:                 -11.470
REMARK INTRA:                  -1.282
REMARK UNBOUND:                -1.220
REMARK  Name = 
REMARK  7 active torsions:
REMARK  status: ('A' for Active; 'I' for Inactive)
REMARK    1  A    between atoms: C_2  and  C_4
REMARK    2  A    between atoms: C_8  and  C_9
REMARK    3  A    between atoms: C_9  and  N_10
REMARK    4  A    between atoms: N_10  and  C_11
REMARK    5  A    between atoms: C_14  and  C_15
REMARK    6  A    between atoms: C_15  and  N_16
REMARK    7  A    between atoms: C_17  and  C_19
REMARK                            x       y       z     vdW  Elec       q    Type
REMARK                         _______ _______ _______ _____ _____    ______ ____
ROOT
ATOM      1  C   UNL     1      45.033   3.604  12.625  0.00  0.00    +0.000 A 
ATOM      2  C   UNL     1      44.664   4.946  12.768  0.00  0.00    +0.000 A 
ATOM      3  C   UNL     1      45.570   5.893  13.282  0.00  0.00    +0.000 A 
ATOM      4  C   UNL     1      46.861   5.511  13.666  0.00  0.00    +0.000 A 
ATOM      5  C   UNL     1      47.194   4.154  13.613  0.00  0.00    +0.000 A 
ATOM      6  C   UNL     1      46.285   3.219  13.110  0.00  0.00    +0.000 A 
ENDROOT
BRANCH   1   7
ATOM      7  N   UNL     1      44.216   2.601  12.088  0.00  0.00    +0.000 N 
ATOM      8  H   UNL     1      43.554   2.266  12.786  0.00  0.00    +0.000 HD
BRANCH   7   9
ATOM      9  C   UNL     1      43.580   2.827  10.798  0.00  0.00    +0.000 C 
BRANCH   9  14
ATOM     10  C   UNL     1      46.253   2.228   8.129  0.00  0.00    +0.000 A 
ATOM     11  C   UNL     1      46.400   3.505   7.581  0.00  0.00    +0.000 A 
ATOM     12  C   UNL     1      45.686   4.576   8.121  0.00  0.00    +0.000 A 
ATOM     13  C   UNL     1      44.808   4.365   9.190  0.00  0.00    +0.000 A 
ATOM     14  C   UNL     1      44.629   3.081   9.733  0.00  0.00    +0.000 A 
ATOM     15  C   UNL     1      45.372   2.020   9.199  0.00  0.00    +0.000 A 
BRANCH  10  17
ATOM     16  N   UNL     1      48.019   1.285   6.733  0.00  0.00    +0.000 N 
ATOM     17  C   UNL     1      46.962   1.049   7.561  0.00  0.00    +0.000 C 
ATOM     18  O   UNL     1      46.628  -0.095   7.848  0.00  0.00    +0.000 OA
ATOM     19  H   UNL     1      48.543   0.474   6.430  0.00  0.00    +0.000 HD
ATOM     20  H   UNL     1      48.473   2.187   6.675  0.00  0.00    +0.000 HD
ENDBRANCH  10  17
ENDBRANCH   9  14
ENDBRANCH   7   9
ENDBRANCH   1   7
BRANCH   4  21
ATOM     21  C   UNL     1      47.884   6.515  14.136  0.00  0.00    +0.000 C 
BRANCH  21  22
ATOM     22  N   UNL     1      47.668   7.819  13.564  0.00  0.00    +0.000 N 
ATOM     23  C   UNL     1      48.255   8.175  12.378  0.00  0.00    +0.000 C 
ATOM     24  O   UNL     1      48.950   7.394  11.730  0.00  0.00    +0.000 OA
ATOM     25  H   UNL     1      47.346   8.548  14.193  0.00  0.00    +0.000 HD
BRANCH  23  26
ATOM     26  C   UNL     1      47.961   9.524  11.880  0.00  0.00    +0.000 A 
ATOM     27  C   UNL     1      48.992  10.329  11.412  0.00  0.00    +0.000 A 
ATOM     28  S   UNL     1      48.467  11.851  10.847  0.00  0.00    +0.000 S 
ATOM     29  C   UNL     1      46.851  11.506  11.252  0.00  0.00    +0.000 A 
ATOM     30  N   UNL     1      45.868  12.426  11.059  0.00  0.00    +0.000 NA
ATOM     31  C   UNL     1      44.695  12.038  11.435  0.00  0.00    +0.000 A 
ATOM     32  N   UNL     1      44.413  10.810  11.976  0.00  0.00    +0.000 N 
ATOM     33  C   UNL     1      45.366   9.838  12.159  0.00  0.00    +0.000 A 
ATOM     34  O   UNL     1      45.073   8.732  12.596  0.00  0.00    +0.000 OA
ATOM     35  C   UNL     1      46.709  10.234  11.778  0.00  0.00    +0.000 A 
ATOM     36  H   UNL     1      43.469  10.562  12.235  0.00  0.00    +0.000 HD
ENDBRANCH  23  26
ENDBRANCH  21  22
ENDBRANCH   4  21
TORSDOF 7
ENDMDL
MODEL 3
REMARK VINA RESULT:    -7.883      1.653      2.110
REMARK INTER + INTRA:         -12.329
REMARK INTER:                 -11.647
REMARK INTRA:                  -0.681
REMARK UNBOUND:                -1.220
REMARK  Name = 
REMARK  7 active torsions:
REMARK  status: ('A' for Active; 'I' for Inactive)
REMARK    1  A    between atoms: C_2  and  C_4
REMARK    2  A    between atoms: C_8  and  C_9
REMARK    3  A    between atoms: C_9  and  N_10
REMARK    4  A    between atoms: N_10  and  C_11
REMARK    5  A    between atoms: C_14  and  C_15
REMARK    6  A    between atoms: C_15  and  N_16
REMARK    7  A    between atoms: C_17  and  C_19
REMARK                            x       y       z     vdW  Elec       q    Type
REMARK                         _______ _______ _______ _____ _____    ______ ____
ROOT
ATOM      1  C   UNL     1      44.868   4.209  12.167  0.00  0.00    +0.000 A 
ATOM      2  C   UNL     1      45.815   3.485  12.901  0.00  0.00    +0.000 A 
ATOM      3  C   UNL     1      46.873   4.140  13.559  0.00  0.00    +0.000 A 
ATOM      4  C   UNL     1      47.004   5.533  13.489  0.00  0.00    +0.000 A 
ATOM      5  C   UNL     1      46.114   6.243  12.678  0.00  0.00    +0.000 A 
ATOM      6  C   UNL     1      45.071   5.582  12.020  0.00  0.00    +0.000 A 
ENDROOT
BRANCH   1   7
ATOM      7  N   UNL     1      43.762   3.650  11.515  0.00  0.00    +0.000 N 
ATOM      8  H   UNL     1      43.176   4.380  11.113  0.00  0.00    +0.000 HD
BRANCH   7   9
ATOM      9  C   UNL     1      43.975   2.550  10.584  0.00  0.00    +0.000 C 
BRANCH   9  14
ATOM     10  C   UNL     1      46.523   2.379   7.737  0.00  0.00    +0.000 A 
ATOM     11  C   UNL     1      46.527   3.699   7.278  0.00  0.00    +0.000 A 
ATOM     12  C   UNL     1      45.758   4.662   7.934  0.00  0.00    +0.000 A 
ATOM     13  C   UNL     1      44.968   4.300   9.031  0.00  0.00    +0.000 A 
ATOM     14  C   UNL     1      44.932   2.971   9.485  0.00  0.00    +0.000 A 
ATOM     15  C   UNL     1      45.729   2.019   8.835  0.00  0.00    +0.000 A 
BRANCH  10  17
ATOM     16  N   UNL     1      48.414   1.680   6.361  0.00  0.00    +0.000 N 
ATOM     17  C   UNL     1      47.294   1.310   7.044  0.00  0.00    +0.000 C 
ATOM     18  O   UNL     1      46.953   0.135   7.109  0.00  0.00    +0.000 OA
ATOM     19  H   UNL     1      48.972   0.930   5.974  0.00  0.00    +0.000 HD
ATOM     20  H   UNL     1      48.858   2.579   6.492  0.00  0.00    +0.000 HD
ENDBRANCH  10  17
ENDBRANCH   9  14
ENDBRANCH   7   9
ENDBRANCH   1   7
BRANCH   4  21
ATOM     21  C   UNL     1      48.072   6.273  14.255  0.00  0.00    +0.000 C 
BRANCH  21  22
ATOM     22  N   UNL     1      47.951   6.084  15.677  0.00  0.00    +0.000 N 
ATOM     23  C   UNL     1      49.062   6.020  16.477  0.00  0.00    +0.000 C 
ATOM     24  O   UNL     1      50.200   6.163  16.032  0.00  0.00    +0.000 OA
ATOM     25  H   UNL     1      47.077   5.693  16.016  0.00  0.00    +0.000 HD
BRANCH  23  26
ATOM     26  C   UNL     1      48.826   5.833  17.914  0.00  0.00    +0.000 A 
ATOM     27  C   UNL     1      49.086   4.604  18.505  0.00  0.00    +0.000 A 
ATOM     28  S   UNL     1      48.781   4.575  20.183  0.00  0.00    +0.000 S 
ATOM     29  C   UNL     1      48.247   6.190  20.171  0.00  0.00    +0.000 A 
ATOM     30  N   UNL     1      47.795   6.787  21.306  0.00  0.00    +0.000 NA
ATOM     31  C   UNL     1      47.397   8.005  21.144  0.00  0.00    +0.000 A 
ATOM     32  N   UNL     1      47.422   8.684  19.952  0.00  0.00    +0.000 N 
ATOM     33  C   UNL     1      47.899   8.133  18.789  0.00  0.00    +0.000 A 
ATOM     34  O   UNL     1      47.956   8.783  17.752  0.00  0.00    +0.000 OA
ATOM     35  C   UNL     1      48.333   6.754  18.910  0.00  0.00    +0.000 A 
ATOM     36  H   UNL     1      47.111   9.643  19.896  0.00  0.00    +0.000 HD
ENDBRANCH  23  26
ENDBRANCH  21  22
ENDBRANCH   4  21
TORSDOF 7
ENDMDL
MODEL 4
REMARK VINA RESULT:    -7.751      1.984      2.600
REMARK INTER + INTRA:         -12.143
REMARK INTER:                 -10.773
REMARK INTRA:                  -1.370
REMARK UNBOUND:                -1.220
REMARK  Name = 
REMARK  7 active torsions:
REMARK  status: ('A' for Active; 'I' for Inactive)
REMARK    1  A    between atoms: C_2  and  C_4
REMARK    2  A    between atoms: C_8  and  C_9
REMARK    3  A    between atoms: C_9  and  N_10
REMARK    4  A    between atoms: N_10  and  C_11
REMARK    5  A    between atoms: C_14  and  C_15
REMARK    6  A    between atoms: C_15  and  N_16
REMARK    7  A    between atoms: C_17  and  C_19
REMARK                            x       y       z     vdW  Elec       q    Type
REMARK                         _______ _______ _______ _____ _____    ______ ____
ROOT
ATOM      1  C   UNL     1      45.590   6.957  11.279  0.00  0.00    +0.000 A 
ATOM      2  C   UNL     1      46.881   6.487  11.543  0.00  0.00    +0.000 A 
ATOM      3  C   UNL     1      47.670   7.071  12.552  0.00  0.00    +0.000 A 
ATOM      4  C   UNL     1      47.180   8.139  13.313  0.00  0.00    +0.000 A 
ATOM      5  C   UNL     1      45.928   8.668  12.983  0.00  0.00    +0.000 A 
ATOM      6  C   UNL     1      45.156   8.088  11.973  0.00  0.00    +0.000 A 
ENDROOT
BRANCH   1   7
ATOM      7  N   UNL     1      44.719   6.415  10.325  0.00  0.00    +0.000 N 
ATOM      8  H   UNL     1      45.178   6.348   9.418  0.00  0.00    +0.000 HD
BRANCH   7   9
ATOM      9  C   UNL     1      43.982   5.203  10.653  0.00  0.00    +0.000 C 
BRANCH   9  14
ATOM     10  C   UNL     1      45.911   3.191   8.033  0.00  0.00    +0.000 A 
ATOM     11  C   UNL     1      45.610   1.878   8.404  0.00  0.00    +0.000 A 
ATOM     12  C   UNL     1      44.726   1.641   9.458  0.00  0.00    +0.000 A 
ATOM     13  C   UNL     1      44.165   2.717  10.156  0.00  0.00    +0.000 A 
ATOM     14  C   UNL     1      44.481   4.043   9.813  0.00  0.00    +0.000 A 
ATOM     15  C   UNL     1      45.348   4.266   8.735  0.00  0.00    +0.000 A 
BRANCH  10  17
ATOM     16  N   UNL     1      48.006   2.728   6.871  0.00  0.00    +0.000 N 
ATOM     17  C   UNL     1      46.880   3.491   6.943  0.00  0.00    +0.000 C 
ATOM     18  O   UNL     1      46.660   4.373   6.121  0.00  0.00    +0.000 OA
ATOM     19  H   UNL     1      48.607   2.887   6.072  0.00  0.00    +0.000 HD
ATOM     20  H   UNL     1      48.100   1.849   7.362  0.00  0.00    +0.000 HD
ENDBRANCH  10  17
ENDBRANCH   9  14
ENDBRANCH   7   9
ENDBRANCH   1   7
BRANCH   4  21
ATOM     21  C   UNL     1      47.962   8.728  14.460  0.00  0.00    +0.000 C 
BRANCH  21  22
ATOM     22  N   UNL     1      48.143   7.787  15.535  0.00  0.00    +0.000 N 
ATOM     23  C   UNL     1      49.339   7.144  15.715  0.00  0.00    +0.000 C 
ATOM     24  O   UNL     1      50.319   7.369  15.005  0.00  0.00    +0.000 OA
ATOM     25  H   UNL     1      47.302   7.386  15.940  0.00  0.00    +0.000 HD
BRANCH  23  26
ATOM     26  C   UNL     1      49.419   6.211  16.846  0.00  0.00    +0.000 A 
ATOM     27  C   UNL     1      50.336   6.433  17.865  0.00  0.00    +0.000 A 
ATOM     28  S   UNL     1      50.272   5.268  19.108  0.00  0.00    +0.000 S 
ATOM     29  C   UNL     1      49.049   4.398  18.307  0.00  0.00    +0.000 A 
ATOM     30  N   UNL     1      48.556   3.242  18.825  0.00  0.00    +0.000 NA
ATOM     31  C   UNL     1      47.652   2.676  18.098  0.00  0.00    +0.000 A 
ATOM     32  N   UNL     1      47.187   3.167  16.904  0.00  0.00    +0.000 N 
ATOM     33  C   UNL     1      47.632   4.345  16.358  0.00  0.00    +0.000 A 
ATOM     34  O   UNL     1      47.159   4.783  15.316  0.00  0.00    +0.000 OA
ATOM     35  C   UNL     1      48.671   5.008  17.123  0.00  0.00    +0.000 A 
ATOM     36  H   UNL     1      46.464   2.683  16.391  0.00  0.00    +0.000 HD
ENDBRANCH  23  26
ENDBRANCH  21  22
ENDBRANCH   4  21
TORSDOF 7
ENDMDL
MODEL 5
REMARK VINA RESULT:    -7.682      3.144      8.700
REMARK INTER + INTRA:         -12.045
REMARK INTER:                 -10.320
REMARK INTRA:                  -1.726
REMARK UNBOUND:                -1.220
REMARK  Name = 
REMARK  7 active torsions:
REMARK  status: ('A' for Active; 'I' for Inactive)
REMARK    1  A    between atoms: C_2  and  C_4
REMARK    2  A    between atoms: C_8  and  C_9
REMARK    3  A    between atoms: C_9  and  N_10
REMARK    4  A    between atoms: N_10  and  C_11
REMARK    5  A    between atoms: C_14  and  C_15
REMARK    6  A    between atoms: C_15  and  N_16
REMARK    7  A    between atoms: C_17  and  C_19
REMARK                            x       y       z     vdW  Elec       q    Type
REMARK                         _______ _______ _______ _____ _____    ______ ____
ROOT
ATOM      1  C   UNL     1      49.741   8.436  15.629  0.00  0.00    +0.000 A 
ATOM      2  C   UNL     1      48.554   9.121  15.349  0.00  0.00    +0.000 A 
ATOM      3  C   UNL     1      47.950   9.030  14.081  0.00  0.00    +0.000 A 
ATOM      4  C   UNL     1      48.528   8.254  13.069  0.00  0.00    +0.000 A 
ATOM      5  C   UNL     1      49.763   7.648  13.321  0.00  0.00    +0.000 A 
ATOM      6  C   UNL     1      50.360   7.752  14.581  0.00  0.00    +0.000 A 
ENDROOT
BRANCH   1   7
ATOM      7  N   UNL     1      50.392   8.434  16.870  0.00  0.00    +0.000 N 
ATOM      8  H   UNL     1      50.776   9.355  17.074  0.00  0.00    +0.000 HD
BRANCH   7   9
ATOM      9  C   UNL     1      49.710   7.862  18.022  0.00  0.00    +0.000 C 
BRANCH   9  14
ATOM     10  C   UNL     1      48.405   4.349  17.255  0.00  0.00    +0.000 A 
ATOM     11  C   UNL     1      49.560   3.576  17.406  0.00  0.00    +0.000 A 
ATOM     12  C   UNL     1      50.747   4.180  17.825  0.00  0.00    +0.000 A 
ATOM     13  C   UNL     1      50.784   5.558  18.068  0.00  0.00    +0.000 A 
ATOM     14  C   UNL     1      49.638   6.352  17.892  0.00  0.00    +0.000 A 
ATOM     15  C   UNL     1      48.446   5.729  17.497  0.00  0.00    +0.000 A 
BRANCH  10  17
ATOM     16  N   UNL     1      46.632   4.207  15.584  0.00  0.00    +0.000 N 
ATOM     17  C   UNL     1      47.128   3.756  16.771  0.00  0.00    +0.000 C 
ATOM     18  O   UNL     1      46.557   2.872  17.399  0.00  0.00    +0.000 OA
ATOM     19  H   UNL     1      45.814   3.730  15.228  0.00  0.00    +0.000 HD
ATOM     20  H   UNL     1      47.189   4.738  14.928  0.00  0.00    +0.000 HD
ENDBRANCH  10  17
ENDBRANCH   9  14
ENDBRANCH   7   9
ENDBRANCH   1   7
BRANCH   4  21
ATOM     21  C   UNL     1      47.861   8.062  11.730  0.00  0.00    +0.000 C 
BRANCH  21  22
ATOM     22  N   UNL     1      47.095   6.845  11.673  0.00  0.00    +0.000 N 
ATOM     23  C   UNL     1      45.727   6.867  11.765  0.00  0.00    +0.000 C 
ATOM     24  O   UNL     1      45.093   7.918  11.854  0.00  0.00    +0.000 OA
ATOM     25  H   UNL     1      47.588   5.981  11.880  0.00  0.00    +0.000 HD
BRANCH  23  26
ATOM     26  C   UNL     1      45.043   5.571  11.688  0.00  0.00    +0.000 A 
ATOM     27  C   UNL     1      44.346   5.088  12.788  0.00  0.00    +0.000 A 
ATOM     28  S   UNL     1      43.591   3.584  12.512  0.00  0.00    +0.000 S 
ATOM     29  C   UNL     1      44.208   3.501  10.929  0.00  0.00    +0.000 A 
ATOM     30  N   UNL     1      43.965   2.423  10.137  0.00  0.00    +0.000 NA
ATOM     31  C   UNL     1      44.517   2.484   8.971  0.00  0.00    +0.000 A 
ATOM     32  N   UNL     1      45.280   3.530   8.520  0.00  0.00    +0.000 N 
ATOM     33  C   UNL     1      45.526   4.653   9.272  0.00  0.00    +0.000 A 
ATOM     34  O   UNL     1      46.169   5.593   8.821  0.00  0.00    +0.000 OA
ATOM     35  C   UNL     1      44.951   4.623  10.603  0.00  0.00    +0.000 A 
ATOM     36  H   UNL     1      45.671   3.523   7.589  0.00  0.00    +0.000 HD
ENDBRANCH  23  26
ENDBRANCH  21  22
ENDBRANCH   4  21
TORSDOF 7
ENDMDL
MODEL 6
REMARK VINA RESULT:    -7.638      2.129      3.039
REMARK INTER + INTRA:         -11.984
REMARK INTER:                 -10.965
REMARK INTRA:                  -1.019
REMARK UNBOUND:                -1.220
REMARK  Name = 
REMARK  7 active torsions:
REMARK  status: ('A' for Active; 'I' for Inactive)
REMARK    1  A    between atoms: C_2  and  C_4
REMARK    2  A    between atoms: C_8  and  C_9
REMARK    3  A    between atoms: C_9  and  N_10
REMARK    4  A    between atoms: N_10  and  C_11
REMARK    5  A    between atoms: C_14  and  C_15
REMARK    6  A    between atoms: C_15  and  N_16
REMARK    7  A    between atoms: C_17  and  C_19
REMARK                            x       y       z     vdW  Elec       q    Type
REMARK                         _______ _______ _______ _____ _____    ______ ____
ROOT
ATOM      1  C   UNL     1      46.106   5.669  11.693  0.00  0.00    +0.000 A 
ATOM      2  C   UNL     1      47.235   6.234  12.297  0.00  0.00    +0.000 A 
ATOM      3  C   UNL     1      47.653   5.819  13.576  0.00  0.00    +0.000 A 
ATOM      4  C   UNL     1      46.944   4.834  14.274  0.00  0.00    +0.000 A 
ATOM      5  C   UNL     1      45.764   4.341  13.710  0.00  0.00    +0.000 A 
ATOM      6  C   UNL     1      45.351   4.766  12.444  0.00  0.00    +0.000 A 
ENDROOT
BRANCH   1   7
ATOM      7  N   UNL     1      45.639   5.987  10.412  0.00  0.00    +0.000 N 
ATOM      8  H   UNL     1      46.403   5.977   9.739  0.00  0.00    +0.000 HD
BRANCH   7   9
ATOM      9  C   UNL     1      44.458   5.305   9.903  0.00  0.00    +0.000 C 
BRANCH   9  14
ATOM     10  C   UNL     1      46.260   2.779   7.668  0.00  0.00    +0.000 A 
ATOM     11  C   UNL     1      45.773   1.564   8.159  0.00  0.00    +0.000 A 
ATOM     12  C   UNL     1      44.808   1.563   9.167  0.00  0.00    +0.000 A 
ATOM     13  C   UNL     1      44.350   2.774   9.700  0.00  0.00    +0.000 A 
ATOM     14  C   UNL     1      44.851   4.001   9.235  0.00  0.00    +0.000 A 
ATOM     15  C   UNL     1      45.800   3.989   8.204  0.00  0.00    +0.000 A 
BRANCH  10  17
ATOM     16  N   UNL     1      47.033   3.483   5.462  0.00  0.00    +0.000 N 
ATOM     17  C   UNL     1      47.320   2.829   6.623  0.00  0.00    +0.000 C 
ATOM     18  O   UNL     1      48.422   2.327   6.809  0.00  0.00    +0.000 OA
ATOM     19  H   UNL     1      47.794   3.583   4.803  0.00  0.00    +0.000 HD
ATOM     20  H   UNL     1      46.246   4.112   5.372  0.00  0.00    +0.000 HD
ENDBRANCH  10  17
ENDBRANCH   9  14
ENDBRANCH   7   9
ENDBRANCH   1   7
BRANCH   4  21
ATOM     21  C   UNL     1      47.416   4.304  15.605  0.00  0.00    +0.000 C 
BRANCH  21  22
ATOM     22  N   UNL     1      47.421   5.322  16.624  0.00  0.00    +0.000 N 
ATOM     23  C   UNL     1      48.589   5.923  17.014  0.00  0.00    +0.000 C 
ATOM     24  O   UNL     1      49.670   5.659  16.489  0.00  0.00    +0.000 OA
ATOM     25  H   UNL     1      46.620   5.352  17.248  0.00  0.00    +0.000 HD
BRANCH  23  26
ATOM     26  C   UNL     1      48.482   6.954  18.054  0.00  0.00    +0.000 A 
ATOM     27  C   UNL     1      48.570   6.598  19.394  0.00  0.00    +0.000 A 
ATOM     28  S   UNL     1      48.451   7.924  20.461  0.00  0.00    +0.000 S 
ATOM     29  C   UNL     1      48.231   9.013  19.173  0.00  0.00    +0.000 A 
ATOM     30  N   UNL     1      48.026  10.338  19.402  0.00  0.00    +0.000 NA
ATOM     31  C   UNL     1      47.848  11.041  18.334  0.00  0.00    +0.000 A 
ATOM     32  N   UNL     1      47.869  10.543  17.057  0.00  0.00    +0.000 N 
ATOM     33  C   UNL     1      48.103   9.220  16.775  0.00  0.00    +0.000 A 
ATOM     34  O   UNL     1      48.168   8.816  15.621  0.00  0.00    +0.000 OA
ATOM     35  C   UNL     1      48.282   8.379  17.944  0.00  0.00    +0.000 A 
ATOM     36  H   UNL     1      47.738  11.151  16.261  0.00  0.00    +0.000 HD
ENDBRANCH  23  26
ENDBRANCH  21  22
ENDBRANCH   4  21
TORSDOF 7
ENDMDL
MODEL 7
REMARK VINA RESULT:    -7.471      2.131      2.587
REMARK INTER + INTRA:         -11.749
REMARK INTER:                 -10.745
REMARK INTRA:                  -1.004
REMARK UNBOUND:                -1.220
REMARK  Name = 
REMARK  7 active torsions:
REMARK  status: ('A' for Active; 'I' for Inactive)
REMARK    1  A    between atoms: C_2  and  C_4
REMARK    2  A    between atoms: C_8  and  C_9
REMARK    3  A    between atoms: C_9  and  N_10
REMARK    4  A    between atoms: N_10  and  C_11
REMARK    5  A    between atoms: C_14  and  C_15
REMARK    6  A    between atoms: C_15  and  N_16
REMARK    7  A    between atoms: C_17  and  C_19
REMARK                            x       y       z     vdW  Elec       q    Type
REMARK                         _______ _______ _______ _____ _____    ______ ____
ROOT
ATOM      1  C   UNL     1      45.596   6.596  11.589  0.00  0.00    +0.000 A 
ATOM      2  C   UNL     1      45.024   7.750  12.136  0.00  0.00    +0.000 A 
ATOM      3  C   UNL     1      45.764   8.583  12.997  0.00  0.00    +0.000 A 
ATOM      4  C   UNL     1      47.088   8.272  13.329  0.00  0.00    +0.000 A 
ATOM      5  C   UNL     1      47.624   7.070  12.858  0.00  0.00    +0.000 A 
ATOM      6  C   UNL     1      46.879   6.243  12.012  0.00  0.00    +0.000 A 
ENDROOT
BRANCH   1   7
ATOM      7  N   UNL     1      44.954   5.730  10.695  0.00  0.00    +0.000 N 
ATOM      8  H   UNL     1      43.943   5.842  10.752  0.00  0.00    +0.000 HD
BRANCH   7   9
ATOM      9  C   UNL     1      45.418   5.672   9.316  0.00  0.00    +0.000 C 
BRANCH   9  14
ATOM     10  C   UNL     1      46.529   2.545   7.415  0.00  0.00    +0.000 A 
ATOM     11  C   UNL     1      45.917   1.529   8.154  0.00  0.00    +0.000 A 
ATOM     12  C   UNL     1      45.087   1.858   9.227  0.00  0.00    +0.000 A 
ATOM     13  C   UNL     1      44.890   3.199   9.574  0.00  0.00    +0.000 A 
ATOM     14  C   UNL     1      45.522   4.230   8.858  0.00  0.00    +0.000 A 
ATOM     15  C   UNL     1      46.331   3.887   7.766  0.00  0.00    +0.000 A 
BRANCH  10  17
ATOM     16  N   UNL     1      47.386   3.032   5.182  0.00  0.00    +0.000 N 
ATOM     17  C   UNL     1      47.456   2.241   6.290  0.00  0.00    +0.000 C 
ATOM     18  O   UNL     1      48.274   1.332   6.366  0.00  0.00    +0.000 OA
ATOM     19  H   UNL     1      48.082   2.867   4.467  0.00  0.00    +0.000 HD
ATOM     20  H   UNL     1      46.913   3.926   5.181  0.00  0.00    +0.000 HD
ENDBRANCH  10  17
ENDBRANCH   9  14
ENDBRANCH   7   9
ENDBRANCH   1   7
BRANCH   4  21
ATOM     21  C   UNL     1      47.936   9.189  14.175  0.00  0.00    +0.000 C 
BRANCH  21  22
ATOM     22  N   UNL     1      47.596   9.108  15.572  0.00  0.00    +0.000 N 
ATOM     23  C   UNL     1      48.347   9.754  16.519  0.00  0.00    +0.000 C 
ATOM     24  O   UNL     1      49.309  10.461  16.223  0.00  0.00    +0.000 OA
ATOM     25  H   UNL     1      47.005   8.332  15.857  0.00  0.00    +0.000 HD
BRANCH  23  26
ATOM     26  C   UNL     1      47.908   9.612  17.913  0.00  0.00    +0.000 A 
ATOM     27  C   UNL     1      47.483  10.728  18.622  0.00  0.00    +0.000 A 
ATOM     28  S   UNL     1      46.985  10.376  20.215  0.00  0.00    +0.000 S 
ATOM     29  C   UNL     1      47.363   8.728  20.029  0.00  0.00    +0.000 A 
ATOM     30  N   UNL     1      47.206   7.852  21.057  0.00  0.00    +0.000 NA
ATOM     31  C   UNL     1      47.557   6.640  20.782  0.00  0.00    +0.000 A 
ATOM     32  N   UNL     1      48.039   6.222  19.568  0.00  0.00    +0.000 N 
ATOM     33  C   UNL     1      48.185   7.063  18.493  0.00  0.00    +0.000 A 
ATOM     34  O   UNL     1      48.569   6.647  17.406  0.00  0.00    +0.000 OA
ATOM     35  C   UNL     1      47.831   8.445  18.757  0.00  0.00    +0.000 A 
ATOM     36  H   UNL     1      48.281   5.254  19.412  0.00  0.00    +0.000 HD
ENDBRANCH  23  26
ENDBRANCH  21  22
ENDBRANCH   4  21
TORSDOF 7
ENDMDL
MODEL 8
REMARK VINA RESULT:    -7.325      3.749      4.998
REMARK INTER + INTRA:         -11.543
REMARK INTER:                 -10.339
REMARK INTRA:                  -1.204
REMARK UNBOUND:                -1.220
REMARK  Name = 
REMARK  7 active torsions:
REMARK  status: ('A' for Active; 'I' for Inactive)
REMARK    1  A    between atoms: C_2  and  C_4
REMARK    2  A    between atoms: C_8  and  C_9
REMARK    3  A    between atoms: C_9  and  N_10
REMARK    4  A    between atoms: N_10  and  C_11
REMARK    5  A    between atoms: C_14  and  C_15
REMARK    6  A    between atoms: C_15  and  N_16
REMARK    7  A    between atoms: C_17  and  C_19
REMARK                            x       y       z     vdW  Elec       q    Type
REMARK                         _______ _______ _______ _____ _____    ______ ____
ROOT
ATOM      1  C   UNL     1      47.571   5.651  13.884  0.00  0.00    +0.000 A 
ATOM      2  C   UNL     1      48.054   6.176  15.087  0.00  0.00    +0.000 A 
ATOM      3  C   UNL     1      48.143   5.374  16.241  0.00  0.00    +0.000 A 
ATOM      4  C   UNL     1      47.744   4.033  16.210  0.00  0.00    +0.000 A 
ATOM      5  C   UNL     1      47.173   3.537  15.034  0.00  0.00    +0.000 A 
ATOM      6  C   UNL     1      47.080   4.344  13.896  0.00  0.00    +0.000 A 
ENDROOT
BRANCH   1   7
ATOM      7  N   UNL     1      47.485   6.358  12.678  0.00  0.00    +0.000 N 
ATOM      8  H   UNL     1      47.738   5.761  11.893  0.00  0.00    +0.000 HD
BRANCH   7   9
ATOM      9  C   UNL     1      46.286   7.137  12.403  0.00  0.00    +0.000 C 
BRANCH   9  14
ATOM     10  C   UNL     1      44.601   4.629  10.058  0.00  0.00    +0.000 A 
ATOM     11  C   UNL     1      43.360   4.451  10.676  0.00  0.00    +0.000 A 
ATOM     12  C   UNL     1      43.039   5.194  11.813  0.00  0.00    +0.000 A 
ATOM     13  C   UNL     1      43.968   6.096  12.345  0.00  0.00    +0.000 A 
ATOM     14  C   UNL     1      45.231   6.264  11.752  0.00  0.00    +0.000 A 
ATOM     15  C   UNL     1      45.529   5.532  10.595  0.00  0.00    +0.000 A 
BRANCH  10  17
ATOM     16  N   UNL     1      44.784   2.484   8.910  0.00  0.00    +0.000 N 
ATOM     17  C   UNL     1      45.003   3.828   8.869  0.00  0.00    +0.000 C 
ATOM     18  O   UNL     1      45.486   4.360   7.877  0.00  0.00    +0.000 OA
ATOM     19  H   UNL     1      44.979   1.971   8.059  0.00  0.00    +0.000 HD
ATOM     20  H   UNL     1      44.171   2.053   9.589  0.00  0.00    +0.000 HD
ENDBRANCH  10  17
ENDBRANCH   9  14
ENDBRANCH   7   9
ENDBRANCH   1   7
BRANCH   4  21
ATOM     21  C   UNL     1      47.910   3.123  17.402  0.00  0.00    +0.000 C 
BRANCH  21  22
ATOM     22  N   UNL     1      49.292   2.958  17.772  0.00  0.00    +0.000 N 
ATOM     23  C   UNL     1      50.127   2.155  17.039  0.00  0.00    +0.000 C 
ATOM     24  O   UNL     1      49.753   1.578  16.019  0.00  0.00    +0.000 OA
ATOM     25  H   UNL     1      49.541   3.183  18.730  0.00  0.00    +0.000 HD
BRANCH  23  26
ATOM     26  C   UNL     1      51.518   2.064  17.498  0.00  0.00    +0.000 A 
ATOM     27  C   UNL     1      52.098   0.819  17.709  0.00  0.00    +0.000 A 
ATOM     28  S   UNL     1      53.726   0.901  18.212  0.00  0.00    +0.000 S 
ATOM     29  C   UNL     1      53.700   2.602  18.211  0.00  0.00    +0.000 A 
ATOM     30  N   UNL     1      54.789   3.320  18.592  0.00  0.00    +0.000 NA
ATOM     31  C   UNL     1      54.618   4.600  18.567  0.00  0.00    +0.000 A 
ATOM     32  N   UNL     1      53.460   5.227  18.185  0.00  0.00    +0.000 N 
ATOM     33  C   UNL     1      52.346   4.545  17.763  0.00  0.00    +0.000 A 
ATOM     34  O   UNL     1      51.344   5.136  17.378  0.00  0.00    +0.000 OA
ATOM     35  C   UNL     1      52.476   3.100  17.799  0.00  0.00    +0.000 A 
ATOM     36  H   UNL     1      53.396   6.235  18.172  0.00  0.00    +0.000 HD
ENDBRANCH  23  26
ENDBRANCH  21  22
ENDBRANCH   4  21
TORSDOF 7
ENDMDL
MODEL 9
REMARK VINA RESULT:    -7.305      3.710      8.211
REMARK INTER + INTRA:         -11.515
REMARK INTER:                  -9.479
REMARK INTRA:                  -2.036
REMARK UNBOUND:                -1.220
REMARK  Name = 
REMARK  7 active torsions:
REMARK  status: ('A' for Active; 'I' for Inactive)
REMARK    1  A    between atoms: C_2  and  C_4
REMARK    2  A    between atoms: C_8  and  C_9
REMARK    3  A    between atoms: C_9  and  N_10
REMARK    4  A    between atoms: N_10  and  C_11
REMARK    5  A    between atoms: C_14  and  C_15
REMARK    6  A    between atoms: C_15  and  N_16
REMARK    7  A    between atoms: C_17  and  C_19
REMARK                            x       y       z     vdW  Elec       q    Type
REMARK                         _______ _______ _______ _____ _____    ______ ____
ROOT
ATOM      1  C   UNL     1      49.362   7.858  19.181  0.00  0.00    +0.000 A 
ATOM      2  C   UNL     1      48.104   8.430  18.961  0.00  0.00    +0.000 A 
ATOM      3  C   UNL     1      47.802   9.063  17.740  0.00  0.00    +0.000 A 
ATOM      4  C   UNL     1      48.757   9.137  16.719  0.00  0.00    +0.000 A 
ATOM      5  C   UNL     1      50.042   8.650  16.976  0.00  0.00    +0.000 A 
ATOM      6  C   UNL     1      50.336   8.032  18.195  0.00  0.00    +0.000 A 
ENDROOT
BRANCH   1   7
ATOM      7  N   UNL     1      49.740   7.175  20.344  0.00  0.00    +0.000 N 
ATOM      8  H   UNL     1      49.643   7.777  21.160  0.00  0.00    +0.000 HD
BRANCH   7   9
ATOM      9  C   UNL     1      49.204   5.843  20.583  0.00  0.00    +0.000 C 
BRANCH   9  14
ATOM     10  C   UNL     1      49.542   3.320  17.729  0.00  0.00    +0.000 A 
ATOM     11  C   UNL     1      50.930   3.198  17.619  0.00  0.00    +0.000 A 
ATOM     12  C   UNL     1      51.758   3.877  18.514  0.00  0.00    +0.000 A 
ATOM     13  C   UNL     1      51.198   4.697  19.501  0.00  0.00    +0.000 A 
ATOM     14  C   UNL     1      49.805   4.852  19.605  0.00  0.00    +0.000 A 
ATOM     15  C   UNL     1      48.985   4.143  18.717  0.00  0.00    +0.000 A 
BRANCH  10  17
ATOM     16  N   UNL     1      47.299   2.971  16.833  0.00  0.00    +0.000 N 
ATOM     17  C   UNL     1      48.622   2.648  16.770  0.00  0.00    +0.000 C 
ATOM     18  O   UNL     1      49.040   1.856  15.934  0.00  0.00    +0.000 OA
ATOM     19  H   UNL     1      46.705   2.573  16.116  0.00  0.00    +0.000 HD
ATOM     20  H   UNL     1      46.961   3.787  17.324  0.00  0.00    +0.000 HD
ENDBRANCH  10  17
ENDBRANCH   9  14
ENDBRANCH   7   9
ENDBRANCH   1   7
BRANCH   4  21
ATOM     21  C   UNL     1      48.438   9.727  15.368  0.00  0.00    +0.000 C 
BRANCH  21  22
ATOM     22  N   UNL     1      47.436   8.966  14.666  0.00  0.00    +0.000 N 
ATOM     23  C   UNL     1      47.775   8.157  13.613  0.00  0.00    +0.000 C 
ATOM     24  O   UNL     1      48.940   8.008  13.249  0.00  0.00    +0.000 OA
ATOM     25  H   UNL     1      46.474   9.278  14.758  0.00  0.00    +0.000 HD
BRANCH  23  26
ATOM     26  C   UNL     1      46.678   7.419  12.974  0.00  0.00    +0.000 A 
ATOM     27  C   UNL     1      45.770   8.090  12.166  0.00  0.00    +0.000 A 
ATOM     28  S   UNL     1      44.581   7.074  11.485  0.00  0.00    +0.000 S 
ATOM     29  C   UNL     1      45.210   5.709  12.283  0.00  0.00    +0.000 A 
ATOM     30  N   UNL     1      44.620   4.490  12.159  0.00  0.00    +0.000 NA
ATOM     31  C   UNL     1      45.188   3.552  12.840  0.00  0.00    +0.000 A 
ATOM     32  N   UNL     1      46.301   3.719  13.625  0.00  0.00    +0.000 N 
ATOM     33  C   UNL     1      46.948   4.923  13.755  0.00  0.00    +0.000 A 
ATOM     34  O   UNL     1      47.970   5.028  14.423  0.00  0.00    +0.000 OA
ATOM     35  C   UNL     1      46.333   6.019  13.031  0.00  0.00    +0.000 A 
ATOM     36  H   UNL     1      46.707   2.939  14.121  0.00  0.00    +0.000 HD
ENDBRANCH  23  26
ENDBRANCH  21  22
ENDBRANCH   4  21
TORSDOF 7
ENDMDL
