MODEL 1
REMARK VINA RESULT:    -8.495      0.000      0.000
REMARK INTER + INTRA:         -13.198
REMARK INTER:                 -11.971
REMARK INTRA:                  -1.228
REMARK UNBOUND:                -1.228
REMARK  Name = 
REMARK  7 active torsions:
REMARK  status: ('A' for Active; 'I' for Inactive)
REMARK    1  A    between atoms: C_2  and  C_20
REMARK    2  A    between atoms: N_3  and  C_4
REMARK    3  A    between atoms: C_4  and  C_5
REMARK    4  A    between atoms: C_8  and  C_9
REMARK    5  A    between atoms: C_9  and  N_10
REMARK    6  A    between atoms: N_10  and  C_11
REMARK    7  A    between atoms: C_11  and  C_12
REMARK                            x       y       z     vdW  Elec       q    Type
REMARK                         _______ _______ _______ _____ _____    ______ ____
ROOT
ATOM      1  C   UNL     1      46.732   7.768  13.110  0.00  0.00    +0.000 C 
ENDROOT
BRANCH   1   2
ATOM      2  C   UNL     1      45.924   6.714  12.412  0.00  0.00    +0.000 A 
ATOM      3  C   UNL     1      46.150   6.384  11.075  0.00  0.00    +0.000 A 
ATOM      4  C   UNL     1      45.412   5.364  10.480  0.00  0.00    +0.000 A 
ATOM      5  C   UNL     1      44.476   4.671  11.246  0.00  0.00    +0.000 A 
ATOM      6  N   UNL     1      44.232   4.978  12.545  0.00  0.00    +0.000 NA
ATOM      7  C   UNL     1      44.953   5.986  13.088  0.00  0.00    +0.000 A 
BRANCH   5   8
ATOM      8  C   UNL     1      43.659   3.551  10.634  0.00  0.00    +0.000 C 
BRANCH   8   9
ATOM      9  N   UNL     1      44.048   3.201   9.258  0.00  0.00    +0.000 NA
ATOM     10  H   UNL     1      44.567   4.002   8.889  0.00  0.00    +0.000 HD
BRANCH   9  11
ATOM     11  C   UNL     1      44.935   2.036   9.201  0.00  0.00    +0.000 C 
BRANCH  11  12
ATOM     12  C   UNL     1      45.934   2.177   8.079  0.00  0.00    +0.000 A 
ATOM     13  C   UNL     1      46.052   3.339   7.309  0.00  0.00    +0.000 A 
ATOM     14  C   UNL     1      47.023   3.421   6.313  0.00  0.00    +0.000 A 
ATOM     15  C   UNL     1      47.843   2.324   6.107  0.00  0.00    +0.000 A 
ATOM     16  N   UNL     1      47.749   1.175   6.810  0.00  0.00    +0.000 NA
ATOM     17  C   UNL     1      46.800   1.131   7.775  0.00  0.00    +0.000 A 
ENDBRANCH  11  12
ENDBRANCH   9  11
ENDBRANCH   8   9
ENDBRANCH   5   8
ENDBRANCH   1   2
BRANCH   1  20
ATOM     18  O   UNL     1      49.184   6.483  13.316  0.00  0.00    +0.000 OA
ATOM     19  C   UNL     1      48.556   6.717  14.349  0.00  0.00    +0.000 C 
ATOM     20  N   UNL     1      47.331   7.324  14.338  0.00  0.00    +0.000 N 
ATOM     21  H   UNL     1      46.936   7.675  15.208  0.00  0.00    +0.000 HD
BRANCH  19  22
ATOM     22  C   UNL     1      49.086   6.345  15.649  0.00  0.00    +0.000 A 
ATOM     23  C   UNL     1      50.127   7.032  16.257  0.00  0.00    +0.000 A 
ATOM     24  S   UNL     1      50.485   6.437  17.823  0.00  0.00    +0.000 S 
ATOM     25  C   UNL     1      49.255   5.262  17.718  0.00  0.00    +0.000 A 
ATOM     26  N   UNL     1      48.989   4.412  18.746  0.00  0.00    +0.000 NA
ATOM     27  C   UNL     1      48.013   3.595  18.521  0.00  0.00    +0.000 A 
ATOM     28  N   UNL     1      47.274   3.536  17.368  0.00  0.00    +0.000 N 
ATOM     29  C   UNL     1      47.564   4.317  16.270  0.00  0.00    +0.000 A 
ATOM     30  O   UNL     1      47.000   4.107  15.201  0.00  0.00    +0.000 OA
ATOM     31  C   UNL     1      48.612   5.292  16.497  0.00  0.00    +0.000 A 
ATOM     32  H   UNL     1      46.566   2.844  17.228  0.00  0.00    +0.000 HD
ENDBRANCH  19  22
ENDBRANCH   1  20
TORSDOF 7
ENDMDL
MODEL 2
REMARK VINA RESULT:    -8.174      1.383      1.541
REMARK INTER + INTRA:         -12.747
REMARK INTER:                 -11.800
REMARK INTRA:                  -0.946
REMARK UNBOUND:                -1.228
REMARK  Name = 
REMARK  7 active torsions:
REMARK  status: ('A' for Active; 'I' for Inactive)
REMARK    1  A    between atoms: C_2  and  C_20
REMARK    2  A    between atoms: N_3  and  C_4
REMARK    3  A    between atoms: C_4  and  C_5
REMARK    4  A    between atoms: C_8  and  C_9
REMARK    5  A    between atoms: C_9  and  N_10
REMARK    6  A    between atoms: N_10  and  C_11
REMARK    7  A    between atoms: C_11  and  C_12
REMARK                            x       y       z     vdW  Elec       q    Type
REMARK                         _______ _______ _______ _____ _____    ______ ____
ROOT
ATOM      1  C   UNL     1      47.928   6.616  13.380  0.00  0.00    +0.000 C 
ENDROOT
BRANCH   1   2
ATOM      2  C   UNL     1      46.810   5.864  12.719  0.00  0.00    +0.000 A 
ATOM      3  C   UNL     1      46.282   6.265  11.492  0.00  0.00    +0.000 A 
ATOM      4  C   UNL     1      45.280   5.509  10.890  0.00  0.00    +0.000 A 
ATOM      5  C   UNL     1      44.843   4.344  11.518  0.00  0.00    +0.000 A 
ATOM      6  N   UNL     1      45.334   3.936  12.715  0.00  0.00    +0.000 NA
ATOM      7  C   UNL     1      46.294   4.703  13.282  0.00  0.00    +0.000 A 
BRANCH   5   8
ATOM      8  C   UNL     1      43.758   3.492  10.889  0.00  0.00    +0.000 C 
BRANCH   8   9
ATOM      9  N   UNL     1      44.005   3.142   9.480  0.00  0.00    +0.000 NA
ATOM     10  H   UNL     1      44.507   3.932   9.067  0.00  0.00    +0.000 HD
BRANCH   9  11
ATOM     11  C   UNL     1      44.850   1.954   9.333  0.00  0.00    +0.000 C 
BRANCH  11  12
ATOM     12  C   UNL     1      45.796   2.111   8.167  0.00  0.00    +0.000 A 
ATOM     13  C   UNL     1      45.930   3.308   7.454  0.00  0.00    +0.000 A 
ATOM     14  C   UNL     1      46.851   3.399   6.412  0.00  0.00    +0.000 A 
ATOM     15  C   UNL     1      47.605   2.278   6.104  0.00  0.00    +0.000 A 
ATOM     16  N   UNL     1      47.491   1.098   6.750  0.00  0.00    +0.000 NA
ATOM     17  C   UNL     1      46.593   1.045   7.762  0.00  0.00    +0.000 A 
ENDBRANCH  11  12
ENDBRANCH   9  11
ENDBRANCH   8   9
ENDBRANCH   5   8
ENDBRANCH   1   2
BRANCH   1  20
ATOM     18  O   UNL     1      50.086   6.710  15.123  0.00  0.00    +0.000 OA
ATOM     19  C   UNL     1      48.949   6.733  15.595  0.00  0.00    +0.000 C 
ATOM     20  N   UNL     1      47.831   6.667  14.811  0.00  0.00    +0.000 N 
ATOM     21  H   UNL     1      46.922   6.884  15.214  0.00  0.00    +0.000 HD
BRANCH  19  22
ATOM     22  C   UNL     1      48.734   6.820  17.029  0.00  0.00    +0.000 A 
ATOM     23  C   UNL     1      48.373   8.003  17.660  0.00  0.00    +0.000 A 
ATOM     24  S   UNL     1      48.094   7.796  19.338  0.00  0.00    +0.000 S 
ATOM     25  C   UNL     1      48.443   6.130  19.247  0.00  0.00    +0.000 A 
ATOM     26  N   UNL     1      48.366   5.324  20.340  0.00  0.00    +0.000 NA
ATOM     27  C   UNL     1      48.639   4.083  20.104  0.00  0.00    +0.000 A 
ATOM     28  N   UNL     1      48.987   3.562  18.885  0.00  0.00    +0.000 N 
ATOM     29  C   UNL     1      49.162   4.355  17.771  0.00  0.00    +0.000 A 
ATOM     30  O   UNL     1      49.648   3.880  16.750  0.00  0.00    +0.000 OA
ATOM     31  C   UNL     1      48.808   5.745  17.973  0.00  0.00    +0.000 A 
ATOM     32  H   UNL     1      49.242   2.602  18.773  0.00  0.00    +0.000 HD
ENDBRANCH  19  22
ENDBRANCH   1  20
TORSDOF 7
ENDMDL
MODEL 3
REMARK VINA RESULT:    -7.961      2.190      3.120
REMARK INTER + INTRA:         -12.447
REMARK INTER:                 -11.511
REMARK INTRA:                  -0.936
REMARK UNBOUND:                -1.228
REMARK  Name = 
REMARK  7 active torsions:
REMARK  status: ('A' for Active; 'I' for Inactive)
REMARK    1  A    between atoms: C_2  and  C_20
REMARK    2  A    between atoms: N_3  and  C_4
REMARK    3  A    between atoms: C_4  and  C_5
REMARK    4  A    between atoms: C_8  and  C_9
REMARK    5  A    between atoms: C_9  and  N_10
REMARK    6  A    between atoms: N_10  and  C_11
REMARK    7  A    between atoms: C_11  and  C_12
REMARK                            x       y       z     vdW  Elec       q    Type
REMARK                         _______ _______ _______ _____ _____    ______ ____
ROOT
ATOM      1  C   UNL     1      47.354   3.214  14.856  0.00  0.00    +0.000 C 
ENDROOT
BRANCH   1   2
ATOM      2  C   UNL     1      46.712   3.944  13.712  0.00  0.00    +0.000 A 
ATOM      3  C   UNL     1      47.086   5.244  13.371  0.00  0.00    +0.000 A 
ATOM      4  C   UNL     1      46.502   5.865  12.271  0.00  0.00    +0.000 A 
ATOM      5  C   UNL     1      45.569   5.161  11.513  0.00  0.00    +0.000 A 
ATOM      6  N   UNL     1      45.182   3.899  11.828  0.00  0.00    +0.000 NA
ATOM      7  C   UNL     1      45.755   3.330  12.914  0.00  0.00    +0.000 A 
BRANCH   5   8
ATOM      8  C   UNL     1      44.917   5.803  10.305  0.00  0.00    +0.000 C 
BRANCH   8   9
ATOM      9  N   UNL     1      45.454   5.345   9.012  0.00  0.00    +0.000 NA
ATOM     10  H   UNL     1      46.414   5.035   9.189  0.00  0.00    +0.000 HD
BRANCH   9  11
ATOM     11  C   UNL     1      44.715   4.204   8.466  0.00  0.00    +0.000 C 
BRANCH  11  12
ATOM     12  C   UNL     1      45.662   3.148   7.952  0.00  0.00    +0.000 A 
ATOM     13  C   UNL     1      46.597   3.394   6.939  0.00  0.00    +0.000 A 
ATOM     14  C   UNL     1      47.471   2.386   6.538  0.00  0.00    +0.000 A 
ATOM     15  C   UNL     1      47.373   1.150   7.155  0.00  0.00    +0.000 A 
ATOM     16  N   UNL     1      46.472   0.863   8.118  0.00  0.00    +0.000 NA
ATOM     17  C   UNL     1      45.642   1.865   8.490  0.00  0.00    +0.000 A 
ENDBRANCH  11  12
ENDBRANCH   9  11
ENDBRANCH   8   9
ENDBRANCH   5   8
ENDBRANCH   1   2
BRANCH   1  20
ATOM     18  O   UNL     1      46.483   2.970  17.480  0.00  0.00    +0.000 OA
ATOM     19  C   UNL     1      47.289   3.860  17.210  0.00  0.00    +0.000 C 
ATOM     20  N   UNL     1      47.752   4.066  15.941  0.00  0.00    +0.000 N 
ATOM     21  H   UNL     1      48.555   4.674  15.791  0.00  0.00    +0.000 HD
BRANCH  19  22
ATOM     22  C   UNL     1      47.788   4.756  18.238  0.00  0.00    +0.000 A 
ATOM     23  C   UNL     1      46.972   5.663  18.901  0.00  0.00    +0.000 A 
ATOM     24  S   UNL     1      47.802   6.524  20.127  0.00  0.00    +0.000 S 
ATOM     25  C   UNL     1      49.258   5.699  19.799  0.00  0.00    +0.000 A 
ATOM     26  N   UNL     1      50.389   5.933  20.516  0.00  0.00    +0.000 NA
ATOM     27  C   UNL     1      51.402   5.213  20.161  0.00  0.00    +0.000 A 
ATOM     28  N   UNL     1      51.402   4.281  19.155  0.00  0.00    +0.000 N 
ATOM     29  C   UNL     1      50.305   4.073  18.347  0.00  0.00    +0.000 A 
ATOM     30  O   UNL     1      50.403   3.367  17.349  0.00  0.00    +0.000 OA
ATOM     31  C   UNL     1      49.126   4.815  18.747  0.00  0.00    +0.000 A 
ATOM     32  H   UNL     1      52.232   3.793  18.887  0.00  0.00    +0.000 HD
ENDBRANCH  19  22
ENDBRANCH   1  20
TORSDOF 7
ENDMDL
MODEL 4
REMARK VINA RESULT:    -7.735      2.364      2.838
REMARK INTER + INTRA:         -12.128
REMARK INTER:                 -11.028
REMARK INTRA:                  -1.100
REMARK UNBOUND:                -1.228
REMARK  Name = 
REMARK  7 active torsions:
REMARK  status: ('A' for Active; 'I' for Inactive)
REMARK    1  A    between atoms: C_2  and  C_20
REMARK    2  A    between atoms: N_3  and  C_4
REMARK    3  A    between atoms: C_4  and  C_5
REMARK    4  A    between atoms: C_8  and  C_9
REMARK    5  A    between atoms: C_9  and  N_10
REMARK    6  A    between atoms: N_10  and  C_11
REMARK    7  A    between atoms: C_11  and  C_12
REMARK                            x       y       z     vdW  Elec       q    Type
REMARK                         _______ _______ _______ _____ _____    ______ ____
ROOT
ATOM      1  C   UNL     1      48.114   6.267  13.894  0.00  0.00    +0.000 C 
ENDROOT
BRANCH   1   2
ATOM      2  C   UNL     1      46.916   5.974  13.039  0.00  0.00    +0.000 A 
ATOM      3  C   UNL     1      46.767   6.534  11.770  0.00  0.00    +0.000 A 
ATOM      4  C   UNL     1      45.666   6.194  10.990  0.00  0.00    +0.000 A 
ATOM      5  C   UNL     1      44.743   5.274  11.485  0.00  0.00    +0.000 A 
ATOM      6  N   UNL     1      44.862   4.721  12.719  0.00  0.00    +0.000 NA
ATOM      7  C   UNL     1      45.933   5.086  13.460  0.00  0.00    +0.000 A 
BRANCH   5   8
ATOM      8  C   UNL     1      43.536   4.876  10.662  0.00  0.00    +0.000 C 
BRANCH   8   9
ATOM      9  N   UNL     1      43.864   4.281   9.355  0.00  0.00    +0.000 NA
ATOM     10  H   UNL     1      44.598   4.865   8.945  0.00  0.00    +0.000 HD
BRANCH   9  11
ATOM     11  C   UNL     1      44.396   2.920   9.472  0.00  0.00    +0.000 C 
BRANCH  11  12
ATOM     12  C   UNL     1      45.465   2.672   8.437  0.00  0.00    +0.000 A 
ATOM     13  C   UNL     1      45.945   3.674   7.585  0.00  0.00    +0.000 A 
ATOM     14  C   UNL     1      46.963   3.390   6.678  0.00  0.00    +0.000 A 
ATOM     15  C   UNL     1      47.464   2.099   6.639  0.00  0.00    +0.000 A 
ATOM     16  N   UNL     1      47.016   1.097   7.425  0.00  0.00    +0.000 NA
ATOM     17  C   UNL     1      46.031   1.408   8.301  0.00  0.00    +0.000 A 
ENDBRANCH  11  12
ENDBRANCH   9  11
ENDBRANCH   8   9
ENDBRANCH   5   8
ENDBRANCH   1   2
BRANCH   1  20
ATOM     18  O   UNL     1      49.999   6.095  15.925  0.00  0.00    +0.000 OA
ATOM     19  C   UNL     1      48.819   6.269  16.232  0.00  0.00    +0.000 C 
ATOM     20  N   UNL     1      47.824   6.342  15.299  0.00  0.00    +0.000 N 
ATOM     21  H   UNL     1      46.903   6.678  15.572  0.00  0.00    +0.000 HD
BRANCH  19  22
ATOM     22  C   UNL     1      48.418   6.395  17.623  0.00  0.00    +0.000 A 
ATOM     23  C   UNL     1      48.419   5.322  18.503  0.00  0.00    +0.000 A 
ATOM     24  S   UNL     1      47.992   5.776  20.098  0.00  0.00    +0.000 S 
ATOM     25  C   UNL     1      47.805   7.408  19.643  0.00  0.00    +0.000 A 
ATOM     26  N   UNL     1      47.470   8.368  20.547  0.00  0.00    +0.000 NA
ATOM     27  C   UNL     1      47.389   9.559  20.051  0.00  0.00    +0.000 A 
ATOM     28  N   UNL     1      47.605   9.891  18.739  0.00  0.00    +0.000 N 
ATOM     29  C   UNL     1      47.861   8.941  17.774  0.00  0.00    +0.000 A 
ATOM     30  O   UNL     1      47.867   9.256  16.588  0.00  0.00    +0.000 OA
ATOM     31  C   UNL     1      48.022   7.598  18.293  0.00  0.00    +0.000 A 
ATOM     32  H   UNL     1      47.473  10.822  18.400  0.00  0.00    +0.000 HD
ENDBRANCH  19  22
ENDBRANCH   1  20
TORSDOF 7
ENDMDL
MODEL 5
REMARK VINA RESULT:    -7.367      2.061      3.262
REMARK INTER + INTRA:         -11.610
REMARK INTER:                 -10.613
REMARK INTRA:                  -0.996
REMARK UNBOUND:                -1.228
REMARK  Name = 
REMARK  7 active torsions:
REMARK  status: ('A' for Active; 'I' for Inactive)
REMARK    1  A    between atoms: C_2  and  C_20
REMARK    2  A    between atoms: N_3  and  C_4
REMARK    3  A    between atoms: C_4  and  C_5
REMARK    4  A    between atoms: C_8  and  C_9
REMARK    5  A    between atoms: C_9  and  N_10
REMARK    6  A    between atoms: N_10  and  C_11
REMARK    7  A    between atoms: C_11  and  C_12
REMARK                            x       y       z     vdW  Elec       q    Type
REMARK                         _______ _______ _______ _____ _____    ______ ____
ROOT
ATOM      1  C   UNL     1      47.167   4.268  15.338  0.00  0.00    +0.000 C 
ENDROOT
BRANCH   1   2
ATOM      2  C   UNL     1      46.618   4.791  14.043  0.00  0.00    +0.000 A 
ATOM      3  C   UNL     1      47.260   5.805  13.332  0.00  0.00    +0.000 A 
ATOM      4  C   UNL     1      46.745   6.225  12.109  0.00  0.00    +0.000 A 
ATOM      5  C   UNL     1      45.606   5.599  11.605  0.00  0.00    +0.000 A 
ATOM      6  N   UNL     1      44.959   4.616  12.280  0.00  0.00    +0.000 NA
ATOM      7  C   UNL     1      45.475   4.244  13.474  0.00  0.00    +0.000 A 
BRANCH   5   8
ATOM      8  C   UNL     1      45.020   6.026  10.274  0.00  0.00    +0.000 C 
BRANCH   8   9
ATOM      9  N   UNL     1      45.602   5.338   9.109  0.00  0.00    +0.000 NA
ATOM     10  H   UNL     1      46.515   4.983   9.405  0.00  0.00    +0.000 HD
BRANCH   9  11
ATOM     11  C   UNL     1      44.802   4.191   8.673  0.00  0.00    +0.000 C 
BRANCH  11  12
ATOM     12  C   UNL     1      45.681   3.123   8.069  0.00  0.00    +0.000 A 
ATOM     13  C   UNL     1      46.566   3.375   7.015  0.00  0.00    +0.000 A 
ATOM     14  C   UNL     1      47.380   2.354   6.529  0.00  0.00    +0.000 A 
ATOM     15  C   UNL     1      47.273   1.100   7.106  0.00  0.00    +0.000 A 
ATOM     16  N   UNL     1      46.417   0.807   8.108  0.00  0.00    +0.000 NA
ATOM     17  C   UNL     1      45.645   1.822   8.563  0.00  0.00    +0.000 A 
ENDBRANCH  11  12
ENDBRANCH   9  11
ENDBRANCH   8   9
ENDBRANCH   5   8
ENDBRANCH   1   2
BRANCH   1  20
ATOM     18  O   UNL     1      49.348   3.850  17.003  0.00  0.00    +0.000 OA
ATOM     19  C   UNL     1      48.872   4.984  16.934  0.00  0.00    +0.000 C 
ATOM     20  N   UNL     1      47.784   5.273  16.157  0.00  0.00    +0.000 N 
ATOM     21  H   UNL     1      47.543   6.244  15.972  0.00  0.00    +0.000 HD
BRANCH  19  22
ATOM     22  C   UNL     1      49.442   6.084  17.691  0.00  0.00    +0.000 A 
ATOM     23  C   UNL     1      49.327   6.182  19.071  0.00  0.00    +0.000 A 
ATOM     24  S   UNL     1      50.173   7.527  19.710  0.00  0.00    +0.000 S 
ATOM     25  C   UNL     1      50.709   7.997  18.161  0.00  0.00    +0.000 A 
ATOM     26  N   UNL     1      51.516   9.076  17.982  0.00  0.00    +0.000 NA
ATOM     27  C   UNL     1      51.854   9.288  16.752  0.00  0.00    +0.000 A 
ATOM     28  N   UNL     1      51.462   8.532  15.677  0.00  0.00    +0.000 N 
ATOM     29  C   UNL     1      50.576   7.484  15.802  0.00  0.00    +0.000 A 
ATOM     30  O   UNL     1      50.111   6.951  14.800  0.00  0.00    +0.000 OA
ATOM     31  C   UNL     1      50.218   7.170  17.170  0.00  0.00    +0.000 A 
ATOM     32  H   UNL     1      51.709   8.777  14.740  0.00  0.00    +0.000 HD
ENDBRANCH  19  22
ENDBRANCH   1  20
TORSDOF 7
ENDMDL
MODEL 6
REMARK VINA RESULT:    -7.362      3.057      5.024
REMARK INTER + INTRA:         -11.602
REMARK INTER:                 -10.967
REMARK INTRA:                  -0.635
REMARK UNBOUND:                -1.228
REMARK  Name = 
REMARK  7 active torsions:
REMARK  status: ('A' for Active; 'I' for Inactive)
REMARK    1  A    between atoms: C_2  and  C_20
REMARK    2  A    between atoms: N_3  and  C_4
REMARK    3  A    between atoms: C_4  and  C_5
REMARK    4  A    between atoms: C_8  and  C_9
REMARK    5  A    between atoms: C_9  and  N_10
REMARK    6  A    between atoms: N_10  and  C_11
REMARK    7  A    between atoms: C_11  and  C_12
REMARK                            x       y       z     vdW  Elec       q    Type
REMARK                         _______ _______ _______ _____ _____    ______ ____
ROOT
ATOM      1  C   UNL     1      47.559   6.260  14.162  0.00  0.00    +0.000 C 
ENDROOT
BRANCH   1   2
ATOM      2  C   UNL     1      46.564   5.388  13.453  0.00  0.00    +0.000 A 
ATOM      3  C   UNL     1      46.770   4.017  13.298  0.00  0.00    +0.000 A 
ATOM      4  C   UNL     1      45.797   3.237  12.680  0.00  0.00    +0.000 A 
ATOM      5  C   UNL     1      44.617   3.842  12.251  0.00  0.00    +0.000 A 
ATOM      6  N   UNL     1      44.395   5.174  12.384  0.00  0.00    +0.000 NA
ATOM      7  C   UNL     1      45.369   5.907  12.972  0.00  0.00    +0.000 A 
BRANCH   5   8
ATOM      8  C   UNL     1      43.533   3.023  11.580  0.00  0.00    +0.000 C 
BRANCH   8   9
ATOM      9  N   UNL     1      43.963   2.348  10.344  0.00  0.00    +0.000 NA
ATOM     10  H   UNL     1      43.157   1.817  10.006  0.00  0.00    +0.000 HD
BRANCH   9  11
ATOM     11  C   UNL     1      44.344   3.292   9.289  0.00  0.00    +0.000 C 
BRANCH  11  12
ATOM     12  C   UNL     1      45.459   2.729   8.444  0.00  0.00    +0.000 A 
ATOM     13  C   UNL     1      46.224   3.515   7.573  0.00  0.00    +0.000 A 
ATOM     14  C   UNL     1      47.267   2.941   6.850  0.00  0.00    +0.000 A 
ATOM     15  C   UNL     1      47.507   1.586   7.009  0.00  0.00    +0.000 A 
ATOM     16  N   UNL     1      46.780   0.786   7.819  0.00  0.00    +0.000 NA
ATOM     17  C   UNL     1      45.778   1.376   8.512  0.00  0.00    +0.000 A 
ENDBRANCH  11  12
ENDBRANCH   9  11
ENDBRANCH   8   9
ENDBRANCH   5   8
ENDBRANCH   1   2
BRANCH   1  20
ATOM     18  O   UNL     1      48.696   7.143  11.789  0.00  0.00    +0.000 OA
ATOM     19  C   UNL     1      48.133   7.966  12.512  0.00  0.00    +0.000 C 
ATOM     20  N   UNL     1      47.568   7.622  13.708  0.00  0.00    +0.000 N 
ATOM     21  H   UNL     1      46.949   8.279  14.178  0.00  0.00    +0.000 HD
BRANCH  19  22
ATOM     22  C   UNL     1      48.050   9.365  12.131  0.00  0.00    +0.000 A 
ATOM     23  C   UNL     1      49.167  10.114  11.786  0.00  0.00    +0.000 A 
ATOM     24  S   UNL     1      48.767  11.704  11.290  0.00  0.00    +0.000 S 
ATOM     25  C   UNL     1      47.103  11.418  11.522  0.00  0.00    +0.000 A 
ATOM     26  N   UNL     1      46.170  12.369  11.251  0.00  0.00    +0.000 NA
ATOM     27  C   UNL     1      44.951  11.992  11.457  0.00  0.00    +0.000 A 
ATOM     28  N   UNL     1      44.566  10.757  11.911  0.00  0.00    +0.000 N 
ATOM     29  C   UNL     1      45.479   9.793  12.279  0.00  0.00    +0.000 A 
ATOM     30  O   UNL     1      45.102   8.775  12.849  0.00  0.00    +0.000 OA
ATOM     31  C   UNL     1      46.858  10.149  12.008  0.00  0.00    +0.000 A 
ATOM     32  H   UNL     1      43.610  10.539  12.105  0.00  0.00    +0.000 HD
ENDBRANCH  19  22
ENDBRANCH   1  20
TORSDOF 7
ENDMDL
MODEL 7
REMARK VINA RESULT:    -7.348      2.060      3.529
REMARK INTER + INTRA:         -11.582
REMARK INTER:                 -10.570
REMARK INTRA:                  -1.012
REMARK UNBOUND:                -1.228
REMARK  Name = 
REMARK  7 active torsions:
REMARK  status: ('A' for Active; 'I' for Inactive)
REMARK    1  A    between atoms: C_2  and  C_20
REMARK    2  A    between atoms: N_3  and  C_4
REMARK    3  A    between atoms: C_4  and  C_5
REMARK    4  A    between atoms: C_8  and  C_9
REMARK    5  A    between atoms: C_9  and  N_10
REMARK    6  A    between atoms: N_10  and  C_11
REMARK    7  A    between atoms: C_11  and  C_12
REMARK                            x       y       z     vdW  Elec       q    Type
REMARK                         _______ _______ _______ _____ _____    ______ ____
ROOT
ATOM      1  C   UNL     1      47.142   4.595  14.757  0.00  0.00    +0.000 C 
ENDROOT
BRANCH   1   2
ATOM      2  C   UNL     1      46.234   4.618  13.561  0.00  0.00    +0.000 A 
ATOM      3  C   UNL     1      45.767   3.442  12.973  0.00  0.00    +0.000 A 
ATOM      4  C   UNL     1      44.886   3.510  11.898  0.00  0.00    +0.000 A 
ATOM      5  C   UNL     1      44.465   4.760  11.446  0.00  0.00    +0.000 A 
ATOM      6  N   UNL     1      44.911   5.918  11.996  0.00  0.00    +0.000 NA
ATOM      7  C   UNL     1      45.781   5.818  13.027  0.00  0.00    +0.000 A 
BRANCH   5   8
ATOM      8  C   UNL     1      43.502   4.872  10.282  0.00  0.00    +0.000 C 
BRANCH   8   9
ATOM      9  N   UNL     1      43.922   4.137   9.077  0.00  0.00    +0.000 NA
ATOM     10  H   UNL     1      43.302   4.439   8.320  0.00  0.00    +0.000 HD
BRANCH   9  11
ATOM     11  C   UNL     1      45.296   4.451   8.675  0.00  0.00    +0.000 C 
BRANCH  11  12
ATOM     12  C   UNL     1      45.971   3.237   8.084  0.00  0.00    +0.000 A 
ATOM     13  C   UNL     1      46.875   3.315   7.018  0.00  0.00    +0.000 A 
ATOM     14  C   UNL     1      47.495   2.161   6.544  0.00  0.00    +0.000 A 
ATOM     15  C   UNL     1      47.181   0.954   7.146  0.00  0.00    +0.000 A 
ATOM     16  N   UNL     1      46.299   0.830   8.161  0.00  0.00    +0.000 NA
ATOM     17  C   UNL     1      45.718   1.971   8.602  0.00  0.00    +0.000 A 
ENDBRANCH  11  12
ENDBRANCH   9  11
ENDBRANCH   8   9
ENDBRANCH   5   8
ENDBRANCH   1   2
BRANCH   1  20
ATOM     18  O   UNL     1      49.293   5.020  16.457  0.00  0.00    +0.000 OA
ATOM     19  C   UNL     1      48.753   5.997  15.941  0.00  0.00    +0.000 C 
ATOM     20  N   UNL     1      47.673   5.881  15.110  0.00  0.00    +0.000 N 
ATOM     21  H   UNL     1      47.380   6.681  14.553  0.00  0.00    +0.000 HD
BRANCH  19  22
ATOM     22  C   UNL     1      49.233   7.344  16.199  0.00  0.00    +0.000 A 
ATOM     23  C   UNL     1      49.225   7.911  17.466  0.00  0.00    +0.000 A 
ATOM     24  S   UNL     1      49.934   9.469  17.496  0.00  0.00    +0.000 S 
ATOM     25  C   UNL     1      50.268   9.410  15.825  0.00  0.00    +0.000 A 
ATOM     26  N   UNL     1      50.906  10.428  15.188  0.00  0.00    +0.000 NA
ATOM     27  C   UNL     1      51.106  10.224  13.928  0.00  0.00    +0.000 A 
ATOM     28  N   UNL     1      50.729   9.103  13.234  0.00  0.00    +0.000 N 
ATOM     29  C   UNL     1      50.005   8.087  13.819  0.00  0.00    +0.000 A 
ATOM     30  O   UNL     1      49.531   7.192  13.126  0.00  0.00    +0.000 OA
ATOM     31  C   UNL     1      49.810   8.244  15.246  0.00  0.00    +0.000 A 
ATOM     32  H   UNL     1      50.860   9.024  12.246  0.00  0.00    +0.000 HD
ENDBRANCH  19  22
ENDBRANCH   1  20
TORSDOF 7
ENDMDL
MODEL 8
REMARK VINA RESULT:    -7.109      2.308      3.030
REMARK INTER + INTRA:         -11.246
REMARK INTER:                 -10.404
REMARK INTRA:                  -0.842
REMARK UNBOUND:                -1.228
REMARK  Name = 
REMARK  7 active torsions:
REMARK  status: ('A' for Active; 'I' for Inactive)
REMARK    1  A    between atoms: C_2  and  C_20
REMARK    2  A    between atoms: N_3  and  C_4
REMARK    3  A    between atoms: C_4  and  C_5
REMARK    4  A    between atoms: C_8  and  C_9
REMARK    5  A    between atoms: C_9  and  N_10
REMARK    6  A    between atoms: N_10  and  C_11
REMARK    7  A    between atoms: C_11  and  C_12
REMARK                            x       y       z     vdW  Elec       q    Type
REMARK                         _______ _______ _______ _____ _____    ______ ____
ROOT
ATOM      1  C   UNL     1      46.857   4.282  15.485  0.00  0.00    +0.000 C 
ENDROOT
BRANCH   1   2
ATOM      2  C   UNL     1      46.443   4.737  14.116  0.00  0.00    +0.000 A 
ATOM      3  C   UNL     1      45.203   4.396  13.574  0.00  0.00    +0.000 A 
ATOM      4  C   UNL     1      44.838   4.882  12.322  0.00  0.00    +0.000 A 
ATOM      5  C   UNL     1      45.713   5.728  11.644  0.00  0.00    +0.000 A 
ATOM      6  N   UNL     1      46.928   6.068  12.145  0.00  0.00    +0.000 NA
ATOM      7  C   UNL     1      47.260   5.564  13.356  0.00  0.00    +0.000 A 
BRANCH   5   8
ATOM      8  C   UNL     1      45.347   6.281  10.281  0.00  0.00    +0.000 C 
BRANCH   8   9
ATOM      9  N   UNL     1      45.795   5.450   9.151  0.00  0.00    +0.000 NA
ATOM     10  H   UNL     1      46.739   5.129   9.380  0.00  0.00    +0.000 HD
BRANCH   9  11
ATOM     11  C   UNL     1      44.959   4.262   8.959  0.00  0.00    +0.000 C 
BRANCH  11  12
ATOM     12  C   UNL     1      45.737   3.163   8.278  0.00  0.00    +0.000 A 
ATOM     13  C   UNL     1      46.659   3.408   7.253  0.00  0.00    +0.000 A 
ATOM     14  C   UNL     1      47.376   2.353   6.693  0.00  0.00    +0.000 A 
ATOM     15  C   UNL     1      47.138   1.074   7.169  0.00  0.00    +0.000 A 
ATOM     16  N   UNL     1      46.243   0.790   8.139  0.00  0.00    +0.000 NA
ATOM     17  C   UNL     1      45.568   1.838   8.667  0.00  0.00    +0.000 A 
ENDBRANCH  11  12
ENDBRANCH   9  11
ENDBRANCH   8   9
ENDBRANCH   5   8
ENDBRANCH   1   2
BRANCH   1  20
ATOM     18  O   UNL     1      47.753   5.326  17.895  0.00  0.00    +0.000 OA
ATOM     19  C   UNL     1      48.584   5.060  17.026  0.00  0.00    +0.000 C 
ATOM     20  N   UNL     1      48.228   4.565  15.803  0.00  0.00    +0.000 N 
ATOM     21  H   UNL     1      48.943   4.176  15.191  0.00  0.00    +0.000 HD
BRANCH  19  22
ATOM     22  C   UNL     1      50.003   5.271  17.255  0.00  0.00    +0.000 A 
ATOM     23  C   UNL     1      50.572   6.536  17.309  0.00  0.00    +0.000 A 
ATOM     24  S   UNL     1      52.242   6.493  17.686  0.00  0.00    +0.000 S 
ATOM     25  C   UNL     1      52.232   4.791  17.788  0.00  0.00    +0.000 A 
ATOM     26  N   UNL     1      53.350   4.088  18.111  0.00  0.00    +0.000 NA
ATOM     27  C   UNL     1      53.175   2.809  18.169  0.00  0.00    +0.000 A 
ATOM     28  N   UNL     1      51.993   2.156  17.933  0.00  0.00    +0.000 N 
ATOM     29  C   UNL     1      50.858   2.819  17.519  0.00  0.00    +0.000 A 
ATOM     30  O   UNL     1      49.878   2.184  17.145  0.00  0.00    +0.000 OA
ATOM     31  C   UNL     1      50.990   4.262  17.499  0.00  0.00    +0.000 A 
ATOM     32  H   UNL     1      51.930   1.158  17.938  0.00  0.00    +0.000 HD
ENDBRANCH  19  22
ENDBRANCH   1  20
TORSDOF 7
ENDMDL
MODEL 9
REMARK VINA RESULT:    -6.953      3.229      8.062
REMARK INTER + INTRA:         -11.025
REMARK INTER:                  -9.637
REMARK INTRA:                  -1.388
REMARK UNBOUND:                -1.228
REMARK  Name = 
REMARK  7 active torsions:
REMARK  status: ('A' for Active; 'I' for Inactive)
REMARK    1  A    between atoms: C_2  and  C_20
REMARK    2  A    between atoms: N_3  and  C_4
REMARK    3  A    between atoms: C_4  and  C_5
REMARK    4  A    between atoms: C_8  and  C_9
REMARK    5  A    between atoms: C_9  and  N_10
REMARK    6  A    between atoms: N_10  and  C_11
REMARK    7  A    between atoms: C_11  and  C_12
REMARK                            x       y       z     vdW  Elec       q    Type
REMARK                         _______ _______ _______ _____ _____    ______ ____
ROOT
ATOM      1  C   UNL     1      48.119   8.038  12.119  0.00  0.00    +0.000 C 
ENDROOT
BRANCH   1   2
ATOM      2  C   UNL     1      48.300   7.939  13.606  0.00  0.00    +0.000 A 
ATOM      3  C   UNL     1      48.918   6.836  14.197  0.00  0.00    +0.000 A 
ATOM      4  C   UNL     1      49.111   6.809  15.575  0.00  0.00    +0.000 A 
ATOM      5  C   UNL     1      48.705   7.903  16.337  0.00  0.00    +0.000 A 
ATOM      6  N   UNL     1      48.095   8.983  15.787  0.00  0.00    +0.000 NA
ATOM      7  C   UNL     1      47.905   8.971  14.448  0.00  0.00    +0.000 A 
BRANCH   5   8
ATOM      8  C   UNL     1      48.905   7.911  17.839  0.00  0.00    +0.000 C 
BRANCH   8   9
ATOM      9  N   UNL     1      47.733   7.460  18.607  0.00  0.00    +0.000 NA
ATOM     10  H   UNL     1      47.015   7.207  17.923  0.00  0.00    +0.000 HD
BRANCH   9  11
ATOM     11  C   UNL     1      48.012   6.270  19.416  0.00  0.00    +0.000 C 
BRANCH  11  12
ATOM     12  C   UNL     1      48.077   5.036  18.549  0.00  0.00    +0.000 A 
ATOM     13  C   UNL     1      49.222   4.236  18.451  0.00  0.00    +0.000 A 
ATOM     14  C   UNL     1      49.204   3.087  17.664  0.00  0.00    +0.000 A 
ATOM     15  C   UNL     1      48.038   2.778  16.983  0.00  0.00    +0.000 A 
ATOM     16  N   UNL     1      46.920   3.532  17.031  0.00  0.00    +0.000 NA
ATOM     17  C   UNL     1      46.968   4.639  17.809  0.00  0.00    +0.000 A 
ENDBRANCH  11  12
ENDBRANCH   9  11
ENDBRANCH   8   9
ENDBRANCH   5   8
ENDBRANCH   1   2
BRANCH   1  20
ATOM     18  O   UNL     1      45.395   7.888  11.615  0.00  0.00    +0.000 OA
ATOM     19  C   UNL     1      46.102   6.929  11.304  0.00  0.00    +0.000 C 
ATOM     20  N   UNL     1      47.449   6.909  11.537  0.00  0.00    +0.000 N 
ATOM     21  H   UNL     1      48.025   6.196  11.095  0.00  0.00    +0.000 HD
BRANCH  19  22
ATOM     22  C   UNL     1      45.533   5.750  10.675  0.00  0.00    +0.000 A 
ATOM     23  C   UNL     1      45.769   5.423   9.347  0.00  0.00    +0.000 A 
ATOM     24  S   UNL     1      45.053   3.933   8.897  0.00  0.00    +0.000 S 
ATOM     25  C   UNL     1      44.424   3.698  10.463  0.00  0.00    +0.000 A 
ATOM     26  N   UNL     1      43.715   2.585  10.789  0.00  0.00    +0.000 NA
ATOM     27  C   UNL     1      43.326   2.544  12.021  0.00  0.00    +0.000 A 
ATOM     28  N   UNL     1      43.570   3.508  12.965  0.00  0.00    +0.000 N 
ATOM     29  C   UNL     1      44.208   4.690  12.658  0.00  0.00    +0.000 A 
ATOM     30  O   UNL     1      44.245   5.599  13.481  0.00  0.00    +0.000 OA
ATOM     31  C   UNL     1      44.717   4.755  11.303  0.00  0.00    +0.000 A 
ATOM     32  H   UNL     1      43.195   3.449  13.890  0.00  0.00    +0.000 HD
ENDBRANCH  19  22
ENDBRANCH   1  20
TORSDOF 7
ENDMDL
