MODEL 1
REMARK VINA RESULT:    -7.870      0.000      0.000
REMARK INTER + INTRA:         -12.570
REMARK INTER:                 -11.091
REMARK INTRA:                  -1.479
REMARK UNBOUND:                -1.479
REMARK  Name = 
REMARK  7 active torsions:
REMARK  status: ('A' for Active; 'I' for Inactive)
REMARK    1  A    between atoms: C_2  and  C_20
REMARK    2  A    between atoms: N_3  and  C_4
REMARK    3  A    between atoms: C_4  and  C_5
REMARK    4  A    between atoms: C_8  and  N_9
REMARK    5  A    between atoms: N_9  and  C_10
REMARK    6  A    between atoms: C_10  and  C_11
REMARK    7  A    between atoms: C_11  and  C_12
REMARK                            x       y       z     vdW  Elec       q    Type
REMARK                         _______ _______ _______ _____ _____    ______ ____
ROOT
ATOM      1  C   UNL     1      47.221   8.660  13.188  0.00  0.00    +0.000 C 
ENDROOT
BRANCH   1   2
ATOM      2  C   UNL     1      46.433   7.561  12.519  0.00  0.00    +0.000 A 
ATOM      3  C   UNL     1      46.963   6.874  11.422  0.00  0.00    +0.000 A 
ATOM      4  C   UNL     1      46.239   5.848  10.803  0.00  0.00    +0.000 A 
ATOM      5  C   UNL     1      44.974   5.482  11.270  0.00  0.00    +0.000 A 
ATOM      6  C   UNL     1      44.403   6.244  12.294  0.00  0.00    +0.000 A 
ATOM      7  C   UNL     1      45.125   7.263  12.925  0.00  0.00    +0.000 A 
BRANCH   5   8
ATOM      8  N   UNL     1      44.199   4.460  10.709  0.00  0.00    +0.000 N 
ATOM      9  H   UNL     1      43.933   4.707   9.756  0.00  0.00    +0.000 HD
BRANCH   8  10
ATOM     10  C   UNL     1      44.722   3.087  10.789  0.00  0.00    +0.000 C 
BRANCH  10  11
ATOM     11  C   UNL     1      44.357   2.332   9.515  0.00  0.00    +0.000 C 
BRANCH  11  12
ATOM     12  C   UNL     1      45.501   2.354   8.544  0.00  0.00    +0.000 A 
ATOM     13  N   UNL     1      45.810   3.529   7.964  0.00  0.00    +0.000 NA
ATOM     14  C   UNL     1      46.844   3.523   7.102  0.00  0.00    +0.000 A 
ATOM     15  C   UNL     1      47.563   2.395   6.791  0.00  0.00    +0.000 A 
ATOM     16  C   UNL     1      47.160   1.243   7.424  0.00  0.00    +0.000 A 
ATOM     17  N   UNL     1      46.131   1.189   8.292  0.00  0.00    +0.000 NA
ENDBRANCH  11  12
ENDBRANCH  10  11
ENDBRANCH   8  10
ENDBRANCH   5   8
ENDBRANCH   1   2
BRANCH   1  20
ATOM     18  O   UNL     1      49.402   6.883  13.762  0.00  0.00    +0.000 OA
ATOM     19  C   UNL     1      48.662   7.275  14.650  0.00  0.00    +0.000 C 
ATOM     20  N   UNL     1      47.659   8.203  14.477  0.00  0.00    +0.000 N 
ATOM     21  H   UNL     1      46.985   8.309  15.218  0.00  0.00    +0.000 HD
BRANCH  19  22
ATOM     22  C   UNL     1      48.583   6.668  15.973  0.00  0.00    +0.000 A 
ATOM     23  C   UNL     1      49.069   7.286  17.108  0.00  0.00    +0.000 A 
ATOM     24  S   UNL     1      49.375   6.151  18.362  0.00  0.00    +0.000 S 
ATOM     25  C   UNL     1      48.743   4.868  17.434  0.00  0.00    +0.000 A 
ATOM     26  N   UNL     1      48.835   3.566  17.818  0.00  0.00    +0.000 NA
ATOM     27  C   UNL     1      48.265   2.733  17.007  0.00  0.00    +0.000 A 
ATOM     28  N   UNL     1      47.562   3.085  15.879  0.00  0.00    +0.000 N 
ATOM     29  C   UNL     1      47.420   4.387  15.468  0.00  0.00    +0.000 A 
ATOM     30  O   UNL     1      46.716   4.695  14.514  0.00  0.00    +0.000 OA
ATOM     31  C   UNL     1      48.167   5.332  16.271  0.00  0.00    +0.000 A 
ATOM     32  H   UNL     1      47.069   2.393  15.335  0.00  0.00    +0.000 HD
ENDBRANCH  19  22
ENDBRANCH   1  20
TORSDOF 7
ENDMDL
MODEL 2
REMARK VINA RESULT:    -7.635      1.487      1.735
REMARK INTER + INTRA:         -12.238
REMARK INTER:                 -11.010
REMARK INTRA:                  -1.228
REMARK UNBOUND:                -1.479
REMARK  Name = 
REMARK  7 active torsions:
REMARK  status: ('A' for Active; 'I' for Inactive)
REMARK    1  A    between atoms: C_2  and  C_20
REMARK    2  A    between atoms: N_3  and  C_4
REMARK    3  A    between atoms: C_4  and  C_5
REMARK    4  A    between atoms: C_8  and  N_9
REMARK    5  A    between atoms: N_9  and  C_10
REMARK    6  A    between atoms: C_10  and  C_11
REMARK    7  A    between atoms: C_11  and  C_12
REMARK                            x       y       z     vdW  Elec       q    Type
REMARK                         _______ _______ _______ _____ _____    ______ ____
ROOT
ATOM      1  C   UNL     1      48.042   7.390  14.050  0.00  0.00    +0.000 C 
ENDROOT
BRANCH   1   2
ATOM      2  C   UNL     1      47.157   6.567  13.146  0.00  0.00    +0.000 A 
ATOM      3  C   UNL     1      46.614   5.358  13.594  0.00  0.00    +0.000 A 
ATOM      4  C   UNL     1      45.785   4.595  12.762  0.00  0.00    +0.000 A 
ATOM      5  C   UNL     1      45.475   5.026  11.469  0.00  0.00    +0.000 A 
ATOM      6  C   UNL     1      46.107   6.177  10.990  0.00  0.00    +0.000 A 
ATOM      7  C   UNL     1      46.926   6.951  11.818  0.00  0.00    +0.000 A 
BRANCH   5   8
ATOM      8  N   UNL     1      44.645   4.322  10.588  0.00  0.00    +0.000 N 
ATOM      9  H   UNL     1      44.764   4.676   9.640  0.00  0.00    +0.000 HD
BRANCH   8  10
ATOM     10  C   UNL     1      44.697   2.853  10.632  0.00  0.00    +0.000 C 
BRANCH  10  11
ATOM     11  C   UNL     1      44.356   2.294   9.254  0.00  0.00    +0.000 C 
BRANCH  11  12
ATOM     12  C   UNL     1      45.574   2.276   8.378  0.00  0.00    +0.000 A 
ATOM     13  N   UNL     1      45.959   3.435   7.812  0.00  0.00    +0.000 NA
ATOM     14  C   UNL     1      47.058   3.392   7.036  0.00  0.00    +0.000 A 
ATOM     15  C   UNL     1      47.769   2.242   6.796  0.00  0.00    +0.000 A 
ATOM     16  C   UNL     1      47.287   1.109   7.406  0.00  0.00    +0.000 A 
ATOM     17  N   UNL     1      46.191   1.092   8.189  0.00  0.00    +0.000 NA
ENDBRANCH  11  12
ENDBRANCH  10  11
ENDBRANCH   8  10
ENDBRANCH   5   8
ENDBRANCH   1   2
BRANCH   1  20
ATOM     18  O   UNL     1      48.572   8.202  16.753  0.00  0.00    +0.000 OA
ATOM     19  C   UNL     1      48.809   7.063  16.382  0.00  0.00    +0.000 C 
ATOM     20  N   UNL     1      48.493   6.567  15.136  0.00  0.00    +0.000 N 
ATOM     21  H   UNL     1      48.904   5.688  14.863  0.00  0.00    +0.000 HD
BRANCH  19  22
ATOM     22  C   UNL     1      49.650   6.126  17.115  0.00  0.00    +0.000 A 
ATOM     23  C   UNL     1      50.866   6.485  17.663  0.00  0.00    +0.000 A 
ATOM     24  S   UNL     1      51.868   5.113  17.928  0.00  0.00    +0.000 S 
ATOM     25  C   UNL     1      50.636   4.045  17.430  0.00  0.00    +0.000 A 
ATOM     26  N   UNL     1      50.845   2.713  17.247  0.00  0.00    +0.000 NA
ATOM     27  C   UNL     1      49.786   2.052  16.905  0.00  0.00    +0.000 A 
ATOM     28  N   UNL     1      48.525   2.588  16.788  0.00  0.00    +0.000 N 
ATOM     29  C   UNL     1      48.261   3.920  16.991  0.00  0.00    +0.000 A 
ATOM     30  O   UNL     1      47.122   4.368  16.972  0.00  0.00    +0.000 OA
ATOM     31  C   UNL     1      49.448   4.714  17.231  0.00  0.00    +0.000 A 
ATOM     32  H   UNL     1      47.725   2.002  16.602  0.00  0.00    +0.000 HD
ENDBRANCH  19  22
ENDBRANCH   1  20
TORSDOF 7
ENDMDL
MODEL 3
REMARK VINA RESULT:    -7.482      1.581      2.204
REMARK INTER + INTRA:         -12.023
REMARK INTER:                 -10.913
REMARK INTRA:                  -1.110
REMARK UNBOUND:                -1.479
REMARK  Name = 
REMARK  7 active torsions:
REMARK  status: ('A' for Active; 'I' for Inactive)
REMARK    1  A    between atoms: C_2  and  C_20
REMARK    2  A    between atoms: N_3  and  C_4
REMARK    3  A    between atoms: C_4  and  C_5
REMARK    4  A    between atoms: C_8  and  N_9
REMARK    5  A    between atoms: N_9  and  C_10
REMARK    6  A    between atoms: C_10  and  C_11
REMARK    7  A    between atoms: C_11  and  C_12
REMARK                            x       y       z     vdW  Elec       q    Type
REMARK                         _______ _______ _______ _____ _____    ______ ____
ROOT
ATOM      1  C   UNL     1      48.713   6.915  13.553  0.00  0.00    +0.000 C 
ENDROOT
BRANCH   1   2
ATOM      2  C   UNL     1      47.520   6.171  13.005  0.00  0.00    +0.000 A 
ATOM      3  C   UNL     1      47.002   5.063  13.684  0.00  0.00    +0.000 A 
ATOM      4  C   UNL     1      45.890   4.374  13.183  0.00  0.00    +0.000 A 
ATOM      5  C   UNL     1      45.269   4.780  11.999  0.00  0.00    +0.000 A 
ATOM      6  C   UNL     1      45.858   5.817  11.269  0.00  0.00    +0.000 A 
ATOM      7  C   UNL     1      46.960   6.518  11.768  0.00  0.00    +0.000 A 
BRANCH   5   8
ATOM      8  N   UNL     1      44.149   4.147  11.447  0.00  0.00    +0.000 N 
ATOM      9  H   UNL     1      43.296   4.578  11.801  0.00  0.00    +0.000 HD
BRANCH   8  10
ATOM     10  C   UNL     1      44.111   3.985   9.985  0.00  0.00    +0.000 C 
BRANCH  10  11
ATOM     11  C   UNL     1      44.421   2.534   9.630  0.00  0.00    +0.000 C 
BRANCH  11  12
ATOM     12  C   UNL     1      45.473   2.467   8.562  0.00  0.00    +0.000 A 
ATOM     13  N   UNL     1      46.117   1.297   8.387  0.00  0.00    +0.000 NA
ATOM     14  C   UNL     1      47.051   1.262   7.419  0.00  0.00    +0.000 A 
ATOM     15  C   UNL     1      47.372   2.345   6.638  0.00  0.00    +0.000 A 
ATOM     16  C   UNL     1      46.670   3.496   6.904  0.00  0.00    +0.000 A 
ATOM     17  N   UNL     1      45.728   3.590   7.863  0.00  0.00    +0.000 NA
ENDBRANCH  11  12
ENDBRANCH  10  11
ENDBRANCH   8  10
ENDBRANCH   5   8
ENDBRANCH   1   2
BRANCH   1  20
ATOM     18  O   UNL     1      50.505   6.539  15.765  0.00  0.00    +0.000 OA
ATOM     19  C   UNL     1      49.362   6.926  15.943  0.00  0.00    +0.000 C 
ATOM     20  N   UNL     1      48.474   7.227  14.934  0.00  0.00    +0.000 N 
ATOM     21  H   UNL     1      47.504   7.346  15.182  0.00  0.00    +0.000 HD
BRANCH  19  22
ATOM     22  C   UNL     1      48.693   6.924  17.238  0.00  0.00    +0.000 A 
ATOM     23  C   UNL     1      48.241   8.078  17.847  0.00  0.00    +0.000 A 
ATOM     24  S   UNL     1      48.050   7.864  19.542  0.00  0.00    +0.000 S 
ATOM     25  C   UNL     1      48.445   6.208  19.435  0.00  0.00    +0.000 A 
ATOM     26  N   UNL     1      48.638   5.425  20.530  0.00  0.00    +0.000 NA
ATOM     27  C   UNL     1      48.894   4.186  20.257  0.00  0.00    +0.000 A 
ATOM     28  N   UNL     1      48.916   3.645  18.994  0.00  0.00    +0.000 N 
ATOM     29  C   UNL     1      48.699   4.390  17.861  0.00  0.00    +0.000 A 
ATOM     30  O   UNL     1      48.631   3.881  16.750  0.00  0.00    +0.000 OA
ATOM     31  C   UNL     1      48.555   5.807  18.122  0.00  0.00    +0.000 A 
ATOM     32  H   UNL     1      49.037   2.653  18.854  0.00  0.00    +0.000 HD
ENDBRANCH  19  22
ENDBRANCH   1  20
TORSDOF 7
ENDMDL
MODEL 4
REMARK VINA RESULT:    -7.164      2.374      3.070
REMARK INTER + INTRA:         -11.575
REMARK INTER:                 -10.530
REMARK INTRA:                  -1.045
REMARK UNBOUND:                -1.479
REMARK  Name = 
REMARK  7 active torsions:
REMARK  status: ('A' for Active; 'I' for Inactive)
REMARK    1  A    between atoms: C_2  and  C_20
REMARK    2  A    between atoms: N_3  and  C_4
REMARK    3  A    between atoms: C_4  and  C_5
REMARK    4  A    between atoms: C_8  and  N_9
REMARK    5  A    between atoms: N_9  and  C_10
REMARK    6  A    between atoms: C_10  and  C_11
REMARK    7  A    between atoms: C_11  and  C_12
REMARK                            x       y       z     vdW  Elec       q    Type
REMARK                         _______ _______ _______ _____ _____    ______ ____
ROOT
ATOM      1  C   UNL     1      47.533   4.365  15.342  0.00  0.00    +0.000 C 
ENDROOT
BRANCH   1   2
ATOM      2  C   UNL     1      46.819   4.606  14.034  0.00  0.00    +0.000 A 
ATOM      3  C   UNL     1      46.751   5.893  13.490  0.00  0.00    +0.000 A 
ATOM      4  C   UNL     1      46.097   6.121  12.273  0.00  0.00    +0.000 A 
ATOM      5  C   UNL     1      45.503   5.069  11.570  0.00  0.00    +0.000 A 
ATOM      6  C   UNL     1      45.478   3.807  12.172  0.00  0.00    +0.000 A 
ATOM      7  C   UNL     1      46.140   3.569  13.381  0.00  0.00    +0.000 A 
BRANCH   5   8
ATOM      8  N   UNL     1      44.844   5.221  10.344  0.00  0.00    +0.000 N 
ATOM      9  H   UNL     1      45.430   5.747   9.697  0.00  0.00    +0.000 HD
BRANCH   8  10
ATOM     10  C   UNL     1      44.289   4.011   9.717  0.00  0.00    +0.000 C 
BRANCH  10  11
ATOM     11  C   UNL     1      44.468   4.100   8.205  0.00  0.00    +0.000 C 
BRANCH  11  12
ATOM     12  C   UNL     1      45.575   3.194   7.751  0.00  0.00    +0.000 A 
ATOM     13  N   UNL     1      46.367   3.623   6.751  0.00  0.00    +0.000 NA
ATOM     14  C   UNL     1      47.356   2.794   6.367  0.00  0.00    +0.000 A 
ATOM     15  C   UNL     1      47.570   1.561   6.932  0.00  0.00    +0.000 A 
ATOM     16  C   UNL     1      46.699   1.208   7.934  0.00  0.00    +0.000 A 
ATOM     17  N   UNL     1      45.689   1.995   8.355  0.00  0.00    +0.000 NA
ENDBRANCH  11  12
ENDBRANCH  10  11
ENDBRANCH   8  10
ENDBRANCH   5   8
ENDBRANCH   1   2
BRANCH   1  20
ATOM     18  O   UNL     1      49.969   5.369  16.482  0.00  0.00    +0.000 OA
ATOM     19  C   UNL     1      48.921   5.983  16.601  0.00  0.00    +0.000 C 
ATOM     20  N   UNL     1      47.734   5.623  16.003  0.00  0.00    +0.000 N 
ATOM     21  H   UNL     1      46.892   6.077  16.321  0.00  0.00    +0.000 HD
BRANCH  19  22
ATOM     22  C   UNL     1      48.712   7.059  17.561  0.00  0.00    +0.000 A 
ATOM     23  C   UNL     1      49.281   8.309  17.418  0.00  0.00    +0.000 A 
ATOM     24  S   UNL     1      49.358   9.143  18.919  0.00  0.00    +0.000 S 
ATOM     25  C   UNL     1      48.521   7.893  19.722  0.00  0.00    +0.000 A 
ATOM     26  N   UNL     1      48.371   7.858  21.073  0.00  0.00    +0.000 NA
ATOM     27  C   UNL     1      47.675   6.854  21.503  0.00  0.00    +0.000 A 
ATOM     28  N   UNL     1      47.065   5.917  20.704  0.00  0.00    +0.000 N 
ATOM     29  C   UNL     1      47.166   5.929  19.334  0.00  0.00    +0.000 A 
ATOM     30  O   UNL     1      46.546   5.143  18.629  0.00  0.00    +0.000 OA
ATOM     31  C   UNL     1      48.057   6.952  18.830  0.00  0.00    +0.000 A 
ATOM     32  H   UNL     1      46.464   5.208  21.096  0.00  0.00    +0.000 HD
ENDBRANCH  19  22
ENDBRANCH   1  20
TORSDOF 7
ENDMDL
MODEL 5
REMARK VINA RESULT:    -7.072      1.870      2.672
REMARK INTER + INTRA:         -11.445
REMARK INTER:                 -10.432
REMARK INTRA:                  -1.013
REMARK UNBOUND:                -1.479
REMARK  Name = 
REMARK  7 active torsions:
REMARK  status: ('A' for Active; 'I' for Inactive)
REMARK    1  A    between atoms: C_2  and  C_20
REMARK    2  A    between atoms: N_3  and  C_4
REMARK    3  A    between atoms: C_4  and  C_5
REMARK    4  A    between atoms: C_8  and  N_9
REMARK    5  A    between atoms: N_9  and  C_10
REMARK    6  A    between atoms: C_10  and  C_11
REMARK    7  A    between atoms: C_11  and  C_12
REMARK                            x       y       z     vdW  Elec       q    Type
REMARK                         _______ _______ _______ _____ _____    ______ ____
ROOT
ATOM      1  C   UNL     1      47.455   8.124  13.525  0.00  0.00    +0.000 C 
ENDROOT
BRANCH   1   2
ATOM      2  C   UNL     1      46.451   7.241  12.826  0.00  0.00    +0.000 A 
ATOM      3  C   UNL     1      46.539   5.848  12.925  0.00  0.00    +0.000 A 
ATOM      4  C   UNL     1      45.605   5.025  12.284  0.00  0.00    +0.000 A 
ATOM      5  C   UNL     1      44.560   5.573  11.537  0.00  0.00    +0.000 A 
ATOM      6  C   UNL     1      44.541   6.959  11.350  0.00  0.00    +0.000 A 
ATOM      7  C   UNL     1      45.463   7.789  11.996  0.00  0.00    +0.000 A 
BRANCH   5   8
ATOM      8  N   UNL     1      43.585   4.813  10.881  0.00  0.00    +0.000 N 
ATOM      9  H   UNL     1      42.940   5.427  10.386  0.00  0.00    +0.000 HD
BRANCH   8  10
ATOM     10  C   UNL     1      44.045   3.705  10.029  0.00  0.00    +0.000 C 
BRANCH  10  11
ATOM     11  C   UNL     1      44.577   4.268   8.715  0.00  0.00    +0.000 C 
BRANCH  11  12
ATOM     12  C   UNL     1      45.569   3.323   8.101  0.00  0.00    +0.000 A 
ATOM     13  N   UNL     1      45.593   2.055   8.554  0.00  0.00    +0.000 NA
ATOM     14  C   UNL     1      46.487   1.228   7.983  0.00  0.00    +0.000 A 
ATOM     15  C   UNL     1      47.358   1.619   6.996  0.00  0.00    +0.000 A 
ATOM     16  C   UNL     1      47.265   2.936   6.614  0.00  0.00    +0.000 A 
ATOM     17  N   UNL     1      46.393   3.810   7.153  0.00  0.00    +0.000 NA
ENDBRANCH  11  12
ENDBRANCH  10  11
ENDBRANCH   8  10
ENDBRANCH   5   8
ENDBRANCH   1   2
BRANCH   1  20
ATOM     18  O   UNL     1      49.856   6.883  14.496  0.00  0.00    +0.000 OA
ATOM     19  C   UNL     1      48.854   6.940  15.190  0.00  0.00    +0.000 C 
ATOM     20  N   UNL     1      47.698   7.603  14.840  0.00  0.00    +0.000 N 
ATOM     21  H   UNL     1      46.871   7.425  15.388  0.00  0.00    +0.000 HD
BRANCH  19  22
ATOM     22  C   UNL     1      48.648   6.142  16.392  0.00  0.00    +0.000 A 
ATOM     23  C   UNL     1      48.226   4.827  16.352  0.00  0.00    +0.000 A 
ATOM     24  S   UNL     1      47.522   4.345  17.845  0.00  0.00    +0.000 S 
ATOM     25  C   UNL     1      47.896   5.842  18.571  0.00  0.00    +0.000 A 
ATOM     26  N   UNL     1      47.442   6.197  19.803  0.00  0.00    +0.000 NA
ATOM     27  C   UNL     1      47.858   7.354  20.208  0.00  0.00    +0.000 A 
ATOM     28  N   UNL     1      48.734   8.162  19.523  0.00  0.00    +0.000 N 
ATOM     29  C   UNL     1      49.240   7.833  18.290  0.00  0.00    +0.000 A 
ATOM     30  O   UNL     1      50.088   8.517  17.730  0.00  0.00    +0.000 OA
ATOM     31  C   UNL     1      48.682   6.614  17.743  0.00  0.00    +0.000 A 
ATOM     32  H   UNL     1      49.087   9.014  19.932  0.00  0.00    +0.000 HD
ENDBRANCH  19  22
ENDBRANCH   1  20
TORSDOF 7
ENDMDL
MODEL 6
REMARK VINA RESULT:    -7.061      3.090      7.900
REMARK INTER + INTRA:         -11.429
REMARK INTER:                 -10.476
REMARK INTRA:                  -0.953
REMARK UNBOUND:                -1.479
REMARK  Name = 
REMARK  7 active torsions:
REMARK  status: ('A' for Active; 'I' for Inactive)
REMARK    1  A    between atoms: C_2  and  C_20
REMARK    2  A    between atoms: N_3  and  C_4
REMARK    3  A    between atoms: C_4  and  C_5
REMARK    4  A    between atoms: C_8  and  N_9
REMARK    5  A    between atoms: N_9  and  C_10
REMARK    6  A    between atoms: C_10  and  C_11
REMARK    7  A    between atoms: C_11  and  C_12
REMARK                            x       y       z     vdW  Elec       q    Type
REMARK                         _______ _______ _______ _____ _____    ______ ____
ROOT
ATOM      1  C   UNL     1      47.926   6.682  12.633  0.00  0.00    +0.000 C 
ENDROOT
BRANCH   1   2
ATOM      2  C   UNL     1      47.987   6.109  14.027  0.00  0.00    +0.000 A 
ATOM      3  C   UNL     1      47.155   5.046  14.395  0.00  0.00    +0.000 A 
ATOM      4  C   UNL     1      47.214   4.506  15.686  0.00  0.00    +0.000 A 
ATOM      5  C   UNL     1      48.109   5.009  16.634  0.00  0.00    +0.000 A 
ATOM      6  C   UNL     1      48.858   6.141  16.296  0.00  0.00    +0.000 A 
ATOM      7  C   UNL     1      48.814   6.679  15.005  0.00  0.00    +0.000 A 
BRANCH   5   8
ATOM      8  N   UNL     1      48.230   4.512  17.937  0.00  0.00    +0.000 N 
ATOM      9  H   UNL     1      47.487   4.888  18.524  0.00  0.00    +0.000 HD
BRANCH   8  10
ATOM     10  C   UNL     1      48.368   3.056  18.098  0.00  0.00    +0.000 C 
BRANCH  10  11
ATOM     11  C   UNL     1      49.196   2.496  16.946  0.00  0.00    +0.000 C 
BRANCH  11  12
ATOM     12  C   UNL     1      50.629   2.331  17.359  0.00  0.00    +0.000 A 
ATOM     13  N   UNL     1      51.291   3.424  17.781  0.00  0.00    +0.000 NA
ATOM     14  C   UNL     1      52.573   3.247  18.151  0.00  0.00    +0.000 A 
ATOM     15  C   UNL     1      53.214   2.034  18.103  0.00  0.00    +0.000 A 
ATOM     16  C   UNL     1      52.457   0.982  17.644  0.00  0.00    +0.000 A 
ATOM     17  N   UNL     1      51.172   1.102  17.256  0.00  0.00    +0.000 NA
ENDBRANCH  11  12
ENDBRANCH  10  11
ENDBRANCH   8  10
ENDBRANCH   5   8
ENDBRANCH   1   2
BRANCH   1  20
ATOM     18  O   UNL     1      45.603   7.860  11.425  0.00  0.00    +0.000 OA
ATOM     19  C   UNL     1      45.761   6.650  11.432  0.00  0.00    +0.000 C 
ATOM     20  N   UNL     1      46.889   6.013  11.899  0.00  0.00    +0.000 N 
ATOM     21  H   UNL     1      46.840   5.017  12.043  0.00  0.00    +0.000 HD
BRANCH  19  22
ATOM     22  C   UNL     1      44.703   5.688  11.150  0.00  0.00    +0.000 A 
ATOM     23  C   UNL     1      43.586   5.551  11.951  0.00  0.00    +0.000 A 
ATOM     24  S   UNL     1      42.843   4.015  11.739  0.00  0.00    +0.000 S 
ATOM     25  C   UNL     1      43.933   3.595  10.497  0.00  0.00    +0.000 A 
ATOM     26  N   UNL     1      43.992   2.346   9.959  0.00  0.00    +0.000 NA
ATOM     27  C   UNL     1      44.854   2.222   9.001  0.00  0.00    +0.000 A 
ATOM     28  N   UNL     1      45.619   3.243   8.491  0.00  0.00    +0.000 N 
ATOM     29  C   UNL     1      45.574   4.524   8.983  0.00  0.00    +0.000 A 
ATOM     30  O   UNL     1      46.192   5.444   8.462  0.00  0.00    +0.000 OA
ATOM     31  C   UNL     1      44.728   4.665  10.150  0.00  0.00    +0.000 A 
ATOM     32  H   UNL     1      46.210   3.099   7.686  0.00  0.00    +0.000 HD
ENDBRANCH  19  22
ENDBRANCH   1  20
TORSDOF 7
ENDMDL
MODEL 7
REMARK VINA RESULT:    -7.037      2.016      2.528
REMARK INTER + INTRA:         -11.396
REMARK INTER:                 -10.201
REMARK INTRA:                  -1.195
REMARK UNBOUND:                -1.479
REMARK  Name = 
REMARK  7 active torsions:
REMARK  status: ('A' for Active; 'I' for Inactive)
REMARK    1  A    between atoms: C_2  and  C_20
REMARK    2  A    between atoms: N_3  and  C_4
REMARK    3  A    between atoms: C_4  and  C_5
REMARK    4  A    between atoms: C_8  and  N_9
REMARK    5  A    between atoms: N_9  and  C_10
REMARK    6  A    between atoms: C_10  and  C_11
REMARK    7  A    between atoms: C_11  and  C_12
REMARK                            x       y       z     vdW  Elec       q    Type
REMARK                         _______ _______ _______ _____ _____    ______ ____
ROOT
ATOM      1  C   UNL     1      49.117   7.513  15.075  0.00  0.00    +0.000 C 
ENDROOT
BRANCH   1   2
ATOM      2  C   UNL     1      48.229   7.014  13.961  0.00  0.00    +0.000 A 
ATOM      3  C   UNL     1      47.495   5.833  14.115  0.00  0.00    +0.000 A 
ATOM      4  C   UNL     1      46.664   5.370  13.087  0.00  0.00    +0.000 A 
ATOM      5  C   UNL     1      46.542   6.078  11.889  0.00  0.00    +0.000 A 
ATOM      6  C   UNL     1      47.361   7.195  11.699  0.00  0.00    +0.000 A 
ATOM      7  C   UNL     1      48.185   7.671  12.725  0.00  0.00    +0.000 A 
BRANCH   5   8
ATOM      8  N   UNL     1      45.723   5.681  10.826  0.00  0.00    +0.000 N 
ATOM      9  H   UNL     1      46.295   5.415  10.025  0.00  0.00    +0.000 HD
BRANCH   8  10
ATOM     10  C   UNL     1      44.680   4.682  11.106  0.00  0.00    +0.000 C 
BRANCH  10  11
ATOM     11  C   UNL     1      44.024   4.256   9.797  0.00  0.00    +0.000 C 
BRANCH  11  12
ATOM     12  C   UNL     1      45.016   3.559   8.913  0.00  0.00    +0.000 A 
ATOM     13  N   UNL     1      45.664   4.296   7.992  0.00  0.00    +0.000 NA
ATOM     14  C   UNL     1      46.552   3.648   7.216  0.00  0.00    +0.000 A 
ATOM     15  C   UNL     1      46.803   2.301   7.317  0.00  0.00    +0.000 A 
ATOM     16  C   UNL     1      46.080   1.634   8.276  0.00  0.00    +0.000 A 
ATOM     17  N   UNL     1      45.175   2.231   9.077  0.00  0.00    +0.000 NA
ENDBRANCH  11  12
ENDBRANCH  10  11
ENDBRANCH   8  10
ENDBRANCH   5   8
ENDBRANCH   1   2
BRANCH   1  20
ATOM     18  O   UNL     1      48.527   7.279  17.875  0.00  0.00    +0.000 OA
ATOM     19  C   UNL     1      49.192   6.431  17.301  0.00  0.00    +0.000 C 
ATOM     20  N   UNL     1      49.435   6.417  15.945  0.00  0.00    +0.000 N 
ATOM     21  H   UNL     1      50.151   5.795  15.603  0.00  0.00    +0.000 HD
BRANCH  19  22
ATOM     22  C   UNL     1      50.007   5.434  17.983  0.00  0.00    +0.000 A 
ATOM     23  C   UNL     1      51.029   5.769  18.849  0.00  0.00    +0.000 A 
ATOM     24  S   UNL     1      52.152   4.481  19.028  0.00  0.00    +0.000 S 
ATOM     25  C   UNL     1      51.208   3.445  18.056  0.00  0.00    +0.000 A 
ATOM     26  N   UNL     1      51.641   2.224  17.644  0.00  0.00    +0.000 NA
ATOM     27  C   UNL     1      50.775   1.562  16.945  0.00  0.00    +0.000 A 
ATOM     28  N   UNL     1      49.495   1.983  16.671  0.00  0.00    +0.000 N 
ATOM     29  C   UNL     1      49.005   3.196  17.091  0.00  0.00    +0.000 A 
ATOM     30  O   UNL     1      47.837   3.520  16.918  0.00  0.00    +0.000 OA
ATOM     31  C   UNL     1      49.995   4.022  17.749  0.00  0.00    +0.000 A 
ATOM     32  H   UNL     1      48.840   1.383  16.194  0.00  0.00    +0.000 HD
ENDBRANCH  19  22
ENDBRANCH   1  20
TORSDOF 7
ENDMDL
MODEL 8
REMARK VINA RESULT:    -6.818      1.823      2.106
REMARK INTER + INTRA:         -11.087
REMARK INTER:                 -10.143
REMARK INTRA:                  -0.945
REMARK UNBOUND:                -1.479
REMARK  Name = 
REMARK  7 active torsions:
REMARK  status: ('A' for Active; 'I' for Inactive)
REMARK    1  A    between atoms: C_2  and  C_20
REMARK    2  A    between atoms: N_3  and  C_4
REMARK    3  A    between atoms: C_4  and  C_5
REMARK    4  A    between atoms: C_8  and  N_9
REMARK    5  A    between atoms: N_9  and  C_10
REMARK    6  A    between atoms: C_10  and  C_11
REMARK    7  A    between atoms: C_11  and  C_12
REMARK                            x       y       z     vdW  Elec       q    Type
REMARK                         _______ _______ _______ _____ _____    ______ ____
ROOT
ATOM      1  C   UNL     1      46.976   9.114  13.187  0.00  0.00    +0.000 C 
ENDROOT
BRANCH   1   2
ATOM      2  C   UNL     1      46.321   7.834  12.730  0.00  0.00    +0.000 A 
ATOM      3  C   UNL     1      46.862   6.593  13.083  0.00  0.00    +0.000 A 
ATOM      4  C   UNL     1      46.253   5.403  12.668  0.00  0.00    +0.000 A 
ATOM      5  C   UNL     1      45.088   5.425  11.897  0.00  0.00    +0.000 A 
ATOM      6  C   UNL     1      44.614   6.664  11.455  0.00  0.00    +0.000 A 
ATOM      7  C   UNL     1      45.210   7.858  11.875  0.00  0.00    +0.000 A 
BRANCH   5   8
ATOM      8  N   UNL     1      44.419   4.276  11.457  0.00  0.00    +0.000 N 
ATOM      9  H   UNL     1      43.524   4.189  11.938  0.00  0.00    +0.000 HD
BRANCH   8  10
ATOM     10  C   UNL     1      44.278   4.085  10.005  0.00  0.00    +0.000 C 
BRANCH  10  11
ATOM     11  C   UNL     1      44.503   2.615   9.666  0.00  0.00    +0.000 C 
BRANCH  11  12
ATOM     12  C   UNL     1      45.490   2.479   8.544  0.00  0.00    +0.000 A 
ATOM     13  N   UNL     1      45.665   3.536   7.728  0.00  0.00    +0.000 NA
ATOM     14  C   UNL     1      46.560   3.389   6.734  0.00  0.00    +0.000 A 
ATOM     15  C   UNL     1      47.270   2.232   6.520  0.00  0.00    +0.000 A 
ATOM     16  C   UNL     1      47.009   1.207   7.397  0.00  0.00    +0.000 A 
ATOM     17  N   UNL     1      46.121   1.295   8.406  0.00  0.00    +0.000 NA
ENDBRANCH  11  12
ENDBRANCH  10  11
ENDBRANCH   8  10
ENDBRANCH   5   8
ENDBRANCH   1   2
BRANCH   1  20
ATOM     18  O   UNL     1      49.391   9.589  14.667  0.00  0.00    +0.000 OA
ATOM     19  C   UNL     1      48.373   9.218  15.230  0.00  0.00    +0.000 C 
ATOM     20  N   UNL     1      47.151   9.065  14.611  0.00  0.00    +0.000 N 
ATOM     21  H   UNL     1      46.430   8.570  15.112  0.00  0.00    +0.000 HD
BRANCH  19  22
ATOM     22  C   UNL     1      48.339   8.678  16.582  0.00  0.00    +0.000 A 
ATOM     23  C   UNL     1      47.750   9.345  17.639  0.00  0.00    +0.000 A 
ATOM     24  S   UNL     1      48.355   8.792  19.150  0.00  0.00    +0.000 S 
ATOM     25  C   UNL     1      49.298   7.587  18.397  0.00  0.00    +0.000 A 
ATOM     26  N   UNL     1      50.207   6.834  19.072  0.00  0.00    +0.000 NA
ATOM     27  C   UNL     1      50.803   5.943  18.345  0.00  0.00    +0.000 A 
ATOM     28  N   UNL     1      50.531   5.696  17.021  0.00  0.00    +0.000 N 
ATOM     29  C   UNL     1      49.602   6.411  16.306  0.00  0.00    +0.000 A 
ATOM     30  O   UNL     1      49.305   6.123  15.154  0.00  0.00    +0.000 OA
ATOM     31  C   UNL     1      49.023   7.510  17.049  0.00  0.00    +0.000 A 
ATOM     32  H   UNL     1      50.970   4.929  16.533  0.00  0.00    +0.000 HD
ENDBRANCH  19  22
ENDBRANCH   1  20
TORSDOF 7
ENDMDL
MODEL 9
REMARK VINA RESULT:    -6.578      3.038      7.537
REMARK INTER + INTRA:         -10.749
REMARK INTER:                  -9.024
REMARK INTRA:                  -1.725
REMARK UNBOUND:                -1.479
REMARK  Name = 
REMARK  7 active torsions:
REMARK  status: ('A' for Active; 'I' for Inactive)
REMARK    1  A    between atoms: C_2  and  C_20
REMARK    2  A    between atoms: N_3  and  C_4
REMARK    3  A    between atoms: C_4  and  C_5
REMARK    4  A    between atoms: C_8  and  N_9
REMARK    5  A    between atoms: N_9  and  C_10
REMARK    6  A    between atoms: C_10  and  C_11
REMARK    7  A    between atoms: C_11  and  C_12
REMARK                            x       y       z     vdW  Elec       q    Type
REMARK                         _______ _______ _______ _____ _____    ______ ____
ROOT
ATOM      1  C   UNL     1      47.115   8.539  12.357  0.00  0.00    +0.000 C 
ENDROOT
BRANCH   1   2
ATOM      2  C   UNL     1      47.717   7.990  13.628  0.00  0.00    +0.000 A 
ATOM      3  C   UNL     1      48.137   8.854  14.645  0.00  0.00    +0.000 A 
ATOM      4  C   UNL     1      48.689   8.349  15.829  0.00  0.00    +0.000 A 
ATOM      5  C   UNL     1      48.825   6.973  16.026  0.00  0.00    +0.000 A 
ATOM      6  C   UNL     1      48.506   6.120  14.964  0.00  0.00    +0.000 A 
ATOM      7  C   UNL     1      47.944   6.616  13.783  0.00  0.00    +0.000 A 
BRANCH   5   8
ATOM      8  N   UNL     1      49.355   6.398  17.188  0.00  0.00    +0.000 N 
ATOM      9  H   UNL     1      50.329   6.677  17.301  0.00  0.00    +0.000 HD
BRANCH   8  10
ATOM     10  C   UNL     1      48.593   6.559  18.436  0.00  0.00    +0.000 C 
BRANCH  10  11
ATOM     11  C   UNL     1      48.643   5.258  19.230  0.00  0.00    +0.000 C 
BRANCH  11  12
ATOM     12  C   UNL     1      49.217   4.152  18.393  0.00  0.00    +0.000 A 
ATOM     13  N   UNL     1      50.555   3.995  18.391  0.00  0.00    +0.000 NA
ATOM     14  C   UNL     1      51.043   2.993  17.637  0.00  0.00    +0.000 A 
ATOM     15  C   UNL     1      50.253   2.160  16.882  0.00  0.00    +0.000 A 
ATOM     16  C   UNL     1      48.903   2.412  16.939  0.00  0.00    +0.000 A 
ATOM     17  N   UNL     1      48.359   3.403  17.672  0.00  0.00    +0.000 NA
ENDBRANCH  11  12
ENDBRANCH  10  11
ENDBRANCH   8  10
ENDBRANCH   5   8
ENDBRANCH   1   2
BRANCH   1  20
ATOM     18  O   UNL     1      44.519   7.743  11.426  0.00  0.00    +0.000 OA
ATOM     19  C   UNL     1      45.510   7.082  11.160  0.00  0.00    +0.000 C 
ATOM     20  N   UNL     1      46.799   7.446  11.481  0.00  0.00    +0.000 N 
ATOM     21  H   UNL     1      47.519   6.746  11.396  0.00  0.00    +0.000 HD
BRANCH  19  22
ATOM     22  C   UNL     1      45.468   5.715  10.658  0.00  0.00    +0.000 A 
ATOM     23  C   UNL     1      45.812   5.384   9.362  0.00  0.00    +0.000 A 
ATOM     24  S   UNL     1      45.128   3.879   8.892  0.00  0.00    +0.000 S 
ATOM     25  C   UNL     1      44.487   3.618  10.451  0.00  0.00    +0.000 A 
ATOM     26  N   UNL     1      43.636   2.596  10.736  0.00  0.00    +0.000 NA
ATOM     27  C   UNL     1      43.282   2.532  11.979  0.00  0.00    +0.000 A 
ATOM     28  N   UNL     1      43.746   3.358  12.975  0.00  0.00    +0.000 N 
ATOM     29  C   UNL     1      44.627   4.385  12.740  0.00  0.00    +0.000 A 
ATOM     30  O   UNL     1      45.102   5.056  13.647  0.00  0.00    +0.000 OA
ATOM     31  C   UNL     1      44.929   4.576  11.337  0.00  0.00    +0.000 A 
ATOM     32  H   UNL     1      43.497   3.202  13.940  0.00  0.00    +0.000 HD
ENDBRANCH  19  22
ENDBRANCH   1  20
TORSDOF 7
ENDMDL
