MODEL 1
REMARK VINA RESULT:    -7.490      0.000      0.000
REMARK INTER + INTRA:         -10.559
REMARK INTER:                  -9.679
REMARK INTRA:                  -0.880
REMARK UNBOUND:                -0.880
REMARK  Name = 
REMARK  5 active torsions:
REMARK  status: ('A' for Active; 'I' for Inactive)
REMARK    1  A    between atoms: C_2  and  C_3
REMARK    2  A    between atoms: C_7  and  O_8
REMARK    3  A    between atoms: O_8  and  C_9
REMARK    4  A    between atoms: C_9  and  C_10
REMARK    5  A    between atoms: C_14  and  N_15
REMARK                            x       y       z     vdW  Elec       q    Type
REMARK                         _______ _______ _______ _____ _____    ______ ____
ROOT
ATOM      1  C   UNL     1      46.016   6.252  12.338  0.00  0.00    +0.000 C 
ATOM      2  C   UNL     1      45.808   7.538  11.538  0.00  0.00    +0.000 C 
ATOM      3  C   UNL     1      45.220   7.414  12.901  0.00  0.00    +0.000 C 
ENDROOT
BRANCH   1   4
ATOM      4  C   UNL     1      45.253   5.006  11.914  0.00  0.00    +0.000 A 
ATOM      5  C   UNL     1      44.260   4.464  12.743  0.00  0.00    +0.000 A 
ATOM      6  C   UNL     1      43.474   3.398  12.318  0.00  0.00    +0.000 A 
ATOM      7  C   UNL     1      43.660   2.868  11.042  0.00  0.00    +0.000 A 
ATOM      8  C   UNL     1      44.645   3.360  10.171  0.00  0.00    +0.000 A 
ATOM      9  C   UNL     1      45.458   4.394  10.655  0.00  0.00    +0.000 A 
BRANCH   8  10
ATOM     10  N   UNL     1      44.765   2.840   8.890  0.00  0.00    +0.000 N 
ATOM     11  C   UNL     1      45.062   1.430   8.635  0.00  0.00    +0.000 C 
ATOM     12  C   UNL     1      46.478   1.249   8.090  0.00  0.00    +0.000 C 
ATOM     13  C   UNL     1      46.738   2.165   6.895  0.00  0.00    +0.000 C 
ATOM     14  C   UNL     1      46.438   3.615   7.260  0.00  0.00    +0.000 C 
ATOM     15  C   UNL     1      45.009   3.771   7.782  0.00  0.00    +0.000 C 
ENDBRANCH   8  10
ENDBRANCH   1   4
BRANCH   1  16
ATOM     16  O   UNL     1      47.412   6.084  12.670  0.00  0.00    +0.000 OA
BRANCH  16  21
ATOM     17  C   UNL     1      47.699   4.846  16.053  0.00  0.00    +0.000 A 
ATOM     18  C   UNL     1      48.653   5.717  16.573  0.00  0.00    +0.000 A 
ATOM     19  C   UNL     1      49.115   6.734  15.759  0.00  0.00    +0.000 A 
ATOM     20  N   UNL     1      48.698   6.930  14.487  0.00  0.00    +0.000 NA
ATOM     21  C   UNL     1      47.783   6.062  14.005  0.00  0.00    +0.000 A 
ATOM     22  C   UNL     1      47.257   5.016  14.741  0.00  0.00    +0.000 A 
BRANCH  17  24
ATOM     23  N   UNL     1      46.787   2.895  17.490  0.00  0.00    +0.000 NA
ATOM     24  C   UNL     1      47.191   3.769  16.848  0.00  0.00    +0.000 C 
ENDBRANCH  17  24
ENDBRANCH  16  21
ENDBRANCH   1  16
TORSDOF 5
ENDMDL
MODEL 2
REMARK VINA RESULT:    -6.988      2.489      7.007
REMARK INTER + INTRA:          -9.911
REMARK INTER:                  -9.803
REMARK INTRA:                  -0.108
REMARK UNBOUND:                -0.880
REMARK  Name = 
REMARK  5 active torsions:
REMARK  status: ('A' for Active; 'I' for Inactive)
REMARK    1  A    between atoms: C_2  and  C_3
REMARK    2  A    between atoms: C_7  and  O_8
REMARK    3  A    between atoms: O_8  and  C_9
REMARK    4  A    between atoms: C_9  and  C_10
REMARK    5  A    between atoms: C_14  and  N_15
REMARK                            x       y       z     vdW  Elec       q    Type
REMARK                         _______ _______ _______ _____ _____    ______ ____
ROOT
ATOM      1  C   UNL     1      44.273   4.304  11.369  0.00  0.00    +0.000 C 
ATOM      2  C   UNL     1      44.804   3.148  12.214  0.00  0.00    +0.000 C 
ATOM      3  C   UNL     1      43.502   3.780  12.566  0.00  0.00    +0.000 C 
ENDROOT
BRANCH   1   4
ATOM      4  C   UNL     1      44.947   5.663  11.495  0.00  0.00    +0.000 A 
ATOM      5  C   UNL     1      44.192   6.842  11.411  0.00  0.00    +0.000 A 
ATOM      6  C   UNL     1      44.773   8.084  11.642  0.00  0.00    +0.000 A 
ATOM      7  C   UNL     1      46.124   8.162  11.983  0.00  0.00    +0.000 A 
ATOM      8  C   UNL     1      46.933   7.019  12.072  0.00  0.00    +0.000 A 
ATOM      9  C   UNL     1      46.328   5.790  11.774  0.00  0.00    +0.000 A 
BRANCH   8  10
ATOM     10  N   UNL     1      48.259   7.133  12.464  0.00  0.00    +0.000 N 
ATOM     11  C   UNL     1      48.670   7.133  13.868  0.00  0.00    +0.000 C 
ATOM     12  C   UNL     1      49.148   8.516  14.309  0.00  0.00    +0.000 C 
ATOM     13  C   UNL     1      50.201   9.074  13.353  0.00  0.00    +0.000 C 
ATOM     14  C   UNL     1      49.675   9.071  11.920  0.00  0.00    +0.000 C 
ATOM     15  C   UNL     1      49.226   7.672  11.499  0.00  0.00    +0.000 C 
ENDBRANCH   8  10
ENDBRANCH   1   4
BRANCH   1  16
ATOM     16  O   UNL     1      43.959   3.851  10.032  0.00  0.00    +0.000 OA
BRANCH  16  21
ATOM     17  C   UNL     1      46.240   1.895   8.026  0.00  0.00    +0.000 A 
ATOM     18  C   UNL     1      46.825   2.888   7.245  0.00  0.00    +0.000 A 
ATOM     19  C   UNL     1      46.458   4.200   7.483  0.00  0.00    +0.000 A 
ATOM     20  N   UNL     1      45.560   4.572   8.425  0.00  0.00    +0.000 NA
ATOM     21  C   UNL     1      44.999   3.586   9.156  0.00  0.00    +0.000 A 
ATOM     22  C   UNL     1      45.304   2.247   8.997  0.00  0.00    +0.000 A 
BRANCH  17  24
ATOM     23  N   UNL     1      46.845  -0.595   7.656  0.00  0.00    +0.000 NA
ATOM     24  C   UNL     1      46.576   0.518   7.818  0.00  0.00    +0.000 C 
ENDBRANCH  17  24
ENDBRANCH  16  21
ENDBRANCH   1  16
TORSDOF 5
ENDMDL
MODEL 3
REMARK VINA RESULT:    -6.891      2.779      4.866
REMARK INTER + INTRA:          -9.786
REMARK INTER:                  -8.746
REMARK INTRA:                  -1.039
REMARK UNBOUND:                -0.880
REMARK  Name = 
REMARK  5 active torsions:
REMARK  status: ('A' for Active; 'I' for Inactive)
REMARK    1  A    between atoms: C_2  and  C_3
REMARK    2  A    between atoms: C_7  and  O_8
REMARK    3  A    between atoms: O_8  and  C_9
REMARK    4  A    between atoms: C_9  and  C_10
REMARK    5  A    between atoms: C_14  and  N_15
REMARK                            x       y       z     vdW  Elec       q    Type
REMARK                         _______ _______ _______ _____ _____    ______ ____
ROOT
ATOM      1  C   UNL     1      46.263   6.911  12.501  0.00  0.00    +0.000 C 
ATOM      2  C   UNL     1      47.515   6.486  13.268  0.00  0.00    +0.000 C 
ATOM      3  C   UNL     1      47.626   6.879  11.835  0.00  0.00    +0.000 C 
ENDROOT
BRANCH   1   4
ATOM      4  C   UNL     1      45.255   5.840  12.112  0.00  0.00    +0.000 A 
ATOM      5  C   UNL     1      44.108   5.627  12.889  0.00  0.00    +0.000 A 
ATOM      6  C   UNL     1      43.121   4.735  12.482  0.00  0.00    +0.000 A 
ATOM      7  C   UNL     1      43.261   4.055  11.273  0.00  0.00    +0.000 A 
ATOM      8  C   UNL     1      44.390   4.218  10.457  0.00  0.00    +0.000 A 
ATOM      9  C   UNL     1      45.393   5.078  10.928  0.00  0.00    +0.000 A 
BRANCH   8  10
ATOM     10  N   UNL     1      44.470   3.562   9.237  0.00  0.00    +0.000 N 
ATOM     11  C   UNL     1      44.485   2.103   9.124  0.00  0.00    +0.000 C 
ATOM     12  C   UNL     1      45.861   1.591   8.699  0.00  0.00    +0.000 C 
ATOM     13  C   UNL     1      46.365   2.316   7.453  0.00  0.00    +0.000 C 
ATOM     14  C   UNL     1      46.350   3.826   7.671  0.00  0.00    +0.000 C 
ATOM     15  C   UNL     1      44.958   4.313   8.073  0.00  0.00    +0.000 C 
ENDBRANCH   8  10
ENDBRANCH   1   4
BRANCH   1  16
ATOM     16  O   UNL     1      45.733   8.143  13.041  0.00  0.00    +0.000 OA
BRANCH  16  21
ATOM     17  C   UNL     1      44.338  10.558  10.745  0.00  0.00    +0.000 A 
ATOM     18  C   UNL     1      45.305  11.560  10.793  0.00  0.00    +0.000 A 
ATOM     19  C   UNL     1      46.429  11.337  11.566  0.00  0.00    +0.000 A 
ATOM     20  N   UNL     1      46.642  10.208  12.281  0.00  0.00    +0.000 NA
ATOM     21  C   UNL     1      45.681   9.261  12.225  0.00  0.00    +0.000 A 
ATOM     22  C   UNL     1      44.525   9.387  11.478  0.00  0.00    +0.000 A 
BRANCH  17  24
ATOM     23  N   UNL     1      42.188  10.889   9.340  0.00  0.00    +0.000 NA
ATOM     24  C   UNL     1      43.149  10.737   9.967  0.00  0.00    +0.000 C 
ENDBRANCH  17  24
ENDBRANCH  16  21
ENDBRANCH   1  16
TORSDOF 5
ENDMDL
MODEL 4
REMARK VINA RESULT:    -6.786      1.179      1.872
REMARK INTER + INTRA:          -9.649
REMARK INTER:                  -8.819
REMARK INTRA:                  -0.830
REMARK UNBOUND:                -0.880
REMARK  Name = 
REMARK  5 active torsions:
REMARK  status: ('A' for Active; 'I' for Inactive)
REMARK    1  A    between atoms: C_2  and  C_3
REMARK    2  A    between atoms: C_7  and  O_8
REMARK    3  A    between atoms: O_8  and  C_9
REMARK    4  A    between atoms: C_9  and  C_10
REMARK    5  A    between atoms: C_14  and  N_15
REMARK                            x       y       z     vdW  Elec       q    Type
REMARK                         _______ _______ _______ _____ _____    ______ ____
ROOT
ATOM      1  C   UNL     1      46.274   6.636  12.546  0.00  0.00    +0.000 C 
ATOM      2  C   UNL     1      46.291   7.903  11.693  0.00  0.00    +0.000 C 
ATOM      3  C   UNL     1      45.686   7.938  13.054  0.00  0.00    +0.000 C 
ENDROOT
BRANCH   1   4
ATOM      4  C   UNL     1      45.311   5.521  12.166  0.00  0.00    +0.000 A 
ATOM      5  C   UNL     1      44.224   5.207  12.994  0.00  0.00    +0.000 A 
ATOM      6  C   UNL     1      43.270   4.273  12.602  0.00  0.00    +0.000 A 
ATOM      7  C   UNL     1      43.382   3.651  11.359  0.00  0.00    +0.000 A 
ATOM      8  C   UNL     1      44.452   3.915  10.491  0.00  0.00    +0.000 A 
ATOM      9  C   UNL     1      45.426   4.816  10.944  0.00  0.00    +0.000 A 
BRANCH   8  10
ATOM     10  N   UNL     1      44.501   3.315   9.242  0.00  0.00    +0.000 N 
ATOM     11  C   UNL     1      44.613   1.866   9.066  0.00  0.00    +0.000 C 
ATOM     12  C   UNL     1      45.992   1.474   8.538  0.00  0.00    +0.000 C 
ATOM     13  C   UNL     1      46.365   2.282   7.296  0.00  0.00    +0.000 C 
ATOM     14  C   UNL     1      46.255   3.777   7.579  0.00  0.00    +0.000 C 
ATOM     15  C   UNL     1      44.860   4.144   8.084  0.00  0.00    +0.000 C 
ENDBRANCH   8  10
ENDBRANCH   1   4
BRANCH   1  16
ATOM     16  O   UNL     1      47.620   6.245  12.899  0.00  0.00    +0.000 OA
BRANCH  16  21
ATOM     17  C   UNL     1      48.732   6.340  16.335  0.00  0.00    +0.000 A 
ATOM     18  C   UNL     1      48.179   5.160  16.825  0.00  0.00    +0.000 A 
ATOM     19  C   UNL     1      47.499   4.346  15.939  0.00  0.00    +0.000 A 
ATOM     20  N   UNL     1      47.334   4.632  14.627  0.00  0.00    +0.000 NA
ATOM     21  C   UNL     1      47.869   5.790  14.184  0.00  0.00    +0.000 A 
ATOM     22  C   UNL     1      48.570   6.667  14.990  0.00  0.00    +0.000 A 
BRANCH  17  24
ATOM     23  N   UNL     1      50.016   7.936  17.920  0.00  0.00    +0.000 NA
ATOM     24  C   UNL     1      49.441   7.226  17.210  0.00  0.00    +0.000 C 
ENDBRANCH  17  24
ENDBRANCH  16  21
ENDBRANCH   1  16
TORSDOF 5
ENDMDL
MODEL 5
REMARK VINA RESULT:    -6.305      2.170      3.821
REMARK INTER + INTRA:          -9.028
REMARK INTER:                  -7.880
REMARK INTRA:                  -1.148
REMARK UNBOUND:                -0.880
REMARK  Name = 
REMARK  5 active torsions:
REMARK  status: ('A' for Active; 'I' for Inactive)
REMARK    1  A    between atoms: C_2  and  C_3
REMARK    2  A    between atoms: C_7  and  O_8
REMARK    3  A    between atoms: O_8  and  C_9
REMARK    4  A    between atoms: C_9  and  C_10
REMARK    5  A    between atoms: C_14  and  N_15
REMARK                            x       y       z     vdW  Elec       q    Type
REMARK                         _______ _______ _______ _____ _____    ______ ____
ROOT
ATOM      1  C   UNL     1      48.839   7.700  12.639  0.00  0.00    +0.000 C 
ATOM      2  C   UNL     1      49.816   7.884  11.479  0.00  0.00    +0.000 C 
ATOM      3  C   UNL     1      49.740   8.918  12.549  0.00  0.00    +0.000 C 
ENDROOT
BRANCH   1   4
ATOM      4  C   UNL     1      47.354   7.893  12.372  0.00  0.00    +0.000 A 
ATOM      5  C   UNL     1      46.781   9.172  12.427  0.00  0.00    +0.000 A 
ATOM      6  C   UNL     1      45.453   9.378  12.070  0.00  0.00    +0.000 A 
ATOM      7  C   UNL     1      44.680   8.304  11.631  0.00  0.00    +0.000 A 
ATOM      8  C   UNL     1      45.193   7.000  11.564  0.00  0.00    +0.000 A 
ATOM      9  C   UNL     1      46.517   6.818  11.990  0.00  0.00    +0.000 A 
BRANCH   8  10
ATOM     10  N   UNL     1      44.408   5.966  11.074  0.00  0.00    +0.000 N 
ATOM     11  C   UNL     1      43.008   5.787  11.459  0.00  0.00    +0.000 C 
ATOM     12  C   UNL     1      42.829   4.565  12.358  0.00  0.00    +0.000 C 
ATOM     13  C   UNL     1      43.468   3.321  11.744  0.00  0.00    +0.000 C 
ATOM     14  C   UNL     1      44.933   3.585  11.409  0.00  0.00    +0.000 C 
ATOM     15  C   UNL     1      45.081   4.798  10.491  0.00  0.00    +0.000 C 
ENDBRANCH   8  10
ENDBRANCH   1   4
BRANCH   1  16
ATOM     16  O   UNL     1      49.217   6.560  13.443  0.00  0.00    +0.000 OA
BRANCH  16  21
ATOM     17  C   UNL     1      47.923   5.253  16.553  0.00  0.00    +0.000 A 
ATOM     18  C   UNL     1      48.361   6.223  17.451  0.00  0.00    +0.000 A 
ATOM     19  C   UNL     1      49.030   7.321  16.943  0.00  0.00    +0.000 A 
ATOM     20  N   UNL     1      49.289   7.504  15.627  0.00  0.00    +0.000 NA
ATOM     21  C   UNL     1      48.865   6.540  14.783  0.00  0.00    +0.000 A 
ATOM     22  C   UNL     1      48.183   5.409  15.192  0.00  0.00    +0.000 A 
BRANCH  17  24
ATOM     23  N   UNL     1      46.667   3.154  17.401  0.00  0.00    +0.000 NA
ATOM     24  C   UNL     1      47.231   4.090  17.024  0.00  0.00    +0.000 C 
ENDBRANCH  17  24
ENDBRANCH  16  21
ENDBRANCH   1  16
TORSDOF 5
ENDMDL
MODEL 6
REMARK VINA RESULT:    -6.246      2.282      6.953
REMARK INTER + INTRA:          -8.951
REMARK INTER:                  -9.146
REMARK INTRA:                   0.195
REMARK UNBOUND:                -0.880
REMARK  Name = 
REMARK  5 active torsions:
REMARK  status: ('A' for Active; 'I' for Inactive)
REMARK    1  A    between atoms: C_2  and  C_3
REMARK    2  A    between atoms: C_7  and  O_8
REMARK    3  A    between atoms: O_8  and  C_9
REMARK    4  A    between atoms: C_9  and  C_10
REMARK    5  A    between atoms: C_14  and  N_15
REMARK                            x       y       z     vdW  Elec       q    Type
REMARK                         _______ _______ _______ _____ _____    ______ ____
ROOT
ATOM      1  C   UNL     1      44.019   5.370  10.946  0.00  0.00    +0.000 C 
ATOM      2  C   UNL     1      42.699   4.674  11.272  0.00  0.00    +0.000 C 
ATOM      3  C   UNL     1      42.785   6.160  11.337  0.00  0.00    +0.000 C 
ENDROOT
BRANCH   1   4
ATOM      4  C   UNL     1      45.154   5.277  11.956  0.00  0.00    +0.000 A 
ATOM      5  C   UNL     1      45.469   4.052  12.562  0.00  0.00    +0.000 A 
ATOM      6  C   UNL     1      46.576   3.927  13.395  0.00  0.00    +0.000 A 
ATOM      7  C   UNL     1      47.400   5.030  13.618  0.00  0.00    +0.000 A 
ATOM      8  C   UNL     1      47.132   6.284  13.049  0.00  0.00    +0.000 A 
ATOM      9  C   UNL     1      45.974   6.388  12.264  0.00  0.00    +0.000 A 
BRANCH   8  10
ATOM     10  N   UNL     1      48.003   7.343  13.254  0.00  0.00    +0.000 N 
ATOM     11  C   UNL     1      47.544   8.682  13.628  0.00  0.00    +0.000 C 
ATOM     12  C   UNL     1      47.716   9.672  12.477  0.00  0.00    +0.000 C 
ATOM     13  C   UNL     1      49.137   9.636  11.918  0.00  0.00    +0.000 C 
ATOM     14  C   UNL     1      49.518   8.213  11.521  0.00  0.00    +0.000 C 
ATOM     15  C   UNL     1      49.358   7.248  12.696  0.00  0.00    +0.000 C 
ENDBRANCH   8  10
ENDBRANCH   1   4
BRANCH   1  16
ATOM     16  O   UNL     1      44.363   5.176   9.556  0.00  0.00    +0.000 OA
BRANCH  16  21
ATOM     17  C   UNL     1      46.308   2.585   7.956  0.00  0.00    +0.000 A 
ATOM     18  C   UNL     1      45.670   1.443   8.431  0.00  0.00    +0.000 A 
ATOM     19  C   UNL     1      44.556   1.609   9.233  0.00  0.00    +0.000 A 
ATOM     20  N   UNL     1      44.055   2.815   9.587  0.00  0.00    +0.000 NA
ATOM     21  C   UNL     1      44.704   3.904   9.123  0.00  0.00    +0.000 A 
ATOM     22  C   UNL     1      45.821   3.842   8.312  0.00  0.00    +0.000 A 
BRANCH  17  24
ATOM     23  N   UNL     1      48.408   2.379   6.454  0.00  0.00    +0.000 NA
ATOM     24  C   UNL     1      47.472   2.473   7.128  0.00  0.00    +0.000 C 
ENDBRANCH  17  24
ENDBRANCH  16  21
ENDBRANCH   1  16
TORSDOF 5
ENDMDL
MODEL 7
REMARK VINA RESULT:    -6.045      2.422      4.369
REMARK INTER + INTRA:          -8.691
REMARK INTER:                  -7.759
REMARK INTRA:                  -0.932
REMARK UNBOUND:                -0.880
REMARK  Name = 
REMARK  5 active torsions:
REMARK  status: ('A' for Active; 'I' for Inactive)
REMARK    1  A    between atoms: C_2  and  C_3
REMARK    2  A    between atoms: C_7  and  O_8
REMARK    3  A    between atoms: O_8  and  C_9
REMARK    4  A    between atoms: C_9  and  C_10
REMARK    5  A    between atoms: C_14  and  N_15
REMARK                            x       y       z     vdW  Elec       q    Type
REMARK                         _______ _______ _______ _____ _____    ______ ____
ROOT
ATOM      1  C   UNL     1      49.102   7.461  14.472  0.00  0.00    +0.000 C 
ATOM      2  C   UNL     1      50.253   8.077  13.679  0.00  0.00    +0.000 C 
ATOM      3  C   UNL     1      49.652   8.833  14.813  0.00  0.00    +0.000 C 
ENDROOT
BRANCH   1   4
ATOM      4  C   UNL     1      47.731   7.386  13.817  0.00  0.00    +0.000 A 
ATOM      5  C   UNL     1      46.929   8.532  13.714  0.00  0.00    +0.000 A 
ATOM      6  C   UNL     1      45.727   8.505  13.014  0.00  0.00    +0.000 A 
ATOM      7  C   UNL     1      45.318   7.328  12.387  0.00  0.00    +0.000 A 
ATOM      8  C   UNL     1      46.072   6.148  12.463  0.00  0.00    +0.000 A 
ATOM      9  C   UNL     1      47.247   6.195  13.227  0.00  0.00    +0.000 A 
BRANCH   8  10
ATOM     10  N   UNL     1      45.658   5.011  11.784  0.00  0.00    +0.000 N 
ATOM     11  C   UNL     1      45.036   5.065  10.460  0.00  0.00    +0.000 C 
ATOM     12  C   UNL     1      43.549   4.719  10.528  0.00  0.00    +0.000 C 
ATOM     13  C   UNL     1      43.316   3.405  11.271  0.00  0.00    +0.000 C 
ATOM     14  C   UNL     1      43.965   3.449  12.651  0.00  0.00    +0.000 C 
ATOM     15  C   UNL     1      45.455   3.776  12.552  0.00  0.00    +0.000 C 
ENDBRANCH   8  10
ENDBRANCH   1   4
BRANCH   1  16
ATOM     16  O   UNL     1      49.551   6.287  15.185  0.00  0.00    +0.000 OA
BRANCH  16  21
ATOM     17  C   UNL     1      47.934   6.505  18.409  0.00  0.00    +0.000 A 
ATOM     18  C   UNL     1      47.227   5.306  18.433  0.00  0.00    +0.000 A 
ATOM     19  C   UNL     1      47.384   4.440  17.366  0.00  0.00    +0.000 A 
ATOM     20  N   UNL     1      48.178   4.693  16.300  0.00  0.00    +0.000 NA
ATOM     21  C   UNL     1      48.840   5.870  16.299  0.00  0.00    +0.000 A 
ATOM     22  C   UNL     1      48.753   6.798  17.320  0.00  0.00    +0.000 A 
BRANCH  17  24
ATOM     23  N   UNL     1      47.704   8.205  20.349  0.00  0.00    +0.000 NA
ATOM     24  C   UNL     1      47.804   7.444  19.483  0.00  0.00    +0.000 C 
ENDBRANCH  17  24
ENDBRANCH  16  21
ENDBRANCH   1  16
TORSDOF 5
ENDMDL
MODEL 8
REMARK VINA RESULT:    -5.935      2.079      7.400
REMARK INTER + INTRA:          -8.550
REMARK INTER:                  -7.672
REMARK INTRA:                  -0.878
REMARK UNBOUND:                -0.880
REMARK  Name = 
REMARK  5 active torsions:
REMARK  status: ('A' for Active; 'I' for Inactive)
REMARK    1  A    between atoms: C_2  and  C_3
REMARK    2  A    between atoms: C_7  and  O_8
REMARK    3  A    between atoms: O_8  and  C_9
REMARK    4  A    between atoms: C_9  and  C_10
REMARK    5  A    between atoms: C_14  and  N_15
REMARK                            x       y       z     vdW  Elec       q    Type
REMARK                         _______ _______ _______ _____ _____    ______ ____
ROOT
ATOM      1  C   UNL     1      48.160   7.612  13.059  0.00  0.00    +0.000 C 
ATOM      2  C   UNL     1      49.097   8.376  12.125  0.00  0.00    +0.000 C 
ATOM      3  C   UNL     1      49.191   6.892  12.212  0.00  0.00    +0.000 C 
ENDROOT
BRANCH   1   4
ATOM      4  C   UNL     1      48.406   7.698  14.559  0.00  0.00    +0.000 A 
ATOM      5  C   UNL     1      48.338   8.933  15.221  0.00  0.00    +0.000 A 
ATOM      6  C   UNL     1      48.443   9.010  16.605  0.00  0.00    +0.000 A 
ATOM      7  C   UNL     1      48.598   7.844  17.354  0.00  0.00    +0.000 A 
ATOM      8  C   UNL     1      48.683   6.581  16.748  0.00  0.00    +0.000 A 
ATOM      9  C   UNL     1      48.635   6.546  15.347  0.00  0.00    +0.000 A 
BRANCH   8  10
ATOM     10  N   UNL     1      48.786   5.439  17.529  0.00  0.00    +0.000 N 
ATOM     11  C   UNL     1      50.052   4.995  18.115  0.00  0.00    +0.000 C 
ATOM     12  C   UNL     1      50.569   3.730  17.430  0.00  0.00    +0.000 C 
ATOM     13  C   UNL     1      49.495   2.645  17.376  0.00  0.00    +0.000 C 
ATOM     14  C   UNL     1      48.226   3.183  16.720  0.00  0.00    +0.000 C 
ATOM     15  C   UNL     1      47.719   4.434  17.437  0.00  0.00    +0.000 C 
ENDBRANCH   8  10
ENDBRANCH   1   4
BRANCH   1  16
ATOM     16  O   UNL     1      46.791   7.733  12.613  0.00  0.00    +0.000 OA
BRANCH  16  21
ATOM     17  C   UNL     1      45.403   5.034  10.652  0.00  0.00    +0.000 A 
ATOM     18  C   UNL     1      44.946   4.185  11.657  0.00  0.00    +0.000 A 
ATOM     19  C   UNL     1      45.077   4.603  12.968  0.00  0.00    +0.000 A 
ATOM     20  N   UNL     1      45.627   5.784  13.331  0.00  0.00    +0.000 NA
ATOM     21  C   UNL     1      46.074   6.580  12.337  0.00  0.00    +0.000 A 
ATOM     22  C   UNL     1      45.983   6.254  10.996  0.00  0.00    +0.000 A 
BRANCH  17  24
ATOM     23  N   UNL     1      45.211   4.341   8.165  0.00  0.00    +0.000 NA
ATOM     24  C   UNL     1      45.300   4.650   9.276  0.00  0.00    +0.000 C 
ENDBRANCH  17  24
ENDBRANCH  16  21
ENDBRANCH   1  16
TORSDOF 5
ENDMDL
MODEL 9
REMARK VINA RESULT:    -5.681      2.600      4.488
REMARK INTER + INTRA:          -8.222
REMARK INTER:                  -7.394
REMARK INTRA:                  -0.827
REMARK UNBOUND:                -0.880
REMARK  Name = 
REMARK  5 active torsions:
REMARK  status: ('A' for Active; 'I' for Inactive)
REMARK    1  A    between atoms: C_2  and  C_3
REMARK    2  A    between atoms: C_7  and  O_8
REMARK    3  A    between atoms: O_8  and  C_9
REMARK    4  A    between atoms: C_9  and  C_10
REMARK    5  A    between atoms: C_14  and  N_15
REMARK                            x       y       z     vdW  Elec       q    Type
REMARK                         _______ _______ _______ _____ _____    ______ ____
ROOT
ATOM      1  C   UNL     1      49.098   7.719  12.875  0.00  0.00    +0.000 C 
ATOM      2  C   UNL     1      49.828   7.684  11.534  0.00  0.00    +0.000 C 
ATOM      3  C   UNL     1      49.744   8.962  12.294  0.00  0.00    +0.000 C 
ENDROOT
BRANCH   1   4
ATOM      4  C   UNL     1      47.578   7.639  12.874  0.00  0.00    +0.000 A 
ATOM      5  C   UNL     1      46.807   8.781  12.613  0.00  0.00    +0.000 A 
ATOM      6  C   UNL     1      45.423   8.699  12.491  0.00  0.00    +0.000 A 
ATOM      7  C   UNL     1      44.791   7.461  12.611  0.00  0.00    +0.000 A 
ATOM      8  C   UNL     1      45.508   6.286  12.883  0.00  0.00    +0.000 A 
ATOM      9  C   UNL     1      46.893   6.416  13.059  0.00  0.00    +0.000 A 
BRANCH   8  10
ATOM     10  N   UNL     1      44.849   5.067  12.945  0.00  0.00    +0.000 N 
ATOM     11  C   UNL     1      45.505   3.799  12.621  0.00  0.00    +0.000 C 
ATOM     12  C   UNL     1      44.984   3.223  11.304  0.00  0.00    +0.000 C 
ATOM     13  C   UNL     1      43.458   3.156  11.289  0.00  0.00    +0.000 C 
ATOM     14  C   UNL     1      42.861   4.525  11.600  0.00  0.00    +0.000 C 
ATOM     15  C   UNL     1      43.381   5.067  12.931  0.00  0.00    +0.000 C 
ENDBRANCH   8  10
ENDBRANCH   1   4
BRANCH   1  16
ATOM     16  O   UNL     1      49.795   6.913  13.852  0.00  0.00    +0.000 OA
BRANCH  16  21
ATOM     17  C   UNL     1      48.632   8.453  16.907  0.00  0.00    +0.000 A 
ATOM     18  C   UNL     1      48.405   7.331  17.700  0.00  0.00    +0.000 A 
ATOM     19  C   UNL     1      48.721   6.092  17.174  0.00  0.00    +0.000 A 
ATOM     20  N   UNL     1      49.231   5.907  15.935  0.00  0.00    +0.000 NA
ATOM     21  C   UNL     1      49.426   7.011  15.184  0.00  0.00    +0.000 A 
ATOM     22  C   UNL     1      49.147   8.293  15.621  0.00  0.00    +0.000 A 
BRANCH  17  24
ATOM     23  N   UNL     1      48.055  10.819  17.787  0.00  0.00    +0.000 NA
ATOM     24  C   UNL     1      48.315   9.762  17.396  0.00  0.00    +0.000 C 
ENDBRANCH  17  24
ENDBRANCH  16  21
ENDBRANCH   1  16
TORSDOF 5
ENDMDL
