MODEL 1
REMARK VINA RESULT:    -8.149      0.000      0.000
REMARK INTER + INTRA:         -11.153
REMARK INTER:                 -10.531
REMARK INTRA:                  -0.622
REMARK UNBOUND:                -0.622
REMARK  Name = 
REMARK  5 active torsions:
REMARK  status: ('A' for Active; 'I' for Inactive)
REMARK    1  A    between atoms: C_2  and  C_4
REMARK    2  A    between atoms: C_7  and  O_8
REMARK    3  A    between atoms: O_8  and  C_9
REMARK    4  A    between atoms: C_9  and  C_10
REMARK    5  A    between atoms: C_14  and  C_15
REMARK                            x       y       z     vdW  Elec       q    Type
REMARK                         _______ _______ _______ _____ _____    ______ ____
ROOT
ATOM      1  C   UNL     1      43.756   4.370  11.275  0.00  0.00    +0.000 C 
ENDROOT
BRANCH   1   2
ATOM      2  C   UNL     1      44.851   5.244  11.849  0.00  0.00    +0.000 A 
ATOM      3  C   UNL     1      45.063   6.535  11.359  0.00  0.00    +0.000 A 
ATOM      4  C   UNL     1      46.046   7.349  11.924  0.00  0.00    +0.000 A 
ATOM      5  C   UNL     1      46.804   6.891  13.000  0.00  0.00    +0.000 A 
ATOM      6  C   UNL     1      46.593   5.611  13.548  0.00  0.00    +0.000 A 
ATOM      7  C   UNL     1      45.622   4.794  12.933  0.00  0.00    +0.000 A 
BRANCH   6   8
ATOM      8  C   UNL     1      47.331   5.160  14.745  0.00  0.00    +0.000 A 
ATOM      9  C   UNL     1      47.037   3.956  15.398  0.00  0.00    +0.000 A 
ATOM     10  C   UNL     1      47.742   3.574  16.538  0.00  0.00    +0.000 A 
ATOM     11  C   UNL     1      48.738   4.409  17.005  0.00  0.00    +0.000 A 
ATOM     12  N   UNL     1      49.063   5.580  16.423  0.00  0.00    +0.000 NA
ATOM     13  C   UNL     1      48.352   5.924  15.320  0.00  0.00    +0.000 A 
ENDBRANCH   6   8
ENDBRANCH   1   2
BRANCH   1  14
ATOM     14  O   UNL     1      43.685   4.638   9.874  0.00  0.00    +0.000 OA
BRANCH  14  18
ATOM     15  C   UNL     1      46.418   2.491   7.773  0.00  0.00    +0.000 A 
ATOM     16  C   UNL     1      46.346   3.870   7.616  0.00  0.00    +0.000 A 
ATOM     17  N   UNL     1      45.451   4.643   8.293  0.00  0.00    +0.000 NA
ATOM     18  C   UNL     1      44.635   3.970   9.134  0.00  0.00    +0.000 A 
ATOM     19  C   UNL     1      44.709   2.587   9.290  0.00  0.00    +0.000 A 
ATOM     20  N   UNL     1      45.595   1.807   8.616  0.00  0.00    +0.000 NA
BRANCH  15  22
ATOM     21  N   UNL     1      48.465   2.408   6.465  0.00  0.00    +0.000 N 
ATOM     22  C   UNL     1      47.419   1.709   6.997  0.00  0.00    +0.000 C 
ATOM     23  O   UNL     1      47.321   0.494   6.855  0.00  0.00    +0.000 OA
ATOM     24  H   UNL     1      49.198   1.901   5.985  0.00  0.00    +0.000 HD
ATOM     25  H   UNL     1      48.589   3.392   6.679  0.00  0.00    +0.000 HD
ENDBRANCH  15  22
ENDBRANCH  14  18
ENDBRANCH   1  14
TORSDOF 5
ENDMDL
MODEL 2
REMARK VINA RESULT:    -8.120      2.227      3.765
REMARK INTER + INTRA:         -11.117
REMARK INTER:                 -10.378
REMARK INTRA:                  -0.739
REMARK UNBOUND:                -0.622
REMARK  Name = 
REMARK  5 active torsions:
REMARK  status: ('A' for Active; 'I' for Inactive)
REMARK    1  A    between atoms: C_2  and  C_4
REMARK    2  A    between atoms: C_7  and  O_8
REMARK    3  A    between atoms: O_8  and  C_9
REMARK    4  A    between atoms: C_9  and  C_10
REMARK    5  A    between atoms: C_14  and  C_15
REMARK                            x       y       z     vdW  Elec       q    Type
REMARK                         _______ _______ _______ _____ _____    ______ ____
ROOT
ATOM      1  C   UNL     1      43.532   4.196  11.116  0.00  0.00    +0.000 C 
ENDROOT
BRANCH   1   2
ATOM      2  C   UNL     1      44.616   4.924  11.882  0.00  0.00    +0.000 A 
ATOM      3  C   UNL     1      45.531   4.219  12.668  0.00  0.00    +0.000 A 
ATOM      4  C   UNL     1      46.553   4.895  13.336  0.00  0.00    +0.000 A 
ATOM      5  C   UNL     1      46.686   6.276  13.201  0.00  0.00    +0.000 A 
ATOM      6  C   UNL     1      45.808   7.017  12.387  0.00  0.00    +0.000 A 
ATOM      7  C   UNL     1      44.761   6.315  11.755  0.00  0.00    +0.000 A 
BRANCH   6   8
ATOM      8  C   UNL     1      46.004   8.464  12.170  0.00  0.00    +0.000 A 
ATOM      9  C   UNL     1      47.264   9.072  12.258  0.00  0.00    +0.000 A 
ATOM     10  C   UNL     1      47.407  10.446  12.067  0.00  0.00    +0.000 A 
ATOM     11  C   UNL     1      46.278  11.190  11.788  0.00  0.00    +0.000 A 
ATOM     12  N   UNL     1      45.042  10.664  11.696  0.00  0.00    +0.000 NA
ATOM     13  C   UNL     1      44.938   9.326  11.893  0.00  0.00    +0.000 A 
ENDBRANCH   6   8
ENDBRANCH   1   2
BRANCH   1  14
ATOM     14  O   UNL     1      43.625   4.607   9.751  0.00  0.00    +0.000 OA
BRANCH  14  18
ATOM     15  C   UNL     1      46.417   2.467   7.722  0.00  0.00    +0.000 A 
ATOM     16  C   UNL     1      46.363   3.848   7.584  0.00  0.00    +0.000 A 
ATOM     17  N   UNL     1      45.449   4.620   8.238  0.00  0.00    +0.000 NA
ATOM     18  C   UNL     1      44.596   3.941   9.037  0.00  0.00    +0.000 A 
ATOM     19  C   UNL     1      44.652   2.555   9.174  0.00  0.00    +0.000 A 
ATOM     20  N   UNL     1      45.557   1.777   8.523  0.00  0.00    +0.000 NA
BRANCH  15  22
ATOM     21  N   UNL     1      48.503   2.387   6.478  0.00  0.00    +0.000 N 
ATOM     22  C   UNL     1      47.440   1.687   6.973  0.00  0.00    +0.000 C 
ATOM     23  O   UNL     1      47.344   0.473   6.820  0.00  0.00    +0.000 OA
ATOM     24  H   UNL     1      49.250   1.882   6.017  0.00  0.00    +0.000 HD
ATOM     25  H   UNL     1      48.622   3.369   6.702  0.00  0.00    +0.000 HD
ENDBRANCH  15  22
ENDBRANCH  14  18
ENDBRANCH   1  14
TORSDOF 5
ENDMDL
MODEL 3
REMARK VINA RESULT:    -7.888      1.822      2.685
REMARK INTER + INTRA:         -10.816
REMARK INTER:                 -10.204
REMARK INTRA:                  -0.612
REMARK UNBOUND:                -0.622
REMARK  Name = 
REMARK  5 active torsions:
REMARK  status: ('A' for Active; 'I' for Inactive)
REMARK    1  A    between atoms: C_2  and  C_4
REMARK    2  A    between atoms: C_7  and  O_8
REMARK    3  A    between atoms: O_8  and  C_9
REMARK    4  A    between atoms: C_9  and  C_10
REMARK    5  A    between atoms: C_14  and  C_15
REMARK                            x       y       z     vdW  Elec       q    Type
REMARK                         _______ _______ _______ _____ _____    ______ ____
ROOT
ATOM      1  C   UNL     1      44.170   3.369  11.479  0.00  0.00    +0.000 C 
ENDROOT
BRANCH   1   2
ATOM      2  C   UNL     1      44.528   4.838  11.549  0.00  0.00    +0.000 A 
ATOM      3  C   UNL     1      43.564   5.819  11.308  0.00  0.00    +0.000 A 
ATOM      4  C   UNL     1      43.892   7.171  11.417  0.00  0.00    +0.000 A 
ATOM      5  C   UNL     1      45.179   7.552  11.796  0.00  0.00    +0.000 A 
ATOM      6  C   UNL     1      46.168   6.593  12.086  0.00  0.00    +0.000 A 
ATOM      7  C   UNL     1      45.820   5.235  11.929  0.00  0.00    +0.000 A 
BRANCH   6   8
ATOM      8  C   UNL     1      47.502   6.993  12.577  0.00  0.00    +0.000 A 
ATOM      9  C   UNL     1      48.340   7.851  11.853  0.00  0.00    +0.000 A 
ATOM     10  C   UNL     1      49.602   8.191  12.339  0.00  0.00    +0.000 A 
ATOM     11  C   UNL     1      50.003   7.663  13.551  0.00  0.00    +0.000 A 
ATOM     12  N   UNL     1      49.244   6.831  14.288  0.00  0.00    +0.000 NA
ATOM     13  C   UNL     1      48.025   6.516  13.783  0.00  0.00    +0.000 A 
ENDBRANCH   6   8
ENDBRANCH   1   2
BRANCH   1  14
ATOM     14  O   UNL     1      43.652   3.117  10.171  0.00  0.00    +0.000 OA
BRANCH  14  18
ATOM     15  C   UNL     1      46.499   2.572   7.328  0.00  0.00    +0.000 A 
ATOM     16  C   UNL     1      46.183   1.540   8.203  0.00  0.00    +0.000 A 
ATOM     17  N   UNL     1      45.238   1.663   9.177  0.00  0.00    +0.000 NA
ATOM     18  C   UNL     1      44.625   2.866   9.229  0.00  0.00    +0.000 A 
ATOM     19  C   UNL     1      44.943   3.900   8.350  0.00  0.00    +0.000 A 
ATOM     20  N   UNL     1      45.887   3.788   7.378  0.00  0.00    +0.000 NA
BRANCH  15  22
ATOM     21  N   UNL     1      47.424   3.099   5.143  0.00  0.00    +0.000 N 
ATOM     22  C   UNL     1      47.547   2.368   6.290  0.00  0.00    +0.000 C 
ATOM     23  O   UNL     1      48.484   1.594   6.460  0.00  0.00    +0.000 OA
ATOM     24  H   UNL     1      48.151   3.034   4.441  0.00  0.00    +0.000 HD
ATOM     25  H   UNL     1      46.705   3.810   5.060  0.00  0.00    +0.000 HD
ENDBRANCH  15  22
ENDBRANCH  14  18
ENDBRANCH   1  14
TORSDOF 5
ENDMDL
MODEL 4
REMARK VINA RESULT:    -7.599      2.766      4.961
REMARK INTER + INTRA:         -10.443
REMARK INTER:                  -9.762
REMARK INTRA:                  -0.681
REMARK UNBOUND:                -0.622
REMARK  Name = 
REMARK  5 active torsions:
REMARK  status: ('A' for Active; 'I' for Inactive)
REMARK    1  A    between atoms: C_2  and  C_4
REMARK    2  A    between atoms: C_7  and  O_8
REMARK    3  A    between atoms: O_8  and  C_9
REMARK    4  A    between atoms: C_9  and  C_10
REMARK    5  A    between atoms: C_14  and  C_15
REMARK                            x       y       z     vdW  Elec       q    Type
REMARK                         _______ _______ _______ _____ _____    ______ ____
ROOT
ATOM      1  C   UNL     1      44.591   4.682  11.476  0.00  0.00    +0.000 C 
ENDROOT
BRANCH   1   2
ATOM      2  C   UNL     1      45.188   6.033  11.805  0.00  0.00    +0.000 A 
ATOM      3  C   UNL     1      46.468   6.133  12.357  0.00  0.00    +0.000 A 
ATOM      4  C   UNL     1      47.027   7.384  12.618  0.00  0.00    +0.000 A 
ATOM      5  C   UNL     1      46.325   8.547  12.301  0.00  0.00    +0.000 A 
ATOM      6  C   UNL     1      45.050   8.489  11.707  0.00  0.00    +0.000 A 
ATOM      7  C   UNL     1      44.492   7.211  11.492  0.00  0.00    +0.000 A 
BRANCH   6   8
ATOM      8  C   UNL     1      44.345   9.717  11.287  0.00  0.00    +0.000 A 
ATOM      9  C   UNL     1      44.892  10.994  11.468  0.00  0.00    +0.000 A 
ATOM     10  C   UNL     1      44.188  12.132  11.078  0.00  0.00    +0.000 A 
ATOM     11  C   UNL     1      42.941  11.968  10.507  0.00  0.00    +0.000 A 
ATOM     12  N   UNL     1      42.362  10.768  10.311  0.00  0.00    +0.000 NA
ATOM     13  C   UNL     1      43.072   9.683  10.709  0.00  0.00    +0.000 A 
ENDBRANCH   6   8
ENDBRANCH   1   2
BRANCH   1  14
ATOM     14  O   UNL     1      44.160   4.726  10.115  0.00  0.00    +0.000 OA
BRANCH  14  18
ATOM     15  C   UNL     1      46.499   2.483   7.668  0.00  0.00    +0.000 A 
ATOM     16  C   UNL     1      46.437   3.861   7.501  0.00  0.00    +0.000 A 
ATOM     17  N   UNL     1      45.671   4.666   8.290  0.00  0.00    +0.000 NA
ATOM     18  C   UNL     1      44.973   4.024   9.253  0.00  0.00    +0.000 A 
ATOM     19  C   UNL     1      45.036   2.642   9.419  0.00  0.00    +0.000 A 
ATOM     20  N   UNL     1      45.795   1.831   8.635  0.00  0.00    +0.000 NA
BRANCH  15  22
ATOM     21  N   UNL     1      48.393   2.309   6.155  0.00  0.00    +0.000 N 
ATOM     22  C   UNL     1      47.355   1.665   6.765  0.00  0.00    +0.000 C 
ATOM     23  O   UNL     1      47.151   0.468   6.589  0.00  0.00    +0.000 OA
ATOM     24  H   UNL     1      49.034   1.773   5.583  0.00  0.00    +0.000 HD
ATOM     25  H   UNL     1      48.612   3.271   6.391  0.00  0.00    +0.000 HD
ENDBRANCH  15  22
ENDBRANCH  14  18
ENDBRANCH   1  14
TORSDOF 5
ENDMDL
MODEL 5
REMARK VINA RESULT:    -7.315      2.698      7.483
REMARK INTER + INTRA:         -10.075
REMARK INTER:                  -9.692
REMARK INTRA:                  -0.384
REMARK UNBOUND:                -0.622
REMARK  Name = 
REMARK  5 active torsions:
REMARK  status: ('A' for Active; 'I' for Inactive)
REMARK    1  A    between atoms: C_2  and  C_4
REMARK    2  A    between atoms: C_7  and  O_8
REMARK    3  A    between atoms: O_8  and  C_9
REMARK    4  A    between atoms: C_9  and  C_10
REMARK    5  A    between atoms: C_14  and  C_15
REMARK                            x       y       z     vdW  Elec       q    Type
REMARK                         _______ _______ _______ _____ _____    ______ ____
ROOT
ATOM      1  C   UNL     1      46.029   7.021  12.587  0.00  0.00    +0.000 C 
ENDROOT
BRANCH   1   2
ATOM      2  C   UNL     1      45.165   6.101  11.751  0.00  0.00    +0.000 A 
ATOM      3  C   UNL     1      43.772   6.142  11.853  0.00  0.00    +0.000 A 
ATOM      4  C   UNL     1      42.983   5.320  11.047  0.00  0.00    +0.000 A 
ATOM      5  C   UNL     1      43.578   4.472  10.113  0.00  0.00    +0.000 A 
ATOM      6  C   UNL     1      44.976   4.432   9.952  0.00  0.00    +0.000 A 
ATOM      7  C   UNL     1      45.751   5.242  10.807  0.00  0.00    +0.000 A 
BRANCH   6   8
ATOM      8  C   UNL     1      45.601   3.604   8.902  0.00  0.00    +0.000 A 
ATOM      9  C   UNL     1      46.188   4.161   7.758  0.00  0.00    +0.000 A 
ATOM     10  C   UNL     1      46.750   3.346   6.776  0.00  0.00    +0.000 A 
ATOM     11  C   UNL     1      46.717   1.978   6.962  0.00  0.00    +0.000 A 
ATOM     12  N   UNL     1      46.164   1.385   8.037  0.00  0.00    +0.000 NA
ATOM     13  C   UNL     1      45.620   2.207   8.969  0.00  0.00    +0.000 A 
ENDBRANCH   6   8
ENDBRANCH   1   2
BRANCH   1  14
ATOM     14  O   UNL     1      47.303   6.392  12.738  0.00  0.00    +0.000 OA
BRANCH  14  18
ATOM     15  C   UNL     1      47.676   4.430  16.273  0.00  0.00    +0.000 A 
ATOM     16  C   UNL     1      48.426   5.574  16.030  0.00  0.00    +0.000 A 
ATOM     17  N   UNL     1      48.344   6.275  14.864  0.00  0.00    +0.000 NA
ATOM     18  C   UNL     1      47.475   5.775  13.957  0.00  0.00    +0.000 A 
ATOM     19  C   UNL     1      46.724   4.628  14.203  0.00  0.00    +0.000 A 
ATOM     20  N   UNL     1      46.802   3.920  15.362  0.00  0.00    +0.000 NA
BRANCH  15  22
ATOM     21  N   UNL     1      46.930   2.706  17.816  0.00  0.00    +0.000 N 
ATOM     22  C   UNL     1      47.821   3.712  17.570  0.00  0.00    +0.000 C 
ATOM     23  O   UNL     1      48.704   3.997  18.372  0.00  0.00    +0.000 OA
ATOM     24  H   UNL     1      47.036   2.154  18.658  0.00  0.00    +0.000 HD
ATOM     25  H   UNL     1      46.274   2.413  17.100  0.00  0.00    +0.000 HD
ENDBRANCH  15  22
ENDBRANCH  14  18
ENDBRANCH   1  14
TORSDOF 5
ENDMDL
MODEL 6
REMARK VINA RESULT:    -7.123      2.749      7.823
REMARK INTER + INTRA:          -9.828
REMARK INTER:                  -9.311
REMARK INTRA:                  -0.517
REMARK UNBOUND:                -0.622
REMARK  Name = 
REMARK  5 active torsions:
REMARK  status: ('A' for Active; 'I' for Inactive)
REMARK    1  A    between atoms: C_2  and  C_4
REMARK    2  A    between atoms: C_7  and  O_8
REMARK    3  A    between atoms: O_8  and  C_9
REMARK    4  A    between atoms: C_9  and  C_10
REMARK    5  A    between atoms: C_14  and  C_15
REMARK                            x       y       z     vdW  Elec       q    Type
REMARK                         _______ _______ _______ _____ _____    ______ ____
ROOT
ATOM      1  C   UNL     1      45.172   5.832  12.983  0.00  0.00    +0.000 C 
ENDROOT
BRANCH   1   2
ATOM      2  C   UNL     1      44.747   4.634  12.160  0.00  0.00    +0.000 A 
ATOM      3  C   UNL     1      43.652   3.857  12.546  0.00  0.00    +0.000 A 
ATOM      4  C   UNL     1      43.241   2.780  11.759  0.00  0.00    +0.000 A 
ATOM      5  C   UNL     1      43.902   2.490  10.565  0.00  0.00    +0.000 A 
ATOM      6  C   UNL     1      44.984   3.275  10.122  0.00  0.00    +0.000 A 
ATOM      7  C   UNL     1      45.404   4.332  10.957  0.00  0.00    +0.000 A 
BRANCH   6   8
ATOM      8  C   UNL     1      45.624   3.026   8.815  0.00  0.00    +0.000 A 
ATOM      9  C   UNL     1      46.056   1.753   8.422  0.00  0.00    +0.000 A 
ATOM     10  C   UNL     1      46.675   1.560   7.188  0.00  0.00    +0.000 A 
ATOM     11  C   UNL     1      46.849   2.654   6.363  0.00  0.00    +0.000 A 
ATOM     12  N   UNL     1      46.459   3.901   6.687  0.00  0.00    +0.000 NA
ATOM     13  C   UNL     1      45.866   4.054   7.898  0.00  0.00    +0.000 A 
ENDBRANCH   6   8
ENDBRANCH   1   2
BRANCH   1  14
ATOM     14  O   UNL     1      46.600   5.830  13.034  0.00  0.00    +0.000 OA
BRANCH  14  18
ATOM     15  C   UNL     1      48.233   4.741  16.589  0.00  0.00    +0.000 A 
ATOM     16  C   UNL     1      47.189   4.001  16.046  0.00  0.00    +0.000 A 
ATOM     17  N   UNL     1      46.601   4.317  14.859  0.00  0.00    +0.000 NA
ATOM     18  C   UNL     1      47.110   5.406  14.241  0.00  0.00    +0.000 A 
ATOM     19  C   UNL     1      48.157   6.146  14.786  0.00  0.00    +0.000 A 
ATOM     20  N   UNL     1      48.748   5.841  15.972  0.00  0.00    +0.000 NA
BRANCH  15  22
ATOM     21  N   UNL     1      48.122   3.431  18.633  0.00  0.00    +0.000 N 
ATOM     22  C   UNL     1      48.825   4.339  17.894  0.00  0.00    +0.000 C 
ATOM     23  O   UNL     1      49.899   4.787  18.282  0.00  0.00    +0.000 OA
ATOM     24  H   UNL     1      48.523   3.087  19.497  0.00  0.00    +0.000 HD
ATOM     25  H   UNL     1      47.290   2.991  18.253  0.00  0.00    +0.000 HD
ENDBRANCH  15  22
ENDBRANCH  14  18
ENDBRANCH   1  14
TORSDOF 5
ENDMDL
MODEL 7
REMARK VINA RESULT:    -6.845      2.630      7.392
REMARK INTER + INTRA:          -9.468
REMARK INTER:                  -8.974
REMARK INTRA:                  -0.494
REMARK UNBOUND:                -0.622
REMARK  Name = 
REMARK  5 active torsions:
REMARK  status: ('A' for Active; 'I' for Inactive)
REMARK    1  A    between atoms: C_2  and  C_4
REMARK    2  A    between atoms: C_7  and  O_8
REMARK    3  A    between atoms: O_8  and  C_9
REMARK    4  A    between atoms: C_9  and  C_10
REMARK    5  A    between atoms: C_14  and  C_15
REMARK                            x       y       z     vdW  Elec       q    Type
REMARK                         _______ _______ _______ _____ _____    ______ ____
ROOT
ATOM      1  C   UNL     1      44.458   6.491  11.713  0.00  0.00    +0.000 C 
ENDROOT
BRANCH   1   2
ATOM      2  C   UNL     1      44.334   5.058  11.241  0.00  0.00    +0.000 A 
ATOM      3  C   UNL     1      43.414   4.189  11.833  0.00  0.00    +0.000 A 
ATOM      4  C   UNL     1      43.276   2.883  11.362  0.00  0.00    +0.000 A 
ATOM      5  C   UNL     1      44.034   2.444  10.278  0.00  0.00    +0.000 A 
ATOM      6  C   UNL     1      44.942   3.301   9.628  0.00  0.00    +0.000 A 
ATOM      7  C   UNL     1      45.091   4.603  10.150  0.00  0.00    +0.000 A 
BRANCH   6   8
ATOM      8  C   UNL     1      45.677   2.866   8.423  0.00  0.00    +0.000 A 
ATOM      9  C   UNL     1      46.233   1.586   8.306  0.00  0.00    +0.000 A 
ATOM     10  C   UNL     1      46.938   1.218   7.161  0.00  0.00    +0.000 A 
ATOM     11  C   UNL     1      47.071   2.145   6.146  0.00  0.00    +0.000 A 
ATOM     12  N   UNL     1      46.563   3.391   6.203  0.00  0.00    +0.000 NA
ATOM     13  C   UNL     1      45.889   3.718   7.334  0.00  0.00    +0.000 A 
ENDBRANCH   6   8
ENDBRANCH   1   2
BRANCH   1  14
ATOM     14  O   UNL     1      45.743   6.965  11.305  0.00  0.00    +0.000 OA
BRANCH  14  18
ATOM     15  C   UNL     1      48.428   7.086  14.350  0.00  0.00    +0.000 A 
ATOM     16  C   UNL     1      47.884   8.264  13.854  0.00  0.00    +0.000 A 
ATOM     17  N   UNL     1      46.980   8.288  12.835  0.00  0.00    +0.000 NA
ATOM     18  C   UNL     1      46.646   7.075  12.339  0.00  0.00    +0.000 A 
ATOM     19  C   UNL     1      47.192   5.894  12.838  0.00  0.00    +0.000 A 
ATOM     20  N   UNL     1      48.098   5.861  13.852  0.00  0.00    +0.000 NA
BRANCH  15  22
ATOM     21  N   UNL     1      49.740   8.374  15.939  0.00  0.00    +0.000 N 
ATOM     22  C   UNL     1      49.415   7.136  15.463  0.00  0.00    +0.000 C 
ATOM     23  O   UNL     1      49.901   6.117  15.943  0.00  0.00    +0.000 OA
ATOM     24  H   UNL     1      50.359   8.445  16.736  0.00  0.00    +0.000 HD
ATOM     25  H   UNL     1      49.252   9.199  15.604  0.00  0.00    +0.000 HD
ENDBRANCH  15  22
ENDBRANCH  14  18
ENDBRANCH   1  14
TORSDOF 5
ENDMDL
MODEL 8
REMARK VINA RESULT:    -6.599      4.049      7.812
REMARK INTER + INTRA:          -9.151
REMARK INTER:                  -8.467
REMARK INTRA:                  -0.683
REMARK UNBOUND:                -0.622
REMARK  Name = 
REMARK  5 active torsions:
REMARK  status: ('A' for Active; 'I' for Inactive)
REMARK    1  A    between atoms: C_2  and  C_4
REMARK    2  A    between atoms: C_7  and  O_8
REMARK    3  A    between atoms: O_8  and  C_9
REMARK    4  A    between atoms: C_9  and  C_10
REMARK    5  A    between atoms: C_14  and  C_15
REMARK                            x       y       z     vdW  Elec       q    Type
REMARK                         _______ _______ _______ _____ _____    ______ ____
ROOT
ATOM      1  C   UNL     1      48.662   6.392  15.837  0.00  0.00    +0.000 C 
ENDROOT
BRANCH   1   2
ATOM      2  C   UNL     1      48.139   6.517  14.422  0.00  0.00    +0.000 A 
ATOM      3  C   UNL     1      48.787   7.332  13.491  0.00  0.00    +0.000 A 
ATOM      4  C   UNL     1      48.323   7.408  12.177  0.00  0.00    +0.000 A 
ATOM      5  C   UNL     1      47.225   6.648  11.776  0.00  0.00    +0.000 A 
ATOM      6  C   UNL     1      46.569   5.784  12.674  0.00  0.00    +0.000 A 
ATOM      7  C   UNL     1      47.034   5.757  14.005  0.00  0.00    +0.000 A 
BRANCH   6   8
ATOM      8  C   UNL     1      45.467   4.910  12.226  0.00  0.00    +0.000 A 
ATOM      9  C   UNL     1      45.105   4.789  10.878  0.00  0.00    +0.000 A 
ATOM     10  C   UNL     1      44.044   3.970  10.496  0.00  0.00    +0.000 A 
ATOM     11  C   UNL     1      43.361   3.279  11.478  0.00  0.00    +0.000 A 
ATOM     12  N   UNL     1      43.660   3.358  12.789  0.00  0.00    +0.000 NA
ATOM     13  C   UNL     1      44.693   4.169  13.126  0.00  0.00    +0.000 A 
ENDBRANCH   6   8
ENDBRANCH   1   2
BRANCH   1  14
ATOM     14  O   UNL     1      48.100   5.204  16.396  0.00  0.00    +0.000 OA
BRANCH  14  18
ATOM     15  C   UNL     1      50.981   2.517  17.385  0.00  0.00    +0.000 A 
ATOM     16  C   UNL     1      49.785   2.082  16.827  0.00  0.00    +0.000 A 
ATOM     17  N   UNL     1      48.782   2.935  16.475  0.00  0.00    +0.000 NA
ATOM     18  C   UNL     1      49.036   4.242  16.707  0.00  0.00    +0.000 A 
ATOM     19  C   UNL     1      50.236   4.677  17.267  0.00  0.00    +0.000 A 
ATOM     20  N   UNL     1      51.241   3.833  17.625  0.00  0.00    +0.000 NA
BRANCH  15  22
ATOM     21  N   UNL     1      51.604   0.276  18.088  0.00  0.00    +0.000 N 
ATOM     22  C   UNL     1      52.032   1.528  17.750  0.00  0.00    +0.000 C 
ATOM     23  O   UNL     1      53.225   1.815  17.732  0.00  0.00    +0.000 OA
ATOM     24  H   UNL     1      52.293  -0.441  18.281  0.00  0.00    +0.000 HD
ATOM     25  H   UNL     1      50.626   0.024  17.997  0.00  0.00    +0.000 HD
ENDBRANCH  15  22
ENDBRANCH  14  18
ENDBRANCH   1  14
TORSDOF 5
ENDMDL
MODEL 9
REMARK VINA RESULT:    -6.588      3.281      8.316
REMARK INTER + INTRA:          -9.136
REMARK INTER:                  -8.527
REMARK INTRA:                  -0.610
REMARK UNBOUND:                -0.622
REMARK  Name = 
REMARK  5 active torsions:
REMARK  status: ('A' for Active; 'I' for Inactive)
REMARK    1  A    between atoms: C_2  and  C_4
REMARK    2  A    between atoms: C_7  and  O_8
REMARK    3  A    between atoms: O_8  and  C_9
REMARK    4  A    between atoms: C_9  and  C_10
REMARK    5  A    between atoms: C_14  and  C_15
REMARK                            x       y       z     vdW  Elec       q    Type
REMARK                         _______ _______ _______ _____ _____    ______ ____
ROOT
ATOM      1  C   UNL     1      48.206   7.137  13.979  0.00  0.00    +0.000 C 
ENDROOT
BRANCH   1   2
ATOM      2  C   UNL     1      46.985   7.222  13.089  0.00  0.00    +0.000 A 
ATOM      3  C   UNL     1      46.274   8.419  12.966  0.00  0.00    +0.000 A 
ATOM      4  C   UNL     1      45.175   8.500  12.110  0.00  0.00    +0.000 A 
ATOM      5  C   UNL     1      44.796   7.395  11.347  0.00  0.00    +0.000 A 
ATOM      6  C   UNL     1      45.512   6.185  11.413  0.00  0.00    +0.000 A 
ATOM      7  C   UNL     1      46.593   6.118  12.316  0.00  0.00    +0.000 A 
BRANCH   6   8
ATOM      8  C   UNL     1      45.168   5.046  10.538  0.00  0.00    +0.000 A 
ATOM      9  C   UNL     1      45.591   4.970   9.204  0.00  0.00    +0.000 A 
ATOM     10  C   UNL     1      45.229   3.888   8.403  0.00  0.00    +0.000 A 
ATOM     11  C   UNL     1      44.448   2.893   8.957  0.00  0.00    +0.000 A 
ATOM     12  N   UNL     1      44.008   2.913  10.230  0.00  0.00    +0.000 NA
ATOM     13  C   UNL     1      44.372   3.983  10.979  0.00  0.00    +0.000 A 
ENDBRANCH   6   8
ENDBRANCH   1   2
BRANCH   1  14
ATOM     14  O   UNL     1      48.306   5.788  14.439  0.00  0.00    +0.000 OA
BRANCH  14  18
ATOM     15  C   UNL     1      48.277   5.264  18.466  0.00  0.00    +0.000 A 
ATOM     16  C   UNL     1      48.888   6.383  17.914  0.00  0.00    +0.000 A 
ATOM     17  N   UNL     1      48.930   6.613  16.572  0.00  0.00    +0.000 NA
ATOM     18  C   UNL     1      48.330   5.671  15.811  0.00  0.00    +0.000 A 
ATOM     19  C   UNL     1      47.718   4.549  16.367  0.00  0.00    +0.000 A 
ATOM     20  N   UNL     1      47.674   4.309  17.704  0.00  0.00    +0.000 NA
BRANCH  15  22
ATOM     21  N   UNL     1      48.541   3.816  20.400  0.00  0.00    +0.000 N 
ATOM     22  C   UNL     1      48.273   5.074  19.943  0.00  0.00    +0.000 C 
ATOM     23  O   UNL     1      48.057   6.004  20.713  0.00  0.00    +0.000 OA
ATOM     24  H   UNL     1      48.609   3.662  21.398  0.00  0.00    +0.000 HD
ATOM     25  H   UNL     1      48.822   3.083  19.757  0.00  0.00    +0.000 HD
ENDBRANCH  15  22
ENDBRANCH  14  18
ENDBRANCH   1  14
TORSDOF 5
ENDMDL
