MODEL 1
REMARK VINA RESULT:    -8.525      0.000      0.000
REMARK INTER + INTRA:         -11.564
REMARK INTER:                 -11.017
REMARK INTRA:                  -0.547
REMARK UNBOUND:                -0.547
REMARK  Name = 
REMARK  6 active torsions:
REMARK  status: ('A' for Active; 'I' for Inactive)
REMARK    1  A    between atoms: C_1  and  C_2
REMARK    2  A    between atoms: C_6  and  C_7
REMARK    3  A    between atoms: C_7  and  C_8
REMARK    4  A    between atoms: C_11  and  C_12
REMARK    5  A    between atoms: C_12  and  N_13
REMARK    6  A    between atoms: C_14  and  C_16
REMARK                            x       y       z     vdW  Elec       q    Type
REMARK                         _______ _______ _______ _____ _____    ______ ____
ROOT
ATOM      1  C   UNL     1      46.448   7.799  12.976  0.00  0.00    +0.000 C 
ENDROOT
BRANCH   1   5
ATOM      2  C   UNL     1      44.822   4.594  10.564  0.00  0.00    +0.000 A 
ATOM      3  C   UNL     1      45.812   5.442  10.046  0.00  0.00    +0.000 A 
ATOM      4  C   UNL     1      46.326   6.490  10.815  0.00  0.00    +0.000 A 
ATOM      5  C   UNL     1      45.855   6.715  12.115  0.00  0.00    +0.000 A 
ATOM      6  C   UNL     1      44.814   5.914  12.603  0.00  0.00    +0.000 A 
ATOM      7  C   UNL     1      44.311   4.856  11.841  0.00  0.00    +0.000 A 
BRANCH   2   8
ATOM      8  C   UNL     1      44.349   3.391   9.777  0.00  0.00    +0.000 C 
BRANCH   8  14
ATOM      9  C   UNL     1      46.843  -0.276   7.743  0.00  0.00    +0.000 C 
ATOM     10  C   UNL     1      46.457   1.171   7.693  0.00  0.00    +0.000 A 
ATOM     11  C   UNL     1      46.919   1.994   6.672  0.00  0.00    +0.000 A 
ATOM     12  C   UNL     1      46.556   3.335   6.683  0.00  0.00    +0.000 A 
ATOM     13  C   UNL     1      45.738   3.812   7.700  0.00  0.00    +0.000 A 
ATOM     14  C   UNL     1      45.299   2.933   8.688  0.00  0.00    +0.000 A 
ATOM     15  N   UNL     1      45.652   1.621   8.688  0.00  0.00    +0.000 NA
ENDBRANCH   8  14
ENDBRANCH   2   8
ENDBRANCH   1   5
BRANCH   1  16
ATOM     16  N   UNL     1      47.030   7.263  14.178  0.00  0.00    +0.000 N 
ATOM     17  C   UNL     1      48.340   6.857  14.205  0.00  0.00    +0.000 C 
ATOM     18  O   UNL     1      49.081   6.982  13.234  0.00  0.00    +0.000 OA
ATOM     19  H   UNL     1      46.389   6.938  14.896  0.00  0.00    +0.000 HD
BRANCH  17  20
ATOM     20  C   UNL     1      48.833   6.317  15.478  0.00  0.00    +0.000 A 
ATOM     21  C   UNL     1      49.910   6.924  16.110  0.00  0.00    +0.000 A 
ATOM     22  S   UNL     1      50.338   6.190  17.589  0.00  0.00    +0.000 S 
ATOM     23  C   UNL     1      49.127   5.007  17.416  0.00  0.00    +0.000 A 
ATOM     24  N   UNL     1      48.970   4.025  18.343  0.00  0.00    +0.000 NA
ATOM     25  C   UNL     1      48.033   3.179  18.071  0.00  0.00    +0.000 A 
ATOM     26  N   UNL     1      47.232   3.232  16.959  0.00  0.00    +0.000 N 
ATOM     27  C   UNL     1      47.337   4.220  16.010  0.00  0.00    +0.000 A 
ATOM     28  O   UNL     1      46.573   4.263  15.049  0.00  0.00    +0.000 OA
ATOM     29  C   UNL     1      48.389   5.184  16.256  0.00  0.00    +0.000 A 
ATOM     30  H   UNL     1      46.504   2.548  16.813  0.00  0.00    +0.000 HD
ENDBRANCH  17  20
ENDBRANCH   1  16
TORSDOF 5
ENDMDL
MODEL 2
REMARK VINA RESULT:    -8.382      1.170      1.743
REMARK INTER + INTRA:         -11.379
REMARK INTER:                 -10.415
REMARK INTRA:                  -0.964
REMARK UNBOUND:                -0.547
REMARK  Name = 
REMARK  6 active torsions:
REMARK  status: ('A' for Active; 'I' for Inactive)
REMARK    1  A    between atoms: C_1  and  C_2
REMARK    2  A    between atoms: C_6  and  C_7
REMARK    3  A    between atoms: C_7  and  C_8
REMARK    4  A    between atoms: C_11  and  C_12
REMARK    5  A    between atoms: C_12  and  N_13
REMARK    6  A    between atoms: C_14  and  C_16
REMARK                            x       y       z     vdW  Elec       q    Type
REMARK                         _______ _______ _______ _____ _____    ______ ____
ROOT
ATOM      1  C   UNL     1      47.326   8.342  13.581  0.00  0.00    +0.000 C 
ENDROOT
BRANCH   1   5
ATOM      2  C   UNL     1      44.775   5.991  10.994  0.00  0.00    +0.000 A 
ATOM      3  C   UNL     1      46.034   5.509  11.378  0.00  0.00    +0.000 A 
ATOM      4  C   UNL     1      46.869   6.274  12.199  0.00  0.00    +0.000 A 
ATOM      5  C   UNL     1      46.464   7.538  12.643  0.00  0.00    +0.000 A 
ATOM      6  C   UNL     1      45.238   8.049  12.197  0.00  0.00    +0.000 A 
ATOM      7  C   UNL     1      44.395   7.278  11.391  0.00  0.00    +0.000 A 
BRANCH   2   8
ATOM      8  C   UNL     1      43.824   5.118  10.204  0.00  0.00    +0.000 C 
BRANCH   8  14
ATOM      9  C   UNL     1      46.771   3.804   6.543  0.00  0.00    +0.000 C 
ATOM     10  C   UNL     1      45.930   3.373   7.706  0.00  0.00    +0.000 A 
ATOM     11  C   UNL     1      45.832   2.030   8.052  0.00  0.00    +0.000 A 
ATOM     12  C   UNL     1      45.019   1.675   9.121  0.00  0.00    +0.000 A 
ATOM     13  C   UNL     1      44.339   2.666   9.819  0.00  0.00    +0.000 A 
ATOM     14  C   UNL     1      44.489   3.996   9.429  0.00  0.00    +0.000 A 
ATOM     15  N   UNL     1      45.278   4.352   8.382  0.00  0.00    +0.000 NA
ENDBRANCH   8  14
ENDBRANCH   2   8
ENDBRANCH   1   5
BRANCH   1  16
ATOM     16  N   UNL     1      47.653   7.601  14.770  0.00  0.00    +0.000 N 
ATOM     17  C   UNL     1      48.861   6.964  14.892  0.00  0.00    +0.000 C 
ATOM     18  O   UNL     1      49.730   7.042  14.028  0.00  0.00    +0.000 OA
ATOM     19  H   UNL     1      46.881   7.332  15.372  0.00  0.00    +0.000 HD
BRANCH  17  20
ATOM     20  C   UNL     1      49.091   6.227  16.141  0.00  0.00    +0.000 A 
ATOM     21  C   UNL     1      50.093   6.642  17.009  0.00  0.00    +0.000 A 
ATOM     22  S   UNL     1      50.209   5.696  18.423  0.00  0.00    +0.000 S 
ATOM     23  C   UNL     1      48.953   4.671  17.906  0.00  0.00    +0.000 A 
ATOM     24  N   UNL     1      48.566   3.606  18.657  0.00  0.00    +0.000 NA
ATOM     25  C   UNL     1      47.622   2.898  18.132  0.00  0.00    +0.000 A 
ATOM     26  N   UNL     1      47.024   3.164  16.927  0.00  0.00    +0.000 N 
ATOM     27  C   UNL     1      47.364   4.243  16.148  0.00  0.00    +0.000 A 
ATOM     28  O   UNL     1      46.776   4.479  15.095  0.00  0.00    +0.000 OA
ATOM     29  C   UNL     1      48.435   5.060  16.682  0.00  0.00    +0.000 A 
ATOM     30  H   UNL     1      46.278   2.580  16.579  0.00  0.00    +0.000 HD
ENDBRANCH  17  20
ENDBRANCH   1  16
TORSDOF 5
ENDMDL
MODEL 3
REMARK VINA RESULT:    -8.026      2.445      4.222
REMARK INTER + INTRA:         -10.918
REMARK INTER:                  -9.825
REMARK INTRA:                  -1.093
REMARK UNBOUND:                -0.547
REMARK  Name = 
REMARK  6 active torsions:
REMARK  status: ('A' for Active; 'I' for Inactive)
REMARK    1  A    between atoms: C_1  and  C_2
REMARK    2  A    between atoms: C_6  and  C_7
REMARK    3  A    between atoms: C_7  and  C_8
REMARK    4  A    between atoms: C_11  and  C_12
REMARK    5  A    between atoms: C_12  and  N_13
REMARK    6  A    between atoms: C_14  and  C_16
REMARK                            x       y       z     vdW  Elec       q    Type
REMARK                         _______ _______ _______ _____ _____    ______ ____
ROOT
ATOM      1  C   UNL     1      46.971   5.272  14.265  0.00  0.00    +0.000 C 
ENDROOT
BRANCH   1   5
ATOM      2  C   UNL     1      44.984   3.992  10.639  0.00  0.00    +0.000 A 
ATOM      3  C   UNL     1      45.431   5.314  10.776  0.00  0.00    +0.000 A 
ATOM      4  C   UNL     1      46.056   5.736  11.953  0.00  0.00    +0.000 A 
ATOM      5  C   UNL     1      46.240   4.846  13.018  0.00  0.00    +0.000 A 
ATOM      6  C   UNL     1      45.726   3.548  12.908  0.00  0.00    +0.000 A 
ATOM      7  C   UNL     1      45.116   3.120  11.726  0.00  0.00    +0.000 A 
BRANCH   2   8
ATOM      8  C   UNL     1      44.413   3.503   9.325  0.00  0.00    +0.000 C 
BRANCH   8  14
ATOM      9  C   UNL     1      46.839  -0.415   7.720  0.00  0.00    +0.000 C 
ATOM     10  C   UNL     1      46.564   1.051   7.571  0.00  0.00    +0.000 A 
ATOM     11  C   UNL     1      47.187   1.792   6.573  0.00  0.00    +0.000 A 
ATOM     12  C   UNL     1      46.922   3.153   6.490  0.00  0.00    +0.000 A 
ATOM     13  C   UNL     1      46.038   3.732   7.394  0.00  0.00    +0.000 A 
ATOM     14  C   UNL     1      45.437   2.931   8.363  0.00  0.00    +0.000 A 
ATOM     15  N   UNL     1      45.694   1.600   8.455  0.00  0.00    +0.000 NA
ENDBRANCH   8  14
ENDBRANCH   2   8
ENDBRANCH   1   5
BRANCH   1  16
ATOM     16  N   UNL     1      47.334   6.664  14.219  0.00  0.00    +0.000 N 
ATOM     17  C   UNL     1      48.544   7.091  14.703  0.00  0.00    +0.000 C 
ATOM     18  O   UNL     1      49.385   6.310  15.140  0.00  0.00    +0.000 OA
ATOM     19  H   UNL     1      46.581   7.332  14.089  0.00  0.00    +0.000 HD
BRANCH  17  20
ATOM     20  C   UNL     1      48.812   8.532  14.617  0.00  0.00    +0.000 A 
ATOM     21  C   UNL     1      48.994   9.267  15.782  0.00  0.00    +0.000 A 
ATOM     22  S   UNL     1      49.322  10.918  15.505  0.00  0.00    +0.000 S 
ATOM     23  C   UNL     1      49.188  10.719  13.820  0.00  0.00    +0.000 A 
ATOM     24  N   UNL     1      49.328  11.776  12.977  0.00  0.00    +0.000 NA
ATOM     25  C   UNL     1      49.174  11.487  11.728  0.00  0.00    +0.000 A 
ATOM     26  N   UNL     1      48.902  10.233  11.245  0.00  0.00    +0.000 N 
ATOM     27  C   UNL     1      48.779   9.131  12.057  0.00  0.00    +0.000 A 
ATOM     28  O   UNL     1      48.580   8.013  11.587  0.00  0.00    +0.000 OA
ATOM     29  C   UNL     1      48.921   9.405  13.472  0.00  0.00    +0.000 A 
ATOM     30  H   UNL     1      48.809  10.069  10.253  0.00  0.00    +0.000 HD
ENDBRANCH  17  20
ENDBRANCH   1  16
TORSDOF 5
ENDMDL
MODEL 4
REMARK VINA RESULT:    -7.515      2.584      3.434
REMARK INTER + INTRA:         -10.258
REMARK INTER:                  -9.258
REMARK INTRA:                  -1.000
REMARK UNBOUND:                -0.547
REMARK  Name = 
REMARK  6 active torsions:
REMARK  status: ('A' for Active; 'I' for Inactive)
REMARK    1  A    between atoms: C_1  and  C_2
REMARK    2  A    between atoms: C_6  and  C_7
REMARK    3  A    between atoms: C_7  and  C_8
REMARK    4  A    between atoms: C_11  and  C_12
REMARK    5  A    between atoms: C_12  and  N_13
REMARK    6  A    between atoms: C_14  and  C_16
REMARK                            x       y       z     vdW  Elec       q    Type
REMARK                         _______ _______ _______ _____ _____    ______ ____
ROOT
ATOM      1  C   UNL     1      48.746   6.804  14.406  0.00  0.00    +0.000 C 
ENDROOT
BRANCH   1   5
ATOM      2  C   UNL     1      45.418   5.874  11.799  0.00  0.00    +0.000 A 
ATOM      3  C   UNL     1      46.081   7.105  11.694  0.00  0.00    +0.000 A 
ATOM      4  C   UNL     1      47.144   7.417  12.547  0.00  0.00    +0.000 A 
ATOM      5  C   UNL     1      47.560   6.506  13.526  0.00  0.00    +0.000 A 
ATOM      6  C   UNL     1      46.849   5.309  13.679  0.00  0.00    +0.000 A 
ATOM      7  C   UNL     1      45.797   4.989  12.816  0.00  0.00    +0.000 A 
BRANCH   2   8
ATOM      8  C   UNL     1      44.346   5.487  10.803  0.00  0.00    +0.000 C 
BRANCH   8  14
ATOM      9  C   UNL     1      46.783   3.932   6.873  0.00  0.00    +0.000 C 
ATOM     10  C   UNL     1      45.912   3.581   8.041  0.00  0.00    +0.000 A 
ATOM     11  C   UNL     1      45.528   2.265   8.271  0.00  0.00    +0.000 A 
ATOM     12  C   UNL     1      44.697   1.992   9.350  0.00  0.00    +0.000 A 
ATOM     13  C   UNL     1      44.283   3.034  10.172  0.00  0.00    +0.000 A 
ATOM     14  C   UNL     1      44.713   4.330   9.894  0.00  0.00    +0.000 A 
ATOM     15  N   UNL     1      45.522   4.607   8.839  0.00  0.00    +0.000 NA
ENDBRANCH   8  14
ENDBRANCH   2   8
ENDBRANCH   1   5
BRANCH   1  16
ATOM     16  N   UNL     1      48.447   6.579  15.795  0.00  0.00    +0.000 N 
ATOM     17  C   UNL     1      49.414   6.134  16.660  0.00  0.00    +0.000 C 
ATOM     18  O   UNL     1      50.578   5.964  16.306  0.00  0.00    +0.000 OA
ATOM     19  H   UNL     1      47.468   6.484  16.046  0.00  0.00    +0.000 HD
BRANCH  17  20
ATOM     20  C   UNL     1      49.003   5.927  18.054  0.00  0.00    +0.000 A 
ATOM     21  C   UNL     1      49.172   4.680  18.642  0.00  0.00    +0.000 A 
ATOM     22  S   UNL     1      48.668   4.618  20.270  0.00  0.00    +0.000 S 
ATOM     23  C   UNL     1      48.164   6.243  20.234  0.00  0.00    +0.000 A 
ATOM     24  N   UNL     1      47.594   6.823  21.323  0.00  0.00    +0.000 NA
ATOM     25  C   UNL     1      47.234   8.051  21.147  0.00  0.00    +0.000 A 
ATOM     26  N   UNL     1      47.402   8.754  19.982  0.00  0.00    +0.000 N 
ATOM     27  C   UNL     1      47.997   8.217  18.866  0.00  0.00    +0.000 A 
ATOM     28  O   UNL     1      48.174   8.890  17.853  0.00  0.00    +0.000 OA
ATOM     29  C   UNL     1      48.400   6.833  19.003  0.00  0.00    +0.000 A 
ATOM     30  H   UNL     1      47.114   9.719  19.914  0.00  0.00    +0.000 HD
ENDBRANCH  17  20
ENDBRANCH   1  16
TORSDOF 5
ENDMDL
MODEL 5
REMARK VINA RESULT:    -7.369      3.237      8.173
REMARK INTER + INTRA:         -10.070
REMARK INTER:                  -9.124
REMARK INTRA:                  -0.946
REMARK UNBOUND:                -0.547
REMARK  Name = 
REMARK  6 active torsions:
REMARK  status: ('A' for Active; 'I' for Inactive)
REMARK    1  A    between atoms: C_1  and  C_2
REMARK    2  A    between atoms: C_6  and  C_7
REMARK    3  A    between atoms: C_7  and  C_8
REMARK    4  A    between atoms: C_11  and  C_12
REMARK    5  A    between atoms: C_12  and  N_13
REMARK    6  A    between atoms: C_14  and  C_16
REMARK                            x       y       z     vdW  Elec       q    Type
REMARK                         _______ _______ _______ _____ _____    ______ ____
ROOT
ATOM      1  C   UNL     1      48.529   7.462  13.097  0.00  0.00    +0.000 C 
ENDROOT
BRANCH   1   5
ATOM      2  C   UNL     1      49.715   5.770  16.900  0.00  0.00    +0.000 A 
ATOM      3  C   UNL     1      48.463   5.466  16.347  0.00  0.00    +0.000 A 
ATOM      4  C   UNL     1      48.068   6.026  15.127  0.00  0.00    +0.000 A 
ATOM      5  C   UNL     1      48.916   6.905  14.443  0.00  0.00    +0.000 A 
ATOM      6  C   UNL     1      50.134   7.266  15.034  0.00  0.00    +0.000 A 
ATOM      7  C   UNL     1      50.536   6.694  16.244  0.00  0.00    +0.000 A 
BRANCH   2   8
ATOM      8  C   UNL     1      50.190   5.076  18.159  0.00  0.00    +0.000 C 
BRANCH   8  14
ATOM      9  C   UNL     1      54.386   2.614  18.538  0.00  0.00    +0.000 C 
ATOM     10  C   UNL     1      52.940   2.595  18.142  0.00  0.00    +0.000 A 
ATOM     11  C   UNL     1      52.356   1.437  17.642  0.00  0.00    +0.000 A 
ATOM     12  C   UNL     1      51.021   1.476  17.264  0.00  0.00    +0.000 A 
ATOM     13  C   UNL     1      50.305   2.660  17.403  0.00  0.00    +0.000 A 
ATOM     14  C   UNL     1      50.947   3.783  17.922  0.00  0.00    +0.000 A 
ATOM     15  N   UNL     1      52.254   3.756  18.291  0.00  0.00    +0.000 NA
ENDBRANCH   8  14
ENDBRANCH   2   8
ENDBRANCH   1   5
BRANCH   1  16
ATOM     16  N   UNL     1      47.780   6.508  12.323  0.00  0.00    +0.000 N 
ATOM     17  C   UNL     1      46.475   6.751  11.979  0.00  0.00    +0.000 C 
ATOM     18  O   UNL     1      45.911   7.804  12.263  0.00  0.00    +0.000 OA
ATOM     19  H   UNL     1      48.139   5.559  12.288  0.00  0.00    +0.000 HD
BRANCH  17  20
ATOM     20  C   UNL     1      45.798   5.710  11.196  0.00  0.00    +0.000 A 
ATOM     21  C   UNL     1      45.897   5.718   9.811  0.00  0.00    +0.000 A 
ATOM     22  S   UNL     1      45.076   4.426   9.058  0.00  0.00    +0.000 S 
ATOM     23  C   UNL     1      44.522   3.834  10.554  0.00  0.00    +0.000 A 
ATOM     24  N   UNL     1      43.719   2.740  10.619  0.00  0.00    +0.000 NA
ATOM     25  C   UNL     1      43.351   2.418  11.815  0.00  0.00    +0.000 A 
ATOM     26  N   UNL     1      43.722   3.087  12.952  0.00  0.00    +0.000 N 
ATOM     27  C   UNL     1      44.552   4.181  12.937  0.00  0.00    +0.000 A 
ATOM     28  O   UNL     1      44.903   4.729  13.980  0.00  0.00    +0.000 OA
ATOM     29  C   UNL     1      44.978   4.598  11.617  0.00  0.00    +0.000 A 
ATOM     30  H   UNL     1      43.412   2.774  13.861  0.00  0.00    +0.000 HD
ENDBRANCH  17  20
ENDBRANCH   1  16
TORSDOF 5
ENDMDL
MODEL 6
REMARK VINA RESULT:    -7.214      3.911      9.790
REMARK INTER + INTRA:          -9.869
REMARK INTER:                  -9.076
REMARK INTRA:                  -0.794
REMARK UNBOUND:                -0.547
REMARK  Name = 
REMARK  6 active torsions:
REMARK  status: ('A' for Active; 'I' for Inactive)
REMARK    1  A    between atoms: C_1  and  C_2
REMARK    2  A    between atoms: C_6  and  C_7
REMARK    3  A    between atoms: C_7  and  C_8
REMARK    4  A    between atoms: C_11  and  C_12
REMARK    5  A    between atoms: C_12  and  N_13
REMARK    6  A    between atoms: C_14  and  C_16
REMARK                            x       y       z     vdW  Elec       q    Type
REMARK                         _______ _______ _______ _____ _____    ______ ____
ROOT
ATOM      1  C   UNL     1      47.289   3.362  16.837  0.00  0.00    +0.000 C 
ENDROOT
BRANCH   1   5
ATOM      2  C   UNL     1      51.504   3.687  17.765  0.00  0.00    +0.000 A 
ATOM      3  C   UNL     1      50.943   2.445  17.435  0.00  0.00    +0.000 A 
ATOM      4  C   UNL     1      49.578   2.333  17.153  0.00  0.00    +0.000 A 
ATOM      5  C   UNL     1      48.747   3.459  17.203  0.00  0.00    +0.000 A 
ATOM      6  C   UNL     1      49.295   4.684  17.606  0.00  0.00    +0.000 A 
ATOM      7  C   UNL     1      50.662   4.800  17.872  0.00  0.00    +0.000 A 
BRANCH   2   8
ATOM      8  C   UNL     1      52.999   3.831  17.957  0.00  0.00    +0.000 C 
BRANCH   8  14
ATOM      9  C   UNL     1      55.045   1.781  21.883  0.00  0.00    +0.000 C 
ATOM     10  C   UNL     1      54.457   3.011  21.261  0.00  0.00    +0.000 A 
ATOM     11  C   UNL     1      54.384   4.202  21.974  0.00  0.00    +0.000 A 
ATOM     12  C   UNL     1      53.805   5.308  21.365  0.00  0.00    +0.000 A 
ATOM     13  C   UNL     1      53.327   5.199  20.064  0.00  0.00    +0.000 A 
ATOM     14  C   UNL     1      53.441   3.980  19.400  0.00  0.00    +0.000 A 
ATOM     15  N   UNL     1      54.001   2.891  19.989  0.00  0.00    +0.000 NA
ENDBRANCH   8  14
ENDBRANCH   2   8
ENDBRANCH   1   5
BRANCH   1  16
ATOM     16  N   UNL     1      46.909   4.383  15.896  0.00  0.00    +0.000 N 
ATOM     17  C   UNL     1      46.976   4.154  14.545  0.00  0.00    +0.000 C 
ATOM     18  O   UNL     1      47.304   3.065  14.083  0.00  0.00    +0.000 OA
ATOM     19  H   UNL     1      46.868   5.337  16.242  0.00  0.00    +0.000 HD
BRANCH  17  20
ATOM     20  C   UNL     1      46.574   5.264  13.672  0.00  0.00    +0.000 A 
ATOM     21  C   UNL     1      47.431   6.343  13.495  0.00  0.00    +0.000 A 
ATOM     22  S   UNL     1      46.825   7.530  12.431  0.00  0.00    +0.000 S 
ATOM     23  C   UNL     1      45.377   6.666  12.203  0.00  0.00    +0.000 A 
ATOM     24  N   UNL     1      44.386   7.157  11.413  0.00  0.00    +0.000 NA
ATOM     25  C   UNL     1      43.333   6.412  11.352  0.00  0.00    +0.000 A 
ATOM     26  N   UNL     1      43.185   5.214  12.003  0.00  0.00    +0.000 N 
ATOM     27  C   UNL     1      44.169   4.667  12.790  0.00  0.00    +0.000 A 
ATOM     28  O   UNL     1      44.022   3.569  13.322  0.00  0.00    +0.000 OA
ATOM     29  C   UNL     1      45.366   5.475  12.910  0.00  0.00    +0.000 A 
ATOM     30  H   UNL     1      42.341   4.671  11.900  0.00  0.00    +0.000 HD
ENDBRANCH  17  20
ENDBRANCH   1  16
TORSDOF 5
ENDMDL
MODEL 7
REMARK VINA RESULT:    -7.206      4.133      9.805
REMARK INTER + INTRA:          -9.859
REMARK INTER:                  -8.810
REMARK INTRA:                  -1.049
REMARK UNBOUND:                -0.547
REMARK  Name = 
REMARK  6 active torsions:
REMARK  status: ('A' for Active; 'I' for Inactive)
REMARK    1  A    between atoms: C_1  and  C_2
REMARK    2  A    between atoms: C_6  and  C_7
REMARK    3  A    between atoms: C_7  and  C_8
REMARK    4  A    between atoms: C_11  and  C_12
REMARK    5  A    between atoms: C_12  and  N_13
REMARK    6  A    between atoms: C_14  and  C_16
REMARK                            x       y       z     vdW  Elec       q    Type
REMARK                         _______ _______ _______ _____ _____    ______ ____
ROOT
ATOM      1  C   UNL     1      47.808   4.138  16.150  0.00  0.00    +0.000 C 
ENDROOT
BRANCH   1   5
ATOM      2  C   UNL     1      48.323   6.850  19.483  0.00  0.00    +0.000 A 
ATOM      3  C   UNL     1      47.151   6.089  19.360  0.00  0.00    +0.000 A 
ATOM      4  C   UNL     1      46.973   5.225  18.275  0.00  0.00    +0.000 A 
ATOM      5  C   UNL     1      47.960   5.113  17.287  0.00  0.00    +0.000 A 
ATOM      6  C   UNL     1      49.095   5.930  17.372  0.00  0.00    +0.000 A 
ATOM      7  C   UNL     1      49.281   6.780  18.465  0.00  0.00    +0.000 A 
BRANCH   2   8
ATOM      8  C   UNL     1      48.568   7.696  20.714  0.00  0.00    +0.000 C 
BRANCH   8  14
ATOM      9  C   UNL     1      47.016  11.880  18.739  0.00  0.00    +0.000 C 
ATOM     10  C   UNL     1      46.907  10.896  19.865  0.00  0.00    +0.000 A 
ATOM     11  C   UNL     1      46.004  11.100  20.901  0.00  0.00    +0.000 A 
ATOM     12  C   UNL     1      45.958  10.175  21.936  0.00  0.00    +0.000 A 
ATOM     13  C   UNL     1      46.803   9.072  21.903  0.00  0.00    +0.000 A 
ATOM     14  C   UNL     1      47.678   8.919  20.829  0.00  0.00    +0.000 A 
ATOM     15  N   UNL     1      47.733   9.821  19.815  0.00  0.00    +0.000 NA
ENDBRANCH   8  14
ENDBRANCH   2   8
ENDBRANCH   1   5
BRANCH   1  16
ATOM     16  N   UNL     1      46.870   4.611  15.165  0.00  0.00    +0.000 N 
ATOM     17  C   UNL     1      47.280   5.420  14.136  0.00  0.00    +0.000 C 
ATOM     18  O   UNL     1      48.458   5.726  13.976  0.00  0.00    +0.000 OA
ATOM     19  H   UNL     1      45.886   4.569  15.409  0.00  0.00    +0.000 HD
BRANCH  17  20
ATOM     20  C   UNL     1      46.243   5.855  13.192  0.00  0.00    +0.000 A 
ATOM     21  C   UNL     1      46.067   7.209  12.941  0.00  0.00    +0.000 A 
ATOM     22  S   UNL     1      44.841   7.541  11.802  0.00  0.00    +0.000 S 
ATOM     23  C   UNL     1      44.471   5.888  11.637  0.00  0.00    +0.000 A 
ATOM     24  N   UNL     1      43.468   5.474  10.819  0.00  0.00    +0.000 NA
ATOM     25  C   UNL     1      43.278   4.197  10.810  0.00  0.00    +0.000 A 
ATOM     26  N   UNL     1      44.009   3.295  11.540  0.00  0.00    +0.000 N 
ATOM     27  C   UNL     1      45.048   3.665  12.359  0.00  0.00    +0.000 A 
ATOM     28  O   UNL     1      45.712   2.826  12.964  0.00  0.00    +0.000 OA
ATOM     29  C   UNL     1      45.289   5.091  12.421  0.00  0.00    +0.000 A 
ATOM     30  H   UNL     1      43.820   2.305  11.477  0.00  0.00    +0.000 HD
ENDBRANCH  17  20
ENDBRANCH   1  16
TORSDOF 5
ENDMDL
MODEL 8
REMARK VINA RESULT:    -7.185      3.750      6.324
REMARK INTER + INTRA:          -9.832
REMARK INTER:                  -8.864
REMARK INTRA:                  -0.968
REMARK UNBOUND:                -0.547
REMARK  Name = 
REMARK  6 active torsions:
REMARK  status: ('A' for Active; 'I' for Inactive)
REMARK    1  A    between atoms: C_1  and  C_2
REMARK    2  A    between atoms: C_6  and  C_7
REMARK    3  A    between atoms: C_7  and  C_8
REMARK    4  A    between atoms: C_11  and  C_12
REMARK    5  A    between atoms: C_12  and  N_13
REMARK    6  A    between atoms: C_14  and  C_16
REMARK                            x       y       z     vdW  Elec       q    Type
REMARK                         _______ _______ _______ _____ _____    ______ ____
ROOT
ATOM      1  C   UNL     1      45.975   5.280  13.193  0.00  0.00    +0.000 C 
ENDROOT
BRANCH   1   5
ATOM      2  C   UNL     1      45.314   9.345  11.861  0.00  0.00    +0.000 A 
ATOM      3  C   UNL     1      44.537   8.295  11.352  0.00  0.00    +0.000 A 
ATOM      4  C   UNL     1      44.760   6.978  11.765  0.00  0.00    +0.000 A 
ATOM      5  C   UNL     1      45.770   6.685  12.690  0.00  0.00    +0.000 A 
ATOM      6  C   UNL     1      46.594   7.725  13.140  0.00  0.00    +0.000 A 
ATOM      7  C   UNL     1      46.361   9.043  12.740  0.00  0.00    +0.000 A 
BRANCH   2   8
ATOM      8  C   UNL     1      44.999  10.781  11.504  0.00  0.00    +0.000 C 
BRANCH   8  14
ATOM      9  C   UNL     1      40.401  11.805  12.777  0.00  0.00    +0.000 C 
ATOM     10  C   UNL     1      41.381  11.555  11.670  0.00  0.00    +0.000 A 
ATOM     11  C   UNL     1      40.977  11.601  10.341  0.00  0.00    +0.000 A 
ATOM     12  C   UNL     1      41.915  11.336   9.351  0.00  0.00    +0.000 A 
ATOM     13  C   UNL     1      43.225  11.044   9.713  0.00  0.00    +0.000 A 
ATOM     14  C   UNL     1      43.568  11.025  11.064  0.00  0.00    +0.000 A 
ATOM     15  N   UNL     1      42.657  11.279  12.039  0.00  0.00    +0.000 NA
ENDBRANCH   8  14
ENDBRANCH   2   8
ENDBRANCH   1   5
BRANCH   1  16
ATOM     16  N   UNL     1      46.600   5.265  14.489  0.00  0.00    +0.000 N 
ATOM     17  C   UNL     1      47.230   4.139  14.953  0.00  0.00    +0.000 C 
ATOM     18  O   UNL     1      47.338   3.124  14.271  0.00  0.00    +0.000 OA
ATOM     19  H   UNL     1      46.321   5.990  15.143  0.00  0.00    +0.000 HD
BRANCH  17  20
ATOM     20  C   UNL     1      47.827   4.227  16.292  0.00  0.00    +0.000 A 
ATOM     21  C   UNL     1      47.448   3.320  17.274  0.00  0.00    +0.000 A 
ATOM     22  S   UNL     1      48.254   3.544  18.760  0.00  0.00    +0.000 S 
ATOM     23  C   UNL     1      49.106   4.888  18.158  0.00  0.00    +0.000 A 
ATOM     24  N   UNL     1      49.965   5.584  18.950  0.00  0.00    +0.000 NA
ATOM     25  C   UNL     1      50.522   6.596  18.373  0.00  0.00    +0.000 A 
ATOM     26  N   UNL     1      50.305   6.970  17.072  0.00  0.00    +0.000 N 
ATOM     27  C   UNL     1      49.467   6.282  16.228  0.00  0.00    +0.000 A 
ATOM     28  O   UNL     1      49.330   6.617  15.053  0.00  0.00    +0.000 OA
ATOM     29  C   UNL     1      48.799   5.148  16.832  0.00  0.00    +0.000 A 
ATOM     30  H   UNL     1      50.785   7.764  16.675  0.00  0.00    +0.000 HD
ENDBRANCH  17  20
ENDBRANCH   1  16
TORSDOF 5
ENDMDL
MODEL 9
REMARK VINA RESULT:    -7.111      2.077      3.356
REMARK INTER + INTRA:          -9.736
REMARK INTER:                  -8.476
REMARK INTRA:                  -1.260
REMARK UNBOUND:                -0.547
REMARK  Name = 
REMARK  6 active torsions:
REMARK  status: ('A' for Active; 'I' for Inactive)
REMARK    1  A    between atoms: C_1  and  C_2
REMARK    2  A    between atoms: C_6  and  C_7
REMARK    3  A    between atoms: C_7  and  C_8
REMARK    4  A    between atoms: C_11  and  C_12
REMARK    5  A    between atoms: C_12  and  N_13
REMARK    6  A    between atoms: C_14  and  C_16
REMARK                            x       y       z     vdW  Elec       q    Type
REMARK                         _______ _______ _______ _____ _____    ______ ____
ROOT
ATOM      1  C   UNL     1      49.308   8.434  14.052  0.00  0.00    +0.000 C 
ENDROOT
BRANCH   1   5
ATOM      2  C   UNL     1      45.749   7.403  11.816  0.00  0.00    +0.000 A 
ATOM      3  C   UNL     1      46.902   6.610  11.722  0.00  0.00    +0.000 A 
ATOM      4  C   UNL     1      48.060   6.951  12.428  0.00  0.00    +0.000 A 
ATOM      5  C   UNL     1      48.089   8.095  13.235  0.00  0.00    +0.000 A 
ATOM      6  C   UNL     1      46.961   8.925  13.269  0.00  0.00    +0.000 A 
ATOM      7  C   UNL     1      45.798   8.577  12.577  0.00  0.00    +0.000 A 
BRANCH   2   8
ATOM      8  C   UNL     1      44.461   6.973  11.147  0.00  0.00    +0.000 C 
BRANCH   8  14
ATOM      9  C   UNL     1      44.467   2.508   9.180  0.00  0.00    +0.000 C 
ATOM     10  C   UNL     1      44.170   3.363  10.375  0.00  0.00    +0.000 A 
ATOM     11  C   UNL     1      43.671   2.800  11.544  0.00  0.00    +0.000 A 
ATOM     12  C   UNL     1      43.385   3.636  12.616  0.00  0.00    +0.000 A 
ATOM     13  C   UNL     1      43.615   5.002  12.496  0.00  0.00    +0.000 A 
ATOM     14  C   UNL     1      44.128   5.501  11.300  0.00  0.00    +0.000 A 
ATOM     15  N   UNL     1      44.406   4.692  10.245  0.00  0.00    +0.000 NA
ENDBRANCH   8  14
ENDBRANCH   2   8
ENDBRANCH   1   5
BRANCH   1  16
ATOM     16  N   UNL     1      49.400   7.621  15.235  0.00  0.00    +0.000 N 
ATOM     17  C   UNL     1      48.851   8.039  16.420  0.00  0.00    +0.000 C 
ATOM     18  O   UNL     1      48.216   9.086  16.512  0.00  0.00    +0.000 OA
ATOM     19  H   UNL     1      50.105   6.890  15.239  0.00  0.00    +0.000 HD
BRANCH  17  20
ATOM     20  C   UNL     1      49.008   7.138  17.569  0.00  0.00    +0.000 A 
ATOM     21  C   UNL     1      49.503   7.635  18.768  0.00  0.00    +0.000 A 
ATOM     22  S   UNL     1      49.597   6.465  20.006  0.00  0.00    +0.000 S 
ATOM     23  C   UNL     1      49.022   5.243  18.971  0.00  0.00    +0.000 A 
ATOM     24  N   UNL     1      48.894   3.961  19.405  0.00  0.00    +0.000 NA
ATOM     25  C   UNL     1      48.474   3.133  18.508  0.00  0.00    +0.000 A 
ATOM     26  N   UNL     1      48.161   3.473  17.217  0.00  0.00    +0.000 N 
ATOM     27  C   UNL     1      48.250   4.759  16.742  0.00  0.00    +0.000 A 
ATOM     28  O   UNL     1      47.918   5.038  15.592  0.00  0.00    +0.000 OA
ATOM     29  C   UNL     1      48.738   5.726  17.704  0.00  0.00    +0.000 A 
ATOM     30  H   UNL     1      47.821   2.780  16.567  0.00  0.00    +0.000 HD
ENDBRANCH  17  20
ENDBRANCH   1  16
TORSDOF 5
ENDMDL
