MODEL 1
REMARK VINA RESULT:    -8.052      0.000      0.000
REMARK INTER + INTRA:         -12.507
REMARK INTER:                 -11.348
REMARK INTRA:                  -1.159
REMARK UNBOUND:                -1.159
REMARK  Name = 
REMARK  7 active torsions:
REMARK  status: ('A' for Active; 'I' for Inactive)
REMARK    1  A    between atoms: C_2  and  C_4
REMARK    2  A    between atoms: C_8  and  C_9
REMARK    3  A    between atoms: C_9  and  O_10
REMARK    4  A    between atoms: O_10  and  C_11
REMARK    5  A    between atoms: C_14  and  C_15
REMARK    6  A    between atoms: C_15  and  N_16
REMARK    7  A    between atoms: C_17  and  C_19
REMARK                            x       y       z     vdW  Elec       q    Type
REMARK                         _______ _______ _______ _____ _____    ______ ____
ROOT
ATOM      1  C   UNL     1      44.574   5.356  11.190  0.00  0.00    +0.000 A 
ATOM      2  C   UNL     1      45.749   4.814  11.685  0.00  0.00    +0.000 A 
ATOM      3  C   UNL     1      46.594   5.632  12.438  0.00  0.00    +0.000 A 
ATOM      4  C   UNL     1      46.251   6.973  12.639  0.00  0.00    +0.000 A 
ATOM      5  C   UNL     1      45.060   7.416  12.079  0.00  0.00    +0.000 A 
ATOM      6  N   UNL     1      44.220   6.644  11.357  0.00  0.00    +0.000 NA
ENDROOT
BRANCH   1   7
ATOM      7  O   UNL     1      43.750   4.531  10.450  0.00  0.00    +0.000 OA
BRANCH   7   8
ATOM      8  C   UNL     1      44.018   4.656   9.050  0.00  0.00    +0.000 C 
BRANCH   8  13
ATOM      9  C   UNL     1      46.498   2.477   7.122  0.00  0.00    +0.000 A 
ATOM     10  C   UNL     1      46.361   1.253   7.786  0.00  0.00    +0.000 A 
ATOM     11  C   UNL     1      45.436   1.121   8.821  0.00  0.00    +0.000 A 
ATOM     12  C   UNL     1      44.659   2.215   9.208  0.00  0.00    +0.000 A 
ATOM     13  C   UNL     1      44.792   3.452   8.560  0.00  0.00    +0.000 A 
ATOM     14  C   UNL     1      45.709   3.571   7.507  0.00  0.00    +0.000 A 
BRANCH   9  16
ATOM     15  N   UNL     1      48.835   2.514   6.422  0.00  0.00    +0.000 N 
ATOM     16  C   UNL     1      47.526   2.680   6.067  0.00  0.00    +0.000 C 
ATOM     17  O   UNL     1      47.221   2.978   4.918  0.00  0.00    +0.000 OA
ATOM     18  H   UNL     1      49.519   2.603   5.682  0.00  0.00    +0.000 HD
ATOM     19  H   UNL     1      49.118   2.054   7.276  0.00  0.00    +0.000 HD
ENDBRANCH   9  16
ENDBRANCH   8  13
ENDBRANCH   7   8
ENDBRANCH   1   7
BRANCH   4  20
ATOM     20  C   UNL     1      47.088   7.916  13.453  0.00  0.00    +0.000 C 
BRANCH  20  21
ATOM     21  N   UNL     1      47.570   7.339  14.681  0.00  0.00    +0.000 N 
ATOM     22  C   UNL     1      48.830   6.797  14.823  0.00  0.00    +0.000 C 
ATOM     23  O   UNL     1      49.676   6.812  13.939  0.00  0.00    +0.000 OA
ATOM     24  H   UNL     1      46.849   6.948  15.279  0.00  0.00    +0.000 HD
BRANCH  22  25
ATOM     25  C   UNL     1      49.125   6.247  16.149  0.00  0.00    +0.000 A 
ATOM     26  C   UNL     1      50.069   6.851  16.966  0.00  0.00    +0.000 A 
ATOM     27  S   UNL     1      50.222   6.102  18.492  0.00  0.00    +0.000 S 
ATOM     28  C   UNL     1      49.067   4.917  18.089  0.00  0.00    +0.000 A 
ATOM     29  N   UNL     1      48.728   3.935  18.968  0.00  0.00    +0.000 NA
ATOM     30  C   UNL     1      47.865   3.089  18.510  0.00  0.00    +0.000 A 
ATOM     31  N   UNL     1      47.311   3.133  17.260  0.00  0.00    +0.000 N 
ATOM     32  C   UNL     1      47.593   4.127  16.354  0.00  0.00    +0.000 A 
ATOM     33  O   UNL     1      47.031   4.184  15.266  0.00  0.00    +0.000 OA
ATOM     34  C   UNL     1      48.566   5.096  16.815  0.00  0.00    +0.000 A 
ATOM     35  H   UNL     1      46.632   2.445  16.968  0.00  0.00    +0.000 HD
ENDBRANCH  22  25
ENDBRANCH  20  21
ENDBRANCH   4  20
TORSDOF 7
ENDMDL
MODEL 2
REMARK VINA RESULT:    -7.915      1.625      2.083
REMARK INTER + INTRA:         -12.313
REMARK INTER:                 -11.409
REMARK INTRA:                  -0.903
REMARK UNBOUND:                -1.159
REMARK  Name = 
REMARK  7 active torsions:
REMARK  status: ('A' for Active; 'I' for Inactive)
REMARK    1  A    between atoms: C_2  and  C_4
REMARK    2  A    between atoms: C_8  and  C_9
REMARK    3  A    between atoms: C_9  and  O_10
REMARK    4  A    between atoms: O_10  and  C_11
REMARK    5  A    between atoms: C_14  and  C_15
REMARK    6  A    between atoms: C_15  and  N_16
REMARK    7  A    between atoms: C_17  and  C_19
REMARK                            x       y       z     vdW  Elec       q    Type
REMARK                         _______ _______ _______ _____ _____    ______ ____
ROOT
ATOM      1  C   UNL     1      44.933   3.738  12.526  0.00  0.00    +0.000 A 
ATOM      2  C   UNL     1      44.319   4.980  12.529  0.00  0.00    +0.000 A 
ATOM      3  C   UNL     1      45.072   6.094  12.906  0.00  0.00    +0.000 A 
ATOM      4  C   UNL     1      46.402   5.921  13.301  0.00  0.00    +0.000 A 
ATOM      5  C   UNL     1      46.910   4.629  13.281  0.00  0.00    +0.000 A 
ATOM      6  N   UNL     1      46.208   3.537  12.910  0.00  0.00    +0.000 NA
ENDROOT
BRANCH   1   7
ATOM      7  O   UNL     1      44.173   2.649  12.147  0.00  0.00    +0.000 OA
BRANCH   7   8
ATOM      8  C   UNL     1      43.517   2.889  10.898  0.00  0.00    +0.000 C 
BRANCH   8  13
ATOM      9  C   UNL     1      46.167   2.231   8.222  0.00  0.00    +0.000 A 
ATOM     10  C   UNL     1      46.305   3.503   7.655  0.00  0.00    +0.000 A 
ATOM     11  C   UNL     1      45.579   4.577   8.167  0.00  0.00    +0.000 A 
ATOM     12  C   UNL     1      44.701   4.382   9.235  0.00  0.00    +0.000 A 
ATOM     13  C   UNL     1      44.542   3.112   9.808  0.00  0.00    +0.000 A 
ATOM     14  C   UNL     1      45.291   2.040   9.301  0.00  0.00    +0.000 A 
BRANCH   9  16
ATOM     15  N   UNL     1      47.945   1.274   6.853  0.00  0.00    +0.000 N 
ATOM     16  C   UNL     1      46.864   1.045   7.656  0.00  0.00    +0.000 C 
ATOM     17  O   UNL     1      46.494  -0.097   7.899  0.00  0.00    +0.000 OA
ATOM     18  H   UNL     1      48.440   0.458   6.518  0.00  0.00    +0.000 HD
ATOM     19  H   UNL     1      48.418   2.166   6.809  0.00  0.00    +0.000 HD
ENDBRANCH   9  16
ENDBRANCH   8  13
ENDBRANCH   7   8
ENDBRANCH   1   7
BRANCH   4  20
ATOM     20  C   UNL     1      47.290   7.064  13.701  0.00  0.00    +0.000 C 
BRANCH  20  21
ATOM     21  N   UNL     1      47.809   6.944  15.039  0.00  0.00    +0.000 N 
ATOM     22  C   UNL     1      49.156   6.867  15.327  0.00  0.00    +0.000 C 
ATOM     23  O   UNL     1      50.035   6.957  14.480  0.00  0.00    +0.000 OA
ATOM     24  H   UNL     1      47.188   6.484  15.696  0.00  0.00    +0.000 HD
BRANCH  22  25
ATOM     25  C   UNL     1      49.481   6.734  16.749  0.00  0.00    +0.000 A 
ATOM     26  C   UNL     1      50.309   7.656  17.370  0.00  0.00    +0.000 A 
ATOM     27  S   UNL     1      50.514   7.368  19.040  0.00  0.00    +0.000 S 
ATOM     28  C   UNL     1      49.541   5.971  18.975  0.00  0.00    +0.000 A 
ATOM     29  N   UNL     1      49.310   5.220  20.086  0.00  0.00    +0.000 NA
ATOM     30  C   UNL     1      48.583   4.173  19.875  0.00  0.00    +0.000 A 
ATOM     31  N   UNL     1      48.067   3.806  18.662  0.00  0.00    +0.000 N 
ATOM     32  C   UNL     1      48.242   4.554  17.522  0.00  0.00    +0.000 A 
ATOM     33  O   UNL     1      47.710   4.243  16.462  0.00  0.00    +0.000 OA
ATOM     34  C   UNL     1      49.060   5.735  17.702  0.00  0.00    +0.000 A 
ATOM     35  H   UNL     1      47.496   2.980  18.568  0.00  0.00    +0.000 HD
ENDBRANCH  22  25
ENDBRANCH  20  21
ENDBRANCH   4  20
TORSDOF 7
ENDMDL
MODEL 3
REMARK VINA RESULT:    -7.821      1.996      2.467
REMARK INTER + INTRA:         -12.180
REMARK INTER:                 -11.015
REMARK INTRA:                  -1.166
REMARK UNBOUND:                -1.159
REMARK  Name = 
REMARK  7 active torsions:
REMARK  status: ('A' for Active; 'I' for Inactive)
REMARK    1  A    between atoms: C_2  and  C_4
REMARK    2  A    between atoms: C_8  and  C_9
REMARK    3  A    between atoms: C_9  and  O_10
REMARK    4  A    between atoms: O_10  and  C_11
REMARK    5  A    between atoms: C_14  and  C_15
REMARK    6  A    between atoms: C_15  and  N_16
REMARK    7  A    between atoms: C_17  and  C_19
REMARK                            x       y       z     vdW  Elec       q    Type
REMARK                         _______ _______ _______ _____ _____    ______ ____
ROOT
ATOM      1  C   UNL     1      45.109   5.076  11.584  0.00  0.00    +0.000 A 
ATOM      2  C   UNL     1      45.422   6.381  11.239  0.00  0.00    +0.000 A 
ATOM      3  C   UNL     1      46.419   7.038  11.962  0.00  0.00    +0.000 A 
ATOM      4  C   UNL     1      47.044   6.380  13.026  0.00  0.00    +0.000 A 
ATOM      5  C   UNL     1      46.637   5.080  13.297  0.00  0.00    +0.000 A 
ATOM      6  N   UNL     1      45.684   4.417  12.608  0.00  0.00    +0.000 NA
ENDROOT
BRANCH   1   7
ATOM      7  O   UNL     1      44.122   4.441  10.856  0.00  0.00    +0.000 OA
BRANCH   7   8
ATOM      8  C   UNL     1      44.281   4.680   9.454  0.00  0.00    +0.000 C 
BRANCH   8  13
ATOM      9  C   UNL     1      46.467   2.541   7.161  0.00  0.00    +0.000 A 
ATOM     10  C   UNL     1      46.261   1.265   7.697  0.00  0.00    +0.000 A 
ATOM     11  C   UNL     1      45.381   1.092   8.766  0.00  0.00    +0.000 A 
ATOM     12  C   UNL     1      44.720   2.193   9.312  0.00  0.00    +0.000 A 
ATOM     13  C   UNL     1      44.924   3.480   8.794  0.00  0.00    +0.000 A 
ATOM     14  C   UNL     1      45.794   3.644   7.706  0.00  0.00    +0.000 A 
BRANCH   9  16
ATOM     15  N   UNL     1      48.779   2.753   6.409  0.00  0.00    +0.000 N 
ATOM     16  C   UNL     1      47.455   2.778   6.074  0.00  0.00    +0.000 C 
ATOM     17  O   UNL     1      47.103   2.983   4.918  0.00  0.00    +0.000 OA
ATOM     18  H   UNL     1      49.439   2.863   5.650  0.00  0.00    +0.000 HD
ATOM     19  H   UNL     1      49.117   2.370   7.280  0.00  0.00    +0.000 HD
ENDBRANCH   9  16
ENDBRANCH   8  13
ENDBRANCH   7   8
ENDBRANCH   1   7
BRANCH   4  20
ATOM     20  C   UNL     1      48.141   7.002  13.841  0.00  0.00    +0.000 C 
BRANCH  20  21
ATOM     21  N   UNL     1      48.066   6.678  15.242  0.00  0.00    +0.000 N 
ATOM     22  C   UNL     1      49.174   6.420  16.021  0.00  0.00    +0.000 C 
ATOM     23  O   UNL     1      50.324   6.505  15.612  0.00  0.00    +0.000 OA
ATOM     24  H   UNL     1      47.207   6.220  15.527  0.00  0.00    +0.000 HD
BRANCH  22  25
ATOM     25  C   UNL     1      48.887   6.095  17.421  0.00  0.00    +0.000 A 
ATOM     26  C   UNL     1      49.123   4.819  17.909  0.00  0.00    +0.000 A 
ATOM     27  S   UNL     1      48.789   4.656  19.575  0.00  0.00    +0.000 S 
ATOM     28  C   UNL     1      48.270   6.275  19.685  0.00  0.00    +0.000 A 
ATOM     29  N   UNL     1      47.828   6.795  20.862  0.00  0.00    +0.000 NA
ATOM     30  C   UNL     1      47.435   8.024  20.784  0.00  0.00    +0.000 A 
ATOM     31  N   UNL     1      47.444   8.779  19.643  0.00  0.00    +0.000 N 
ATOM     32  C   UNL     1      47.919   8.309  18.442  0.00  0.00    +0.000 A 
ATOM     33  O   UNL     1      47.983   9.028  17.451  0.00  0.00    +0.000 OA
ATOM     34  C   UNL     1      48.361   6.930  18.473  0.00  0.00    +0.000 A 
ATOM     35  H   UNL     1      47.134   9.740  19.653  0.00  0.00    +0.000 HD
ENDBRANCH  22  25
ENDBRANCH  20  21
ENDBRANCH   4  20
TORSDOF 7
ENDMDL
MODEL 4
REMARK VINA RESULT:    -7.577      2.707      8.479
REMARK INTER + INTRA:         -11.837
REMARK INTER:                 -10.287
REMARK INTRA:                  -1.550
REMARK UNBOUND:                -1.159
REMARK  Name = 
REMARK  7 active torsions:
REMARK  status: ('A' for Active; 'I' for Inactive)
REMARK    1  A    between atoms: C_2  and  C_4
REMARK    2  A    between atoms: C_8  and  C_9
REMARK    3  A    between atoms: C_9  and  O_10
REMARK    4  A    between atoms: O_10  and  C_11
REMARK    5  A    between atoms: C_14  and  C_15
REMARK    6  A    between atoms: C_15  and  N_16
REMARK    7  A    between atoms: C_17  and  C_19
REMARK                            x       y       z     vdW  Elec       q    Type
REMARK                         _______ _______ _______ _____ _____    ______ ____
ROOT
ATOM      1  C   UNL     1      49.519   8.369  15.597  0.00  0.00    +0.000 A 
ATOM      2  C   UNL     1      50.300   7.745  14.637  0.00  0.00    +0.000 A 
ATOM      3  C   UNL     1      49.761   7.556  13.363  0.00  0.00    +0.000 A 
ATOM      4  C   UNL     1      48.449   7.965  13.104  0.00  0.00    +0.000 A 
ATOM      5  C   UNL     1      47.750   8.559  14.146  0.00  0.00    +0.000 A 
ATOM      6  N   UNL     1      48.250   8.765  15.383  0.00  0.00    +0.000 NA
ENDROOT
BRANCH   1   7
ATOM      7  O   UNL     1      50.070   8.550  16.850  0.00  0.00    +0.000 OA
BRANCH   7   8
ATOM      8  C   UNL     1      49.319   7.853  17.849  0.00  0.00    +0.000 C 
BRANCH   8  13
ATOM      9  C   UNL     1      48.936   4.104  17.209  0.00  0.00    +0.000 A 
ATOM     10  C   UNL     1      50.232   3.647  17.474  0.00  0.00    +0.000 A 
ATOM     11  C   UNL     1      51.212   4.541  17.904  0.00  0.00    +0.000 A 
ATOM     12  C   UNL     1      50.906   5.895  18.053  0.00  0.00    +0.000 A 
ATOM     13  C   UNL     1      49.616   6.371  17.780  0.00  0.00    +0.000 A 
ATOM     14  C   UNL     1      48.630   5.463  17.368  0.00  0.00    +0.000 A 
BRANCH   9  16
ATOM     15  N   UNL     1      46.878   2.832  17.523  0.00  0.00    +0.000 N 
ATOM     16  C   UNL     1      47.885   3.197  16.675  0.00  0.00    +0.000 C 
ATOM     17  O   UNL     1      47.909   2.794  15.518  0.00  0.00    +0.000 OA
ATOM     18  H   UNL     1      46.143   2.259  17.129  0.00  0.00    +0.000 HD
ATOM     19  H   UNL     1      46.693   3.310  18.393  0.00  0.00    +0.000 HD
ENDBRANCH   9  16
ENDBRANCH   8  13
ENDBRANCH   7   8
ENDBRANCH   1   7
BRANCH   4  20
ATOM     20  C   UNL     1      47.798   7.820  11.758  0.00  0.00    +0.000 C 
BRANCH  20  21
ATOM     21  N   UNL     1      47.011   6.620  11.630  0.00  0.00    +0.000 N 
ATOM     22  C   UNL     1      45.632   6.613  11.644  0.00  0.00    +0.000 C 
ATOM     23  O   UNL     1      44.950   7.627  11.702  0.00  0.00    +0.000 OA
ATOM     24  H   UNL     1      47.463   5.777  11.968  0.00  0.00    +0.000 HD
BRANCH  22  25
ATOM     25  C   UNL     1      45.017   5.289  11.514  0.00  0.00    +0.000 A 
ATOM     26  C   UNL     1      44.341   4.721  12.583  0.00  0.00    +0.000 A 
ATOM     27  S   UNL     1      43.640   3.208  12.215  0.00  0.00    +0.000 S 
ATOM     28  C   UNL     1      44.261   3.243  10.630  0.00  0.00    +0.000 A 
ATOM     29  N   UNL     1      44.037   2.220   9.762  0.00  0.00    +0.000 NA
ATOM     30  C   UNL     1      44.599   2.370   8.608  0.00  0.00    +0.000 A 
ATOM     31  N   UNL     1      45.363   3.446   8.242  0.00  0.00    +0.000 N 
ATOM     32  C   UNL     1      45.583   4.519   9.071  0.00  0.00    +0.000 A 
ATOM     33  O   UNL     1      46.212   5.502   8.695  0.00  0.00    +0.000 OA
ATOM     34  C   UNL     1      44.982   4.394  10.383  0.00  0.00    +0.000 A 
ATOM     35  H   UNL     1      45.765   3.507   7.319  0.00  0.00    +0.000 HD
ENDBRANCH  22  25
ENDBRANCH  20  21
ENDBRANCH   4  20
TORSDOF 7
ENDMDL
MODEL 5
REMARK VINA RESULT:    -7.536      2.394      2.586
REMARK INTER + INTRA:         -11.779
REMARK INTER:                 -10.719
REMARK INTRA:                  -1.060
REMARK UNBOUND:                -1.159
REMARK  Name = 
REMARK  7 active torsions:
REMARK  status: ('A' for Active; 'I' for Inactive)
REMARK    1  A    between atoms: C_2  and  C_4
REMARK    2  A    between atoms: C_8  and  C_9
REMARK    3  A    between atoms: C_9  and  O_10
REMARK    4  A    between atoms: O_10  and  C_11
REMARK    5  A    between atoms: C_14  and  C_15
REMARK    6  A    between atoms: C_15  and  N_16
REMARK    7  A    between atoms: C_17  and  C_19
REMARK                            x       y       z     vdW  Elec       q    Type
REMARK                         _______ _______ _______ _____ _____    ______ ____
ROOT
ATOM      1  C   UNL     1      45.521   6.234  11.844  0.00  0.00    +0.000 A 
ATOM      2  C   UNL     1      46.710   5.804  12.413  0.00  0.00    +0.000 A 
ATOM      3  C   UNL     1      47.453   6.714  13.168  0.00  0.00    +0.000 A 
ATOM      4  C   UNL     1      46.999   8.030  13.299  0.00  0.00    +0.000 A 
ATOM      5  C   UNL     1      45.805   8.358  12.669  0.00  0.00    +0.000 A 
ATOM      6  N   UNL     1      45.062   7.496  11.943  0.00  0.00    +0.000 NA
ENDROOT
BRANCH   1   7
ATOM      7  O   UNL     1      44.799   5.319  11.104  0.00  0.00    +0.000 OA
BRANCH   7   8
ATOM      8  C   UNL     1      45.106   5.428   9.710  0.00  0.00    +0.000 C 
BRANCH   8  13
ATOM      9  C   UNL     1      46.434   2.556   7.565  0.00  0.00    +0.000 A 
ATOM     10  C   UNL     1      45.774   1.461   8.133  0.00  0.00    +0.000 A 
ATOM     11  C   UNL     1      44.867   1.658   9.175  0.00  0.00    +0.000 A 
ATOM     12  C   UNL     1      44.631   2.945   9.662  0.00  0.00    +0.000 A 
ATOM     13  C   UNL     1      45.293   4.052   9.111  0.00  0.00    +0.000 A 
ATOM     14  C   UNL     1      46.188   3.848   8.051  0.00  0.00    +0.000 A 
BRANCH   9  16
ATOM     15  N   UNL     1      47.332   3.123   5.368  0.00  0.00    +0.000 N 
ATOM     16  C   UNL     1      47.465   2.381   6.507  0.00  0.00    +0.000 C 
ATOM     17  O   UNL     1      48.405   1.608   6.646  0.00  0.00    +0.000 OA
ATOM     18  H   UNL     1      48.069   3.032   4.681  0.00  0.00    +0.000 HD
ATOM     19  H   UNL     1      46.719   3.923   5.303  0.00  0.00    +0.000 HD
ENDBRANCH   9  16
ENDBRANCH   8  13
ENDBRANCH   7   8
ENDBRANCH   1   7
BRANCH   4  20
ATOM     20  C   UNL     1      47.723   9.066  14.110  0.00  0.00    +0.000 C 
BRANCH  20  21
ATOM     21  N   UNL     1      47.551   8.903  15.530  0.00  0.00    +0.000 N 
ATOM     22  C   UNL     1      48.322   9.557  16.468  0.00  0.00    +0.000 C 
ATOM     23  O   UNL     1      49.180  10.381  16.183  0.00  0.00    +0.000 OA
ATOM     24  H   UNL     1      47.175   8.004  15.813  0.00  0.00    +0.000 HD
BRANCH  22  25
ATOM     25  C   UNL     1      48.000   9.247  17.863  0.00  0.00    +0.000 A 
ATOM     26  C   UNL     1      47.630  10.255  18.740  0.00  0.00    +0.000 A 
ATOM     27  S   UNL     1      47.231   9.686  20.299  0.00  0.00    +0.000 S 
ATOM     28  C   UNL     1      47.589   8.078  19.864  0.00  0.00    +0.000 A 
ATOM     29  N   UNL     1      47.469   7.062  20.761  0.00  0.00    +0.000 NA
ATOM     30  C   UNL     1      47.808   5.904  20.298  0.00  0.00    +0.000 A 
ATOM     31  N   UNL     1      48.254   5.668  19.026  0.00  0.00    +0.000 N 
ATOM     32  C   UNL     1      48.354   6.656  18.076  0.00  0.00    +0.000 A 
ATOM     33  O   UNL     1      48.689   6.407  16.923  0.00  0.00    +0.000 OA
ATOM     34  C   UNL     1      47.995   7.977  18.549  0.00  0.00    +0.000 A 
ATOM     35  H   UNL     1      48.493   4.735  18.723  0.00  0.00    +0.000 HD
ENDBRANCH  22  25
ENDBRANCH  20  21
ENDBRANCH   4  20
TORSDOF 7
ENDMDL
MODEL 6
REMARK VINA RESULT:    -7.392      2.516      4.244
REMARK INTER + INTRA:         -11.577
REMARK INTER:                 -10.797
REMARK INTRA:                  -0.780
REMARK UNBOUND:                -1.159
REMARK  Name = 
REMARK  7 active torsions:
REMARK  status: ('A' for Active; 'I' for Inactive)
REMARK    1  A    between atoms: C_2  and  C_4
REMARK    2  A    between atoms: C_8  and  C_9
REMARK    3  A    between atoms: C_9  and  O_10
REMARK    4  A    between atoms: O_10  and  C_11
REMARK    5  A    between atoms: C_14  and  C_15
REMARK    6  A    between atoms: C_15  and  N_16
REMARK    7  A    between atoms: C_17  and  C_19
REMARK                            x       y       z     vdW  Elec       q    Type
REMARK                         _______ _______ _______ _____ _____    ______ ____
ROOT
ATOM      1  C   UNL     1      44.511   4.261  12.015  0.00  0.00    +0.000 A 
ATOM      2  C   UNL     1      45.333   3.224  12.426  0.00  0.00    +0.000 A 
ATOM      3  C   UNL     1      46.313   3.492  13.383  0.00  0.00    +0.000 A 
ATOM      4  C   UNL     1      46.460   4.795  13.870  0.00  0.00    +0.000 A 
ATOM      5  C   UNL     1      45.596   5.762  13.372  0.00  0.00    +0.000 A 
ATOM      6  N   UNL     1      44.633   5.528  12.455  0.00  0.00    +0.000 NA
ENDROOT
BRANCH   1   7
ATOM      7  O   UNL     1      43.545   3.976  11.069  0.00  0.00    +0.000 OA
BRANCH   7   8
ATOM      8  C   UNL     1      43.863   2.779  10.353  0.00  0.00    +0.000 C 
BRANCH   8  13
ATOM      9  C   UNL     1      46.568   2.275   7.698  0.00  0.00    +0.000 A 
ATOM     10  C   UNL     1      46.752   3.586   7.242  0.00  0.00    +0.000 A 
ATOM     11  C   UNL     1      46.038   4.633   7.825  0.00  0.00    +0.000 A 
ATOM     12  C   UNL     1      45.127   4.373   8.850  0.00  0.00    +0.000 A 
ATOM     13  C   UNL     1      44.922   3.064   9.311  0.00  0.00    +0.000 A 
ATOM     14  C   UNL     1      45.658   2.019   8.735  0.00  0.00    +0.000 A 
BRANCH   9  16
ATOM     15  N   UNL     1      46.886  -0.131   7.454  0.00  0.00    +0.000 N 
ATOM     16  C   UNL     1      47.250   1.123   7.052  0.00  0.00    +0.000 C 
ATOM     17  O   UNL     1      48.102   1.282   6.187  0.00  0.00    +0.000 OA
ATOM     18  H   UNL     1      47.320  -0.905   6.967  0.00  0.00    +0.000 HD
ATOM     19  H   UNL     1      46.046  -0.315   7.983  0.00  0.00    +0.000 HD
ENDBRANCH   9  16
ENDBRANCH   8  13
ENDBRANCH   7   8
ENDBRANCH   1   7
BRANCH   4  20
ATOM     20  C   UNL     1      47.472   5.167  14.915  0.00  0.00    +0.000 C 
BRANCH  20  21
ATOM     21  N   UNL     1      48.009   6.492  14.744  0.00  0.00    +0.000 N 
ATOM     22  C   UNL     1      49.203   6.905  15.298  0.00  0.00    +0.000 C 
ATOM     23  O   UNL     1      49.945   6.167  15.933  0.00  0.00    +0.000 OA
ATOM     24  H   UNL     1      47.315   7.216  14.595  0.00  0.00    +0.000 HD
BRANCH  22  25
ATOM     25  C   UNL     1      49.570   8.296  15.019  0.00  0.00    +0.000 A 
ATOM     26  C   UNL     1      49.688   9.212  16.053  0.00  0.00    +0.000 A 
ATOM     27  S   UNL     1      50.186  10.760  15.533  0.00  0.00    +0.000 S 
ATOM     28  C   UNL     1      50.211  10.266  13.903  0.00  0.00    +0.000 A 
ATOM     29  N   UNL     1      50.549  11.131  12.909  0.00  0.00    +0.000 NA
ATOM     30  C   UNL     1      50.490  10.624  11.722  0.00  0.00    +0.000 A 
ATOM     31  N   UNL     1      50.125   9.336  11.437  0.00  0.00    +0.000 N 
ATOM     32  C   UNL     1      49.815   8.417  12.410  0.00  0.00    +0.000 A 
ATOM     33  O   UNL     1      49.560   7.250  12.133  0.00  0.00    +0.000 OA
ATOM     34  C   UNL     1      49.855   8.940  13.760  0.00  0.00    +0.000 A 
ATOM     35  H   UNL     1      50.111   8.999  10.486  0.00  0.00    +0.000 HD
ENDBRANCH  22  25
ENDBRANCH  20  21
ENDBRANCH   4  20
TORSDOF 7
ENDMDL
MODEL 7
REMARK VINA RESULT:    -7.280      2.300      2.663
REMARK INTER + INTRA:         -11.419
REMARK INTER:                 -10.487
REMARK INTRA:                  -0.931
REMARK UNBOUND:                -1.159
REMARK  Name = 
REMARK  7 active torsions:
REMARK  status: ('A' for Active; 'I' for Inactive)
REMARK    1  A    between atoms: C_2  and  C_4
REMARK    2  A    between atoms: C_8  and  C_9
REMARK    3  A    between atoms: C_9  and  O_10
REMARK    4  A    between atoms: O_10  and  C_11
REMARK    5  A    between atoms: C_14  and  C_15
REMARK    6  A    between atoms: C_15  and  N_16
REMARK    7  A    between atoms: C_17  and  C_19
REMARK                            x       y       z     vdW  Elec       q    Type
REMARK                         _______ _______ _______ _____ _____    ______ ____
ROOT
ATOM      1  C   UNL     1      45.981   5.802  12.941  0.00  0.00    +0.000 A 
ATOM      2  C   UNL     1      46.694   4.966  13.785  0.00  0.00    +0.000 A 
ATOM      3  C   UNL     1      47.733   5.513  14.540  0.00  0.00    +0.000 A 
ATOM      4  C   UNL     1      48.045   6.868  14.400  0.00  0.00    +0.000 A 
ATOM      5  C   UNL     1      47.279   7.609  13.508  0.00  0.00    +0.000 A 
ATOM      6  N   UNL     1      46.262   7.108  12.774  0.00  0.00    +0.000 NA
ENDROOT
BRANCH   1   7
ATOM      7  O   UNL     1      44.954   5.244  12.204  0.00  0.00    +0.000 OA
BRANCH   7   8
ATOM      8  C   UNL     1      45.006   5.676  10.841  0.00  0.00    +0.000 C 
BRANCH   8  13
ATOM      9  C   UNL     1      45.936   3.359   7.946  0.00  0.00    +0.000 A 
ATOM     10  C   UNL     1      45.271   2.183   8.312  0.00  0.00    +0.000 A 
ATOM     11  C   UNL     1      44.487   2.155   9.465  0.00  0.00    +0.000 A 
ATOM     12  C   UNL     1      44.379   3.294  10.265  0.00  0.00    +0.000 A 
ATOM     13  C   UNL     1      45.048   4.478   9.918  0.00  0.00    +0.000 A 
ATOM     14  C   UNL     1      45.817   4.504   8.746  0.00  0.00    +0.000 A 
BRANCH   9  16
ATOM     15  N   UNL     1      48.037   2.753   6.865  0.00  0.00    +0.000 N 
ATOM     16  C   UNL     1      46.842   3.407   6.768  0.00  0.00    +0.000 C 
ATOM     17  O   UNL     1      46.534   4.002   5.742  0.00  0.00    +0.000 OA
ATOM     18  H   UNL     1      48.619   2.750   6.038  0.00  0.00    +0.000 HD
ATOM     19  H   UNL     1      48.233   2.072   7.586  0.00  0.00    +0.000 HD
ENDBRANCH   9  16
ENDBRANCH   8  13
ENDBRANCH   7   8
ENDBRANCH   1   7
BRANCH   4  20
ATOM     20  C   UNL     1      49.130   7.543  15.187  0.00  0.00    +0.000 C 
BRANCH  20  21
ATOM     21  N   UNL     1      50.096   6.624  15.732  0.00  0.00    +0.000 N 
ATOM     22  C   UNL     1      49.978   6.050  16.981  0.00  0.00    +0.000 C 
ATOM     23  O   UNL     1      49.013   6.218  17.714  0.00  0.00    +0.000 OA
ATOM     24  H   UNL     1      51.042   6.749  15.389  0.00  0.00    +0.000 HD
BRANCH  22  25
ATOM     25  C   UNL     1      51.073   5.152  17.358  0.00  0.00    +0.000 A 
ATOM     26  C   UNL     1      52.296   5.666  17.761  0.00  0.00    +0.000 A 
ATOM     27  S   UNL     1      53.418   4.465  18.221  0.00  0.00    +0.000 S 
ATOM     28  C   UNL     1      52.320   3.217  17.849  0.00  0.00    +0.000 A 
ATOM     29  N   UNL     1      52.659   1.909  18.006  0.00  0.00    +0.000 NA
ATOM     30  C   UNL     1      51.737   1.076  17.651  0.00  0.00    +0.000 A 
ATOM     31  N   UNL     1      50.511   1.428  17.155  0.00  0.00    +0.000 N 
ATOM     32  C   UNL     1      50.111   2.736  17.017  0.00  0.00    +0.000 A 
ATOM     33  O   UNL     1      48.981   3.025  16.637  0.00  0.00    +0.000 OA
ATOM     34  C   UNL     1      51.114   3.710  17.392  0.00  0.00    +0.000 A 
ATOM     35  H   UNL     1      49.830   0.726  16.907  0.00  0.00    +0.000 HD
ENDBRANCH  22  25
ENDBRANCH  20  21
ENDBRANCH   4  20
TORSDOF 7
ENDMDL
MODEL 8
REMARK VINA RESULT:    -6.996      4.165      8.405
REMARK INTER + INTRA:         -11.017
REMARK INTER:                  -9.047
REMARK INTRA:                  -1.970
REMARK UNBOUND:                -1.159
REMARK  Name = 
REMARK  7 active torsions:
REMARK  status: ('A' for Active; 'I' for Inactive)
REMARK    1  A    between atoms: C_2  and  C_4
REMARK    2  A    between atoms: C_8  and  C_9
REMARK    3  A    between atoms: C_9  and  O_10
REMARK    4  A    between atoms: O_10  and  C_11
REMARK    5  A    between atoms: C_14  and  C_15
REMARK    6  A    between atoms: C_15  and  N_16
REMARK    7  A    between atoms: C_17  and  C_19
REMARK                            x       y       z     vdW  Elec       q    Type
REMARK                         _______ _______ _______ _____ _____    ______ ____
ROOT
ATOM      1  C   UNL     1      49.989   7.923  18.853  0.00  0.00    +0.000 A 
ATOM      2  C   UNL     1      50.833   8.398  17.862  0.00  0.00    +0.000 A 
ATOM      3  C   UNL     1      50.267   9.036  16.757  0.00  0.00    +0.000 A 
ATOM      4  C   UNL     1      48.876   9.145  16.664  0.00  0.00    +0.000 A 
ATOM      5  C   UNL     1      48.125   8.613  17.705  0.00  0.00    +0.000 A 
ATOM      6  N   UNL     1      48.647   8.002  18.790  0.00  0.00    +0.000 NA
ENDROOT
BRANCH   1   7
ATOM      7  O   UNL     1      50.567   7.298  19.941  0.00  0.00    +0.000 OA
BRANCH   7   8
ATOM      8  C   UNL     1      49.830   6.130  20.315  0.00  0.00    +0.000 C 
BRANCH   8  13
ATOM      9  C   UNL     1      49.391   3.380  17.695  0.00  0.00    +0.000 A 
ATOM     10  C   UNL     1      50.722   3.026  17.445  0.00  0.00    +0.000 A 
ATOM     11  C   UNL     1      51.753   3.641  18.155  0.00  0.00    +0.000 A 
ATOM     12  C   UNL     1      51.460   4.622  19.103  0.00  0.00    +0.000 A 
ATOM     13  C   UNL     1      50.133   4.997  19.359  0.00  0.00    +0.000 A 
ATOM     14  C   UNL     1      49.100   4.360  18.655  0.00  0.00    +0.000 A 
BRANCH   9  16
ATOM     15  N   UNL     1      47.028   2.815  17.475  0.00  0.00    +0.000 N 
ATOM     16  C   UNL     1      48.270   2.805  16.905  0.00  0.00    +0.000 C 
ATOM     17  O   UNL     1      48.443   2.344  15.784  0.00  0.00    +0.000 OA
ATOM     18  H   UNL     1      46.268   2.470  16.904  0.00  0.00    +0.000 HD
ATOM     19  H   UNL     1      46.799   3.379  18.281  0.00  0.00    +0.000 HD
ENDBRANCH   9  16
ENDBRANCH   8  13
ENDBRANCH   7   8
ENDBRANCH   1   7
BRANCH   4  20
ATOM     20  C   UNL     1      48.185   9.833  15.522  0.00  0.00    +0.000 C 
BRANCH  20  21
ATOM     21  N   UNL     1      47.297   8.969  14.788  0.00  0.00    +0.000 N 
ATOM     22  C   UNL     1      47.659   8.319  13.626  0.00  0.00    +0.000 C 
ATOM     23  O   UNL     1      48.783   8.366  13.147  0.00  0.00    +0.000 OA
ATOM     24  H   UNL     1      46.312   9.192  14.883  0.00  0.00    +0.000 HD
BRANCH  22  25
ATOM     25  C   UNL     1      46.607   7.497  13.021  0.00  0.00    +0.000 A 
ATOM     26  C   UNL     1      45.614   8.082  12.250  0.00  0.00    +0.000 A 
ATOM     27  S   UNL     1      44.523   6.953  11.581  0.00  0.00    +0.000 S 
ATOM     28  C   UNL     1      45.315   5.651  12.342  0.00  0.00    +0.000 A 
ATOM     29  N   UNL     1      44.873   4.373  12.194  0.00  0.00    +0.000 NA
ATOM     30  C   UNL     1      45.553   3.497  12.857  0.00  0.00    +0.000 A 
ATOM     31  N   UNL     1      46.630   3.779  13.654  0.00  0.00    +0.000 N 
ATOM     32  C   UNL     1      47.135   5.049  13.802  0.00  0.00    +0.000 A 
ATOM     33  O   UNL     1      48.143   5.266  14.464  0.00  0.00    +0.000 OA
ATOM     34  C   UNL     1      46.400   6.071  13.086  0.00  0.00    +0.000 A 
ATOM     35  H   UNL     1      47.126   3.045  14.137  0.00  0.00    +0.000 HD
ENDBRANCH  22  25
ENDBRANCH  20  21
ENDBRANCH   4  20
TORSDOF 7
ENDMDL
MODEL 9
REMARK VINA RESULT:    -6.897      2.518      3.499
REMARK INTER + INTRA:         -10.878
REMARK INTER:                 -10.130
REMARK INTRA:                  -0.748
REMARK UNBOUND:                -1.159
REMARK  Name = 
REMARK  7 active torsions:
REMARK  status: ('A' for Active; 'I' for Inactive)
REMARK    1  A    between atoms: C_2  and  C_4
REMARK    2  A    between atoms: C_8  and  C_9
REMARK    3  A    between atoms: C_9  and  O_10
REMARK    4  A    between atoms: O_10  and  C_11
REMARK    5  A    between atoms: C_14  and  C_15
REMARK    6  A    between atoms: C_15  and  N_16
REMARK    7  A    between atoms: C_17  and  C_19
REMARK                            x       y       z     vdW  Elec       q    Type
REMARK                         _______ _______ _______ _____ _____    ______ ____
ROOT
ATOM      1  C   UNL     1      46.210   5.495  12.042  0.00  0.00    +0.000 A 
ATOM      2  C   UNL     1      46.996   6.364  12.781  0.00  0.00    +0.000 A 
ATOM      3  C   UNL     1      47.417   5.963  14.050  0.00  0.00    +0.000 A 
ATOM      4  C   UNL     1      47.008   4.723  14.550  0.00  0.00    +0.000 A 
ATOM      5  C   UNL     1      46.202   3.942  13.733  0.00  0.00    +0.000 A 
ATOM      6  N   UNL     1      45.790   4.299  12.498  0.00  0.00    +0.000 NA
ENDROOT
BRANCH   1   7
ATOM      7  O   UNL     1      45.805   5.907  10.787  0.00  0.00    +0.000 OA
BRANCH   7   8
ATOM      8  C   UNL     1      44.603   5.241  10.389  0.00  0.00    +0.000 C 
BRANCH   8  13
ATOM      9  C   UNL     1      46.162   3.081   7.648  0.00  0.00    +0.000 A 
ATOM     10  C   UNL     1      45.692   1.810   8.000  0.00  0.00    +0.000 A 
ATOM     11  C   UNL     1      44.836   1.661   9.091  0.00  0.00    +0.000 A 
ATOM     12  C   UNL     1      44.462   2.776   9.843  0.00  0.00    +0.000 A 
ATOM     13  C   UNL     1      44.933   4.055   9.511  0.00  0.00    +0.000 A 
ATOM     14  C   UNL     1      45.777   4.200   8.401  0.00  0.00    +0.000 A 
BRANCH   9  16
ATOM     15  N   UNL     1      48.362   2.682   6.672  0.00  0.00    +0.000 N 
ATOM     16  C   UNL     1      47.137   3.271   6.541  0.00  0.00    +0.000 C 
ATOM     17  O   UNL     1      46.858   3.924   5.543  0.00  0.00    +0.000 OA
ATOM     18  H   UNL     1      48.995   2.776   5.888  0.00  0.00    +0.000 HD
ATOM     19  H   UNL     1      48.554   1.960   7.352  0.00  0.00    +0.000 HD
ENDBRANCH   9  16
ENDBRANCH   8  13
ENDBRANCH   7   8
ENDBRANCH   1   7
BRANCH   4  20
ATOM     20  C   UNL     1      47.431   4.204  15.894  0.00  0.00    +0.000 C 
BRANCH  20  21
ATOM     21  N   UNL     1      47.369   5.198  16.935  0.00  0.00    +0.000 N 
ATOM     22  C   UNL     1      48.215   5.209  18.025  0.00  0.00    +0.000 C 
ATOM     23  O   UNL     1      49.134   4.416  18.176  0.00  0.00    +0.000 OA
ATOM     24  H   UNL     1      46.451   5.603  17.082  0.00  0.00    +0.000 HD
BRANCH  22  25
ATOM     25  C   UNL     1      47.982   6.295  18.981  0.00  0.00    +0.000 A 
ATOM     26  C   UNL     1      47.626   6.013  20.291  0.00  0.00    +0.000 A 
ATOM     27  S   UNL     1      47.464   7.406  21.264  0.00  0.00    +0.000 S 
ATOM     28  C   UNL     1      47.817   8.432  19.951  0.00  0.00    +0.000 A 
ATOM     29  N   UNL     1      47.832   9.785  20.098  0.00  0.00    +0.000 NA
ATOM     30  C   UNL     1      48.081  10.433  19.008  0.00  0.00    +0.000 A 
ATOM     31  N   UNL     1      48.315   9.857  17.788  0.00  0.00    +0.000 N 
ATOM     32  C   UNL     1      48.348   8.496  17.602  0.00  0.00    +0.000 A 
ATOM     33  O   UNL     1      48.630   8.004  16.515  0.00  0.00    +0.000 OA
ATOM     34  C   UNL     1      48.064   7.723  18.793  0.00  0.00    +0.000 A 
ATOM     35  H   UNL     1      48.515  10.422  16.976  0.00  0.00    +0.000 HD
ENDBRANCH  22  25
ENDBRANCH  20  21
ENDBRANCH   4  20
TORSDOF 7
ENDMDL
