MODEL 1
REMARK VINA RESULT:    -7.208      0.000      0.000
REMARK INTER + INTRA:         -11.476
REMARK INTER:                 -10.579
REMARK INTRA:                  -0.897
REMARK UNBOUND:                -0.897
REMARK  Name = 
REMARK  9 active torsions:
REMARK  status: ('A' for Active; 'I' for Inactive)
REMARK    1  A    between atoms: C_1  and  C_2
REMARK    2  A    between atoms: C_2  and  C_3
REMARK    3  A    between atoms: C_3  and  C_4
REMARK    4  A    between atoms: C_6  and  C_7
REMARK    5  A    between atoms: C_7  and  C_8
REMARK    6  A    between atoms: C_8  and  C_9
REMARK    7  A    between atoms: C_13  and  N_14
REMARK    8  A    between atoms: N_14  and  C_15
REMARK    9  A    between atoms: C_22  and  C_23
REMARK                            x       y       z     vdW  Elec       q    Type
REMARK                         _______ _______ _______ _____ _____    ______ ____
ROOT
ATOM      1  C   UNL     1      46.547   6.555  11.383  0.00  0.00    +0.000 C 
ENDROOT
BRANCH   1   4
ATOM      2  C   UNL     1      48.288   6.472  14.801  0.00  0.00    +0.000 A 
ATOM      3  C   UNL     1      47.851   6.881  13.524  0.00  0.00    +0.000 A 
ATOM      4  C   UNL     1      46.997   6.086  12.747  0.00  0.00    +0.000 A 
ATOM      5  C   UNL     1      46.590   4.849  13.248  0.00  0.00    +0.000 A 
ATOM      6  C   UNL     1      46.975   4.444  14.529  0.00  0.00    +0.000 A 
ATOM      7  C   UNL     1      47.805   5.254  15.326  0.00  0.00    +0.000 A 
BRANCH   7   8
ATOM      8  C   UNL     1      48.088   4.834  16.735  0.00  0.00    +0.000 C 
ATOM      9  N   UNL     1      47.164   5.152  17.692  0.00  0.00    +0.000 N 
ATOM     10  O   UNL     1      49.106   4.235  17.055  0.00  0.00    +0.000 OA
ATOM     11  H   UNL     1      46.249   5.528  17.492  0.00  0.00    +0.000 HD
ATOM     12  H   UNL     1      47.356   4.834  18.631  0.00  0.00    +0.000 HD
ENDBRANCH   7   8
BRANCH   2  13
ATOM     13  C   UNL     1      49.301   7.352  15.508  0.00  0.00    +0.000 C 
BRANCH  13  15
ATOM     14  C   UNL     1      48.358   9.513  16.504  0.00  0.00    +0.000 C 
ATOM     15  C   UNL     1      49.058   8.858  15.323  0.00  0.00    +0.000 C 
ENDBRANCH  13  15
ENDBRANCH   2  13
ENDBRANCH   1   4
BRANCH   1  16
ATOM     16  C   UNL     1      45.084   6.190  11.119  0.00  0.00    +0.000 C 
BRANCH  16  17
ATOM     17  C   UNL     1      44.908   4.866  10.403  0.00  0.00    +0.000 A 
ATOM     18  C   UNL     1      44.193   3.818  10.993  0.00  0.00    +0.000 A 
ATOM     19  C   UNL     1      44.019   2.614  10.312  0.00  0.00    +0.000 A 
ATOM     20  C   UNL     1      44.564   2.439   9.039  0.00  0.00    +0.000 A 
ATOM     21  C   UNL     1      45.278   3.470   8.427  0.00  0.00    +0.000 A 
ATOM     22  C   UNL     1      45.428   4.684   9.115  0.00  0.00    +0.000 A 
BRANCH  21  23
ATOM     23  N   UNL     1      45.809   3.371   7.122  0.00  0.00    +0.000 N 
ATOM     24  H   UNL     1      45.197   2.771   6.566  0.00  0.00    +0.000 HD
BRANCH  23  25
ATOM     25  C   UNL     1      47.200   3.164   6.803  0.00  0.00    +0.000 C 
ATOM     26  C   UNL     1      47.420   2.877   5.302  0.00  0.00    +0.000 C 
ATOM     27  N   UNL     1      48.257   1.713   5.649  0.00  0.00    +0.000 NA
ATOM     28  C   UNL     1      47.737   1.740   7.030  0.00  0.00    +0.000 C 
ATOM     29  H   UNL     1      49.257   1.906   5.586  0.00  0.00    +0.000 HD
ENDBRANCH  23  25
ENDBRANCH  21  23
ENDBRANCH  16  17
ENDBRANCH   1  16
TORSDOF 8
ENDMDL
MODEL 2
REMARK VINA RESULT:    -7.130      1.079      2.349
REMARK INTER + INTRA:         -11.362
REMARK INTER:                 -10.218
REMARK INTRA:                  -1.145
REMARK UNBOUND:                -0.897
REMARK  Name = 
REMARK  9 active torsions:
REMARK  status: ('A' for Active; 'I' for Inactive)
REMARK    1  A    between atoms: C_1  and  C_2
REMARK    2  A    between atoms: C_2  and  C_3
REMARK    3  A    between atoms: C_3  and  C_4
REMARK    4  A    between atoms: C_6  and  C_7
REMARK    5  A    between atoms: C_7  and  C_8
REMARK    6  A    between atoms: C_8  and  C_9
REMARK    7  A    between atoms: C_13  and  N_14
REMARK    8  A    between atoms: N_14  and  C_15
REMARK    9  A    between atoms: C_22  and  C_23
REMARK                            x       y       z     vdW  Elec       q    Type
REMARK                         _______ _______ _______ _____ _____    ______ ____
ROOT
ATOM      1  C   UNL     1      46.801   6.612  11.124  0.00  0.00    +0.000 C 
ENDROOT
BRANCH   1   4
ATOM      2  C   UNL     1      47.556   5.377  14.677  0.00  0.00    +0.000 A 
ATOM      3  C   UNL     1      47.051   5.466  13.363  0.00  0.00    +0.000 A 
ATOM      4  C   UNL     1      47.359   6.547  12.526  0.00  0.00    +0.000 A 
ATOM      5  C   UNL     1      48.172   7.570  13.020  0.00  0.00    +0.000 A 
ATOM      6  C   UNL     1      48.720   7.478  14.302  0.00  0.00    +0.000 A 
ATOM      7  C   UNL     1      48.440   6.378  15.133  0.00  0.00    +0.000 A 
BRANCH   7   8
ATOM      8  C   UNL     1      49.147   6.266  16.448  0.00  0.00    +0.000 C 
ATOM      9  N   UNL     1      48.533   6.801  17.548  0.00  0.00    +0.000 N 
ATOM     10  O   UNL     1      50.240   5.730  16.569  0.00  0.00    +0.000 OA
ATOM     11  H   UNL     1      47.584   7.143  17.556  0.00  0.00    +0.000 HD
ATOM     12  H   UNL     1      49.010   6.689  18.432  0.00  0.00    +0.000 HD
ENDBRANCH   7   8
BRANCH   2  13
ATOM     13  C   UNL     1      47.068   4.227  15.536  0.00  0.00    +0.000 C 
BRANCH  13  15
ATOM     14  C   UNL     1      48.530   2.663  16.939  0.00  0.00    +0.000 C 
ATOM     15  C   UNL     1      48.011   3.013  15.552  0.00  0.00    +0.000 C 
ENDBRANCH  13  15
ENDBRANCH   2  13
ENDBRANCH   1   4
BRANCH   1  16
ATOM     16  C   UNL     1      45.318   6.230  11.092  0.00  0.00    +0.000 C 
BRANCH  16  17
ATOM     17  C   UNL     1      45.049   4.897  10.424  0.00  0.00    +0.000 A 
ATOM     18  C   UNL     1      44.313   3.901  11.076  0.00  0.00    +0.000 A 
ATOM     19  C   UNL     1      44.053   2.688  10.440  0.00  0.00    +0.000 A 
ATOM     20  C   UNL     1      44.532   2.451   9.150  0.00  0.00    +0.000 A 
ATOM     21  C   UNL     1      45.266   3.429   8.477  0.00  0.00    +0.000 A 
ATOM     22  C   UNL     1      45.502   4.654   9.121  0.00  0.00    +0.000 A 
BRANCH  21  23
ATOM     23  N   UNL     1      45.733   3.268   7.154  0.00  0.00    +0.000 N 
ATOM     24  H   UNL     1      45.180   2.539   6.700  0.00  0.00    +0.000 HD
BRANCH  23  25
ATOM     25  C   UNL     1      47.120   3.214   6.761  0.00  0.00    +0.000 C 
ATOM     26  C   UNL     1      47.292   2.846   5.273  0.00  0.00    +0.000 C 
ATOM     27  N   UNL     1      48.292   1.826   5.643  0.00  0.00    +0.000 NA
ATOM     28  C   UNL     1      47.848   1.890   7.050  0.00  0.00    +0.000 C 
ATOM     29  H   UNL     1      49.253   2.137   5.504  0.00  0.00    +0.000 HD
ENDBRANCH  23  25
ENDBRANCH  21  23
ENDBRANCH  16  17
ENDBRANCH   1  16
TORSDOF 8
ENDMDL
MODEL 3
REMARK VINA RESULT:    -6.813      2.257      2.723
REMARK INTER + INTRA:         -10.897
REMARK INTER:                  -9.638
REMARK INTRA:                  -1.259
REMARK UNBOUND:                -0.897
REMARK  Name = 
REMARK  9 active torsions:
REMARK  status: ('A' for Active; 'I' for Inactive)
REMARK    1  A    between atoms: C_1  and  C_2
REMARK    2  A    between atoms: C_2  and  C_3
REMARK    3  A    between atoms: C_3  and  C_4
REMARK    4  A    between atoms: C_6  and  C_7
REMARK    5  A    between atoms: C_7  and  C_8
REMARK    6  A    between atoms: C_8  and  C_9
REMARK    7  A    between atoms: C_13  and  N_14
REMARK    8  A    between atoms: N_14  and  C_15
REMARK    9  A    between atoms: C_22  and  C_23
REMARK                            x       y       z     vdW  Elec       q    Type
REMARK                         _______ _______ _______ _____ _____    ______ ____
ROOT
ATOM      1  C   UNL     1      44.419   6.125  12.463  0.00  0.00    +0.000 C 
ENDROOT
BRANCH   1   4
ATOM      2  C   UNL     1      47.504   8.352  12.959  0.00  0.00    +0.000 A 
ATOM      3  C   UNL     1      46.187   7.916  12.702  0.00  0.00    +0.000 A 
ATOM      4  C   UNL     1      45.839   6.559  12.743  0.00  0.00    +0.000 A 
ATOM      5  C   UNL     1      46.830   5.618  13.026  0.00  0.00    +0.000 A 
ATOM      6  C   UNL     1      48.130   6.033  13.328  0.00  0.00    +0.000 A 
ATOM      7  C   UNL     1      48.477   7.396  13.321  0.00  0.00    +0.000 A 
BRANCH   7   8
ATOM      8  C   UNL     1      49.847   7.797  13.769  0.00  0.00    +0.000 C 
ATOM      9  N   UNL     1      50.853   7.775  12.842  0.00  0.00    +0.000 N 
ATOM     10  O   UNL     1      50.096   8.130  14.920  0.00  0.00    +0.000 OA
ATOM     11  H   UNL     1      50.707   7.637  11.853  0.00  0.00    +0.000 HD
ATOM     12  H   UNL     1      51.765   8.078  13.154  0.00  0.00    +0.000 HD
ENDBRANCH   7   8
BRANCH   2  13
ATOM     13  C   UNL     1      47.798   9.828  12.774  0.00  0.00    +0.000 C 
BRANCH  13  15
ATOM     14  C   UNL     1      49.600  11.040  11.418  0.00  0.00    +0.000 C 
ATOM     15  C   UNL     1      48.339  10.188  11.381  0.00  0.00    +0.000 C 
ENDBRANCH  13  15
ENDBRANCH   2  13
ENDBRANCH   1   4
BRANCH   1  16
ATOM     16  C   UNL     1      44.134   6.074  10.960  0.00  0.00    +0.000 C 
BRANCH  16  17
ATOM     17  C   UNL     1      44.345   4.705  10.347  0.00  0.00    +0.000 A 
ATOM     18  C   UNL     1      43.924   3.547  11.010  0.00  0.00    +0.000 A 
ATOM     19  C   UNL     1      44.104   2.295  10.423  0.00  0.00    +0.000 A 
ATOM     20  C   UNL     1      44.715   2.184   9.173  0.00  0.00    +0.000 A 
ATOM     21  C   UNL     1      45.141   3.323   8.490  0.00  0.00    +0.000 A 
ATOM     22  C   UNL     1      44.935   4.579   9.082  0.00  0.00    +0.000 A 
BRANCH  21  23
ATOM     23  N   UNL     1      45.719   3.279   7.202  0.00  0.00    +0.000 N 
ATOM     24  H   UNL     1      45.136   2.692   6.603  0.00  0.00    +0.000 HD
BRANCH  23  25
ATOM     25  C   UNL     1      47.124   3.101   6.925  0.00  0.00    +0.000 C 
ATOM     26  C   UNL     1      47.406   2.932   5.418  0.00  0.00    +0.000 C 
ATOM     27  N   UNL     1      48.236   1.748   5.708  0.00  0.00    +0.000 NA
ATOM     28  C   UNL     1      47.660   1.666   7.065  0.00  0.00    +0.000 C 
ATOM     29  H   UNL     1      49.236   1.948   5.702  0.00  0.00    +0.000 HD
ENDBRANCH  23  25
ENDBRANCH  21  23
ENDBRANCH  16  17
ENDBRANCH   1  16
TORSDOF 8
ENDMDL
MODEL 4
REMARK VINA RESULT:    -6.795      2.365      2.948
REMARK INTER + INTRA:         -10.871
REMARK INTER:                  -9.797
REMARK INTRA:                  -1.074
REMARK UNBOUND:                -0.897
REMARK  Name = 
REMARK  9 active torsions:
REMARK  status: ('A' for Active; 'I' for Inactive)
REMARK    1  A    between atoms: C_1  and  C_2
REMARK    2  A    between atoms: C_2  and  C_3
REMARK    3  A    between atoms: C_3  and  C_4
REMARK    4  A    between atoms: C_6  and  C_7
REMARK    5  A    between atoms: C_7  and  C_8
REMARK    6  A    between atoms: C_8  and  C_9
REMARK    7  A    between atoms: C_13  and  N_14
REMARK    8  A    between atoms: N_14  and  C_15
REMARK    9  A    between atoms: C_22  and  C_23
REMARK                            x       y       z     vdW  Elec       q    Type
REMARK                         _______ _______ _______ _____ _____    ______ ____
ROOT
ATOM      1  C   UNL     1      45.920   5.660  12.671  0.00  0.00    +0.000 C 
ENDROOT
BRANCH   1   4
ATOM      2  C   UNL     1      49.158   7.183  14.054  0.00  0.00    +0.000 A 
ATOM      3  C   UNL     1      47.963   6.442  13.936  0.00  0.00    +0.000 A 
ATOM      4  C   UNL     1      47.195   6.465  12.765  0.00  0.00    +0.000 A 
ATOM      5  C   UNL     1      47.617   7.260  11.698  0.00  0.00    +0.000 A 
ATOM      6  C   UNL     1      48.821   7.965  11.777  0.00  0.00    +0.000 A 
ATOM      7  C   UNL     1      49.613   7.919  12.939  0.00  0.00    +0.000 A 
BRANCH   7   8
ATOM      8  C   UNL     1      50.951   8.591  12.931  0.00  0.00    +0.000 C 
ATOM      9  N   UNL     1      52.024   7.867  12.487  0.00  0.00    +0.000 N 
ATOM     10  O   UNL     1      51.115   9.743  13.310  0.00  0.00    +0.000 OA
ATOM     11  H   UNL     1      51.952   6.964  12.042  0.00  0.00    +0.000 HD
ATOM     12  H   UNL     1      52.913   8.346  12.459  0.00  0.00    +0.000 HD
ENDBRANCH   7   8
BRANCH   2  13
ATOM     13  C   UNL     1      49.851   7.180  15.404  0.00  0.00    +0.000 C 
BRANCH  13  15
ATOM     14  C   UNL     1      48.765   7.182  17.722  0.00  0.00    +0.000 C 
ATOM     15  C   UNL     1      49.120   7.993  16.484  0.00  0.00    +0.000 C 
ENDBRANCH  13  15
ENDBRANCH   2  13
ENDBRANCH   1   4
BRANCH   1  16
ATOM     16  C   UNL     1      45.182   5.927  11.356  0.00  0.00    +0.000 C 
BRANCH  16  17
ATOM     17  C   UNL     1      45.023   4.697  10.487  0.00  0.00    +0.000 A 
ATOM     18  C   UNL     1      44.281   3.595  10.927  0.00  0.00    +0.000 A 
ATOM     19  C   UNL     1      44.124   2.479  10.106  0.00  0.00    +0.000 A 
ATOM     20  C   UNL     1      44.713   2.446   8.841  0.00  0.00    +0.000 A 
ATOM     21  C   UNL     1      45.455   3.533   8.377  0.00  0.00    +0.000 A 
ATOM     22  C   UNL     1      45.588   4.659   9.205  0.00  0.00    +0.000 A 
BRANCH  21  23
ATOM     23  N   UNL     1      46.032   3.578   7.089  0.00  0.00    +0.000 N 
ATOM     24  H   UNL     1      45.456   4.177   6.495  0.00  0.00    +0.000 HD
BRANCH  23  25
ATOM     25  C   UNL     1      46.548   2.441   6.367  0.00  0.00    +0.000 C 
ATOM     26  C   UNL     1      47.862   1.908   6.977  0.00  0.00    +0.000 C 
ATOM     27  N   UNL     1      48.478   1.899   5.637  0.00  0.00    +0.000 NA
ATOM     28  C   UNL     1      47.396   2.762   5.124  0.00  0.00    +0.000 C 
ATOM     29  H   UNL     1      48.497   0.973   5.210  0.00  0.00    +0.000 HD
ENDBRANCH  23  25
ENDBRANCH  21  23
ENDBRANCH  16  17
ENDBRANCH   1  16
TORSDOF 8
ENDMDL
MODEL 5
REMARK VINA RESULT:    -6.699      4.519      7.788
REMARK INTER + INTRA:         -10.730
REMARK INTER:                  -9.504
REMARK INTRA:                  -1.225
REMARK UNBOUND:                -0.897
REMARK  Name = 
REMARK  9 active torsions:
REMARK  status: ('A' for Active; 'I' for Inactive)
REMARK    1  A    between atoms: C_1  and  C_2
REMARK    2  A    between atoms: C_2  and  C_3
REMARK    3  A    between atoms: C_3  and  C_4
REMARK    4  A    between atoms: C_6  and  C_7
REMARK    5  A    between atoms: C_7  and  C_8
REMARK    6  A    between atoms: C_8  and  C_9
REMARK    7  A    between atoms: C_13  and  N_14
REMARK    8  A    between atoms: N_14  and  C_15
REMARK    9  A    between atoms: C_22  and  C_23
REMARK                            x       y       z     vdW  Elec       q    Type
REMARK                         _______ _______ _______ _____ _____    ______ ____
ROOT
ATOM      1  C   UNL     1      47.880   7.555  11.732  0.00  0.00    +0.000 C 
ENDROOT
BRANCH   1   4
ATOM      2  C   UNL     1      45.241   5.023  10.572  0.00  0.00    +0.000 A 
ATOM      3  C   UNL     1      46.300   5.955  10.578  0.00  0.00    +0.000 A 
ATOM      4  C   UNL     1      46.742   6.562  11.761  0.00  0.00    +0.000 A 
ATOM      5  C   UNL     1      46.098   6.247  12.959  0.00  0.00    +0.000 A 
ATOM      6  C   UNL     1      45.077   5.293  12.982  0.00  0.00    +0.000 A 
ATOM      7  C   UNL     1      44.653   4.657  11.801  0.00  0.00    +0.000 A 
BRANCH   7   8
ATOM      8  C   UNL     1      43.643   3.556  11.895  0.00  0.00    +0.000 C 
ATOM      9  N   UNL     1      44.012   2.407  12.539  0.00  0.00    +0.000 N 
ATOM     10  O   UNL     1      42.520   3.645  11.417  0.00  0.00    +0.000 OA
ATOM     11  H   UNL     1      44.866   2.303  13.067  0.00  0.00    +0.000 HD
ATOM     12  H   UNL     1      43.308   1.686  12.620  0.00  0.00    +0.000 HD
ENDBRANCH   7   8
BRANCH   2  13
ATOM     13  C   UNL     1      44.766   4.515   9.224  0.00  0.00    +0.000 C 
BRANCH  13  15
ATOM     14  C   UNL     1      46.073   2.974   7.652  0.00  0.00    +0.000 C 
ATOM     15  C   UNL     1      45.881   4.391   8.174  0.00  0.00    +0.000 C 
ENDBRANCH  13  15
ENDBRANCH   2  13
ENDBRANCH   1   4
BRANCH   1  16
ATOM     16  C   UNL     1      47.627   8.726  12.686  0.00  0.00    +0.000 C 
BRANCH  16  17
ATOM     17  C   UNL     1      46.988   9.927  12.019  0.00  0.00    +0.000 A 
ATOM     18  C   UNL     1      47.728  10.756  11.169  0.00  0.00    +0.000 A 
ATOM     19  C   UNL     1      47.121  11.844  10.543  0.00  0.00    +0.000 A 
ATOM     20  C   UNL     1      45.771  12.122  10.765  0.00  0.00    +0.000 A 
ATOM     21  C   UNL     1      45.010  11.308  11.606  0.00  0.00    +0.000 A 
ATOM     22  C   UNL     1      45.628  10.204  12.213  0.00  0.00    +0.000 A 
BRANCH  21  23
ATOM     23  N   UNL     1      43.630  11.509  11.829  0.00  0.00    +0.000 N 
ATOM     24  H   UNL     1      43.421  11.279  12.802  0.00  0.00    +0.000 HD
BRANCH  23  25
ATOM     25  C   UNL     1      42.574  11.094  10.939  0.00  0.00    +0.000 C 
ATOM     26  C   UNL     1      41.217  10.962  11.663  0.00  0.00    +0.000 C 
ATOM     27  N   UNL     1      41.025   9.631  11.056  0.00  0.00    +0.000 NA
ATOM     28  C   UNL     1      42.456   9.579  10.696  0.00  0.00    +0.000 C 
ATOM     29  H   UNL     1      40.402   9.645  10.248  0.00  0.00    +0.000 HD
ENDBRANCH  23  25
ENDBRANCH  21  23
ENDBRANCH  16  17
ENDBRANCH   1  16
TORSDOF 8
ENDMDL
MODEL 6
REMARK VINA RESULT:    -6.694      2.959      7.850
REMARK INTER + INTRA:         -10.723
REMARK INTER:                  -9.412
REMARK INTRA:                  -1.310
REMARK UNBOUND:                -0.897
REMARK  Name = 
REMARK  9 active torsions:
REMARK  status: ('A' for Active; 'I' for Inactive)
REMARK    1  A    between atoms: C_1  and  C_2
REMARK    2  A    between atoms: C_2  and  C_3
REMARK    3  A    between atoms: C_3  and  C_4
REMARK    4  A    between atoms: C_6  and  C_7
REMARK    5  A    between atoms: C_7  and  C_8
REMARK    6  A    between atoms: C_8  and  C_9
REMARK    7  A    between atoms: C_13  and  N_14
REMARK    8  A    between atoms: N_14  and  C_15
REMARK    9  A    between atoms: C_22  and  C_23
REMARK                            x       y       z     vdW  Elec       q    Type
REMARK                         _______ _______ _______ _____ _____    ______ ____
ROOT
ATOM      1  C   UNL     1      47.006   8.251  11.832  0.00  0.00    +0.000 C 
ENDROOT
BRANCH   1   4
ATOM      2  C   UNL     1      45.279   5.035  10.650  0.00  0.00    +0.000 A 
ATOM      3  C   UNL     1      46.102   6.180  10.700  0.00  0.00    +0.000 A 
ATOM      4  C   UNL     1      46.111   7.033  11.811  0.00  0.00    +0.000 A 
ATOM      5  C   UNL     1      45.265   6.750  12.885  0.00  0.00    +0.000 A 
ATOM      6  C   UNL     1      44.475   5.597  12.875  0.00  0.00    +0.000 A 
ATOM      7  C   UNL     1      44.488   4.719  11.775  0.00  0.00    +0.000 A 
BRANCH   7   8
ATOM      8  C   UNL     1      43.719   3.438  11.864  0.00  0.00    +0.000 C 
ATOM      9  N   UNL     1      44.274   2.411  12.578  0.00  0.00    +0.000 N 
ATOM     10  O   UNL     1      42.634   3.277  11.320  0.00  0.00    +0.000 OA
ATOM     11  H   UNL     1      45.095   2.503  13.157  0.00  0.00    +0.000 HD
ATOM     12  H   UNL     1      43.727   1.564  12.653  0.00  0.00    +0.000 HD
ENDBRANCH   7   8
BRANCH   2  13
ATOM     13  C   UNL     1      45.259   4.246   9.355  0.00  0.00    +0.000 C 
BRANCH  13  15
ATOM     14  C   UNL     1      46.659   3.783   7.263  0.00  0.00    +0.000 C 
ATOM     15  C   UNL     1      46.163   4.824   8.256  0.00  0.00    +0.000 C 
ENDBRANCH  13  15
ENDBRANCH   2  13
ENDBRANCH   1   4
BRANCH   1  16
ATOM     16  C   UNL     1      48.442   7.884  12.215  0.00  0.00    +0.000 C 
BRANCH  16  17
ATOM     17  C   UNL     1      48.693   7.886  13.710  0.00  0.00    +0.000 A 
ATOM     18  C   UNL     1      48.926   9.081  14.399  0.00  0.00    +0.000 A 
ATOM     19  C   UNL     1      49.131   9.070  15.778  0.00  0.00    +0.000 A 
ATOM     20  C   UNL     1      49.114   7.865  16.483  0.00  0.00    +0.000 A 
ATOM     21  C   UNL     1      48.880   6.660  15.819  0.00  0.00    +0.000 A 
ATOM     22  C   UNL     1      48.654   6.688  14.434  0.00  0.00    +0.000 A 
BRANCH  21  23
ATOM     23  N   UNL     1      48.801   5.416  16.485  0.00  0.00    +0.000 N 
ATOM     24  H   UNL     1      49.686   4.922  16.359  0.00  0.00    +0.000 HD
BRANCH  23  25
ATOM     25  C   UNL     1      47.673   4.519  16.441  0.00  0.00    +0.000 C 
ATOM     26  C   UNL     1      46.939   4.434  17.796  0.00  0.00    +0.000 C 
ATOM     27  N   UNL     1      46.966   2.961  17.716  0.00  0.00    +0.000 NA
ATOM     28  C   UNL     1      47.991   3.029  16.656  0.00  0.00    +0.000 C 
ATOM     29  H   UNL     1      46.082   2.561  17.403  0.00  0.00    +0.000 HD
ENDBRANCH  23  25
ENDBRANCH  21  23
ENDBRANCH  16  17
ENDBRANCH   1  16
TORSDOF 8
ENDMDL
MODEL 7
REMARK VINA RESULT:    -6.687      3.435      4.288
REMARK INTER + INTRA:         -10.711
REMARK INTER:                  -9.608
REMARK INTRA:                  -1.103
REMARK UNBOUND:                -0.897
REMARK  Name = 
REMARK  9 active torsions:
REMARK  status: ('A' for Active; 'I' for Inactive)
REMARK    1  A    between atoms: C_1  and  C_2
REMARK    2  A    between atoms: C_2  and  C_3
REMARK    3  A    between atoms: C_3  and  C_4
REMARK    4  A    between atoms: C_6  and  C_7
REMARK    5  A    between atoms: C_7  and  C_8
REMARK    6  A    between atoms: C_8  and  C_9
REMARK    7  A    between atoms: C_13  and  N_14
REMARK    8  A    between atoms: N_14  and  C_15
REMARK    9  A    between atoms: C_22  and  C_23
REMARK                            x       y       z     vdW  Elec       q    Type
REMARK                         _______ _______ _______ _____ _____    ______ ____
ROOT
ATOM      1  C   UNL     1      45.696   6.213  12.272  0.00  0.00    +0.000 C 
ENDROOT
BRANCH   1   4
ATOM      2  C   UNL     1      46.993   9.813  11.987  0.00  0.00    +0.000 A 
ATOM      3  C   UNL     1      46.148   8.698  12.168  0.00  0.00    +0.000 A 
ATOM      4  C   UNL     1      46.628   7.385  12.073  0.00  0.00    +0.000 A 
ATOM      5  C   UNL     1      47.976   7.182  11.770  0.00  0.00    +0.000 A 
ATOM      6  C   UNL     1      48.840   8.272  11.633  0.00  0.00    +0.000 A 
ATOM      7  C   UNL     1      48.368   9.592  11.760  0.00  0.00    +0.000 A 
BRANCH   7   8
ATOM      8  C   UNL     1      49.353  10.719  11.726  0.00  0.00    +0.000 C 
ATOM      9  N   UNL     1      49.745  11.184  10.500  0.00  0.00    +0.000 N 
ATOM     10  O   UNL     1      49.817  11.223  12.739  0.00  0.00    +0.000 OA
ATOM     11  H   UNL     1      49.318  10.911   9.628  0.00  0.00    +0.000 HD
ATOM     12  H   UNL     1      50.387  11.965  10.496  0.00  0.00    +0.000 HD
ENDBRANCH   7   8
BRANCH   2  13
ATOM     13  C   UNL     1      46.349  11.186  11.995  0.00  0.00    +0.000 C 
BRANCH  13  15
ATOM     14  C   UNL     1      46.365  12.218   9.653  0.00  0.00    +0.000 C 
ATOM     15  C   UNL     1      45.549  11.510  10.724  0.00  0.00    +0.000 C 
ENDBRANCH  13  15
ENDBRANCH   2  13
ENDBRANCH   1   4
BRANCH   1  16
ATOM     16  C   UNL     1      44.675   6.109  11.136  0.00  0.00    +0.000 C 
BRANCH  16  17
ATOM     17  C   UNL     1      44.678   4.765  10.437  0.00  0.00    +0.000 A 
ATOM     18  C   UNL     1      44.102   3.640  11.038  0.00  0.00    +0.000 A 
ATOM     19  C   UNL     1      44.092   2.414  10.373  0.00  0.00    +0.000 A 
ATOM     20  C   UNL     1      44.663   2.296   9.105  0.00  0.00    +0.000 A 
ATOM     21  C   UNL     1      45.241   3.403   8.483  0.00  0.00    +0.000 A 
ATOM     22  C   UNL     1      45.226   4.636   9.154  0.00  0.00    +0.000 A 
BRANCH  21  23
ATOM     23  N   UNL     1      45.789   3.357   7.182  0.00  0.00    +0.000 N 
ATOM     24  H   UNL     1      45.176   2.794   6.589  0.00  0.00    +0.000 HD
BRANCH  23  25
ATOM     25  C   UNL     1      47.182   3.143   6.872  0.00  0.00    +0.000 C 
ATOM     26  C   UNL     1      47.409   2.840   5.376  0.00  0.00    +0.000 C 
ATOM     27  N   UNL     1      48.241   1.677   5.739  0.00  0.00    +0.000 NA
ATOM     28  C   UNL     1      47.713   1.720   7.118  0.00  0.00    +0.000 C 
ATOM     29  H   UNL     1      49.241   1.866   5.680  0.00  0.00    +0.000 HD
ENDBRANCH  23  25
ENDBRANCH  21  23
ENDBRANCH  16  17
ENDBRANCH   1  16
TORSDOF 8
ENDMDL
MODEL 8
REMARK VINA RESULT:    -6.663      3.187      3.882
REMARK INTER + INTRA:         -10.676
REMARK INTER:                  -9.638
REMARK INTRA:                  -1.038
REMARK UNBOUND:                -0.897
REMARK  Name = 
REMARK  9 active torsions:
REMARK  status: ('A' for Active; 'I' for Inactive)
REMARK    1  A    between atoms: C_1  and  C_2
REMARK    2  A    between atoms: C_2  and  C_3
REMARK    3  A    between atoms: C_3  and  C_4
REMARK    4  A    between atoms: C_6  and  C_7
REMARK    5  A    between atoms: C_7  and  C_8
REMARK    6  A    between atoms: C_8  and  C_9
REMARK    7  A    between atoms: C_13  and  N_14
REMARK    8  A    between atoms: N_14  and  C_15
REMARK    9  A    between atoms: C_22  and  C_23
REMARK                            x       y       z     vdW  Elec       q    Type
REMARK                         _______ _______ _______ _____ _____    ______ ____
ROOT
ATOM      1  C   UNL     1      44.851   6.076  12.309  0.00  0.00    +0.000 C 
ENDROOT
BRANCH   1   4
ATOM      2  C   UNL     1      47.874   8.434  12.469  0.00  0.00    +0.000 A 
ATOM      3  C   UNL     1      47.072   7.273  12.459  0.00  0.00    +0.000 A 
ATOM      4  C   UNL     1      45.680   7.339  12.316  0.00  0.00    +0.000 A 
ATOM      5  C   UNL     1      45.074   8.591  12.200  0.00  0.00    +0.000 A 
ATOM      6  C   UNL     1      45.853   9.751  12.162  0.00  0.00    +0.000 A 
ATOM      7  C   UNL     1      47.254   9.687  12.273  0.00  0.00    +0.000 A 
BRANCH   7   8
ATOM      8  C   UNL     1      48.052  10.942  12.103  0.00  0.00    +0.000 C 
ATOM      9  N   UNL     1      48.137  11.791  13.173  0.00  0.00    +0.000 N 
ATOM     10  O   UNL     1      48.613  11.234  11.056  0.00  0.00    +0.000 OA
ATOM     11  H   UNL     1      47.814  11.565  14.102  0.00  0.00    +0.000 HD
ATOM     12  H   UNL     1      48.705  12.618  13.051  0.00  0.00    +0.000 HD
ENDBRANCH   7   8
BRANCH   2  13
ATOM     13  C   UNL     1      49.354   8.258  12.747  0.00  0.00    +0.000 C 
BRANCH  13  15
ATOM     14  C   UNL     1      51.207   8.596  11.013  0.00  0.00    +0.000 C 
ATOM     15  C   UNL     1      50.144   7.661  11.572  0.00  0.00    +0.000 C 
ENDBRANCH  13  15
ENDBRANCH   2  13
ENDBRANCH   1   4
BRANCH   1  16
ATOM     16  C   UNL     1      44.106   5.901  10.983  0.00  0.00    +0.000 C 
BRANCH  16  17
ATOM     17  C   UNL     1      44.341   4.555  10.327  0.00  0.00    +0.000 A 
ATOM     18  C   UNL     1      43.925   3.371  10.945  0.00  0.00    +0.000 A 
ATOM     19  C   UNL     1      44.127   2.142  10.318  0.00  0.00    +0.000 A 
ATOM     20  C   UNL     1      44.753   2.081   9.072  0.00  0.00    +0.000 A 
ATOM     21  C   UNL     1      45.174   3.248   8.433  0.00  0.00    +0.000 A 
ATOM     22  C   UNL     1      44.946   4.480   9.065  0.00  0.00    +0.000 A 
BRANCH  21  23
ATOM     23  N   UNL     1      45.767   3.253   7.151  0.00  0.00    +0.000 N 
ATOM     24  H   UNL     1      45.195   2.685   6.524  0.00  0.00    +0.000 HD
BRANCH  23  25
ATOM     25  C   UNL     1      47.176   3.096   6.884  0.00  0.00    +0.000 C 
ATOM     26  C   UNL     1      47.465   2.864   5.386  0.00  0.00    +0.000 C 
ATOM     27  N   UNL     1      48.321   1.714   5.732  0.00  0.00    +0.000 NA
ATOM     28  C   UNL     1      47.744   1.681   7.090  0.00  0.00    +0.000 C 
ATOM     29  H   UNL     1      49.317   1.936   5.718  0.00  0.00    +0.000 HD
ENDBRANCH  23  25
ENDBRANCH  21  23
ENDBRANCH  16  17
ENDBRANCH   1  16
TORSDOF 8
ENDMDL
MODEL 9
REMARK VINA RESULT:    -6.591      1.644      2.679
REMARK INTER + INTRA:         -10.570
REMARK INTER:                  -9.501
REMARK INTRA:                  -1.069
REMARK UNBOUND:                -0.897
REMARK  Name = 
REMARK  9 active torsions:
REMARK  status: ('A' for Active; 'I' for Inactive)
REMARK    1  A    between atoms: C_1  and  C_2
REMARK    2  A    between atoms: C_2  and  C_3
REMARK    3  A    between atoms: C_3  and  C_4
REMARK    4  A    between atoms: C_6  and  C_7
REMARK    5  A    between atoms: C_7  and  C_8
REMARK    6  A    between atoms: C_8  and  C_9
REMARK    7  A    between atoms: C_13  and  N_14
REMARK    8  A    between atoms: N_14  and  C_15
REMARK    9  A    between atoms: C_22  and  C_23
REMARK                            x       y       z     vdW  Elec       q    Type
REMARK                         _______ _______ _______ _____ _____    ______ ____
ROOT
ATOM      1  C   UNL     1      47.506   6.283  12.717  0.00  0.00    +0.000 C 
ENDROOT
BRANCH   1   4
ATOM      2  C   UNL     1      48.659   6.098  16.371  0.00  0.00    +0.000 A 
ATOM      3  C   UNL     1      48.475   6.522  15.039  0.00  0.00    +0.000 A 
ATOM      4  C   UNL     1      47.682   5.800  14.137  0.00  0.00    +0.000 A 
ATOM      5  C   UNL     1      47.077   4.619  14.571  0.00  0.00    +0.000 A 
ATOM      6  C   UNL     1      47.209   4.205  15.899  0.00  0.00    +0.000 A 
ATOM      7  C   UNL     1      47.977   4.945  16.816  0.00  0.00    +0.000 A 
BRANCH   7   8
ATOM      8  C   UNL     1      47.988   4.529  18.254  0.00  0.00    +0.000 C 
ATOM      9  N   UNL     1      47.123   5.161  19.106  0.00  0.00    +0.000 N 
ATOM     10  O   UNL     1      48.736   3.663  18.687  0.00  0.00    +0.000 OA
ATOM     11  H   UNL     1      46.392   5.789  18.807  0.00  0.00    +0.000 HD
ATOM     12  H   UNL     1      47.122   4.846  20.066  0.00  0.00    +0.000 HD
ENDBRANCH   7   8
BRANCH   2  13
ATOM     13  C   UNL     1      49.629   6.889  17.228  0.00  0.00    +0.000 C 
BRANCH  13  15
ATOM     14  C   UNL     1      51.600   5.255  17.254  0.00  0.00    +0.000 C 
ATOM     15  C   UNL     1      51.107   6.647  16.885  0.00  0.00    +0.000 C 
ENDBRANCH  13  15
ENDBRANCH   2  13
ENDBRANCH   1   4
BRANCH   1  16
ATOM     16  C   UNL     1      46.099   6.840  12.484  0.00  0.00    +0.000 C 
BRANCH  16  17
ATOM     17  C   UNL     1      45.060   5.773  12.206  0.00  0.00    +0.000 A 
ATOM     18  C   UNL     1      43.739   5.924  12.642  0.00  0.00    +0.000 A 
ATOM     19  C   UNL     1      42.788   4.944  12.358  0.00  0.00    +0.000 A 
ATOM     20  C   UNL     1      43.147   3.799  11.646  0.00  0.00    +0.000 A 
ATOM     21  C   UNL     1      44.458   3.626  11.198  0.00  0.00    +0.000 A 
ATOM     22  C   UNL     1      45.400   4.630  11.471  0.00  0.00    +0.000 A 
BRANCH  21  23
ATOM     23  N   UNL     1      44.869   2.514  10.430  0.00  0.00    +0.000 N 
ATOM     24  H   UNL     1      45.798   2.228  10.742  0.00  0.00    +0.000 HD
BRANCH  23  25
ATOM     25  C   UNL     1      44.718   2.388   9.001  0.00  0.00    +0.000 C 
ATOM     26  C   UNL     1      46.045   2.022   8.303  0.00  0.00    +0.000 C 
ATOM     27  N   UNL     1      45.827   3.104   7.324  0.00  0.00    +0.000 NA
ATOM     28  C   UNL     1      44.797   3.699   8.199  0.00  0.00    +0.000 C 
ATOM     29  H   UNL     1      45.461   2.770   6.433  0.00  0.00    +0.000 HD
ENDBRANCH  23  25
ENDBRANCH  21  23
ENDBRANCH  16  17
ENDBRANCH   1  16
TORSDOF 8
ENDMDL
