MODEL 1
REMARK VINA RESULT:    -8.134      0.000      0.000
REMARK INTER + INTRA:         -12.379
REMARK INTER:                 -11.462
REMARK INTRA:                  -0.916
REMARK UNBOUND:                -0.916
REMARK  Name = 
REMARK  10 active torsions:
REMARK  status: ('A' for Active; 'I' for Inactive)
REMARK    1  A    between atoms: C_1  and  C_2
REMARK    2  A    between atoms: C_8  and  C_9
REMARK    3  A    between atoms: N_11  and  C_12
REMARK    4  A    between atoms: N_11  and  C_13
REMARK    5  A    between atoms: C_13  and  C_14
REMARK    6  A    between atoms: C_17  and  N_18
REMARK    7  A    between atoms: N_18  and  C_19
REMARK    8  A    between atoms: C_19  and  C_20
REMARK    9  A    between atoms: C_20  and  N_21
REMARK   10  A    between atoms: C_30  and  C_31
REMARK                            x       y       z     vdW  Elec       q    Type
REMARK                         _______ _______ _______ _____ _____    ______ ____
ROOT
ATOM      1  C   UNL     1      48.467   6.135  14.030  0.00  0.00    +0.000 C 
ENDROOT
BRANCH   1   2
ATOM      2  C   UNL     1      47.173   5.889  13.304  0.00  0.00    +0.000 A 
ATOM      3  C   UNL     1      46.820   6.702  12.217  0.00  0.00    +0.000 A 
ATOM      4  C   UNL     1      45.743   6.359  11.402  0.00  0.00    +0.000 A 
ATOM      5  C   UNL     1      45.008   5.198  11.645  0.00  0.00    +0.000 A 
ATOM      6  C   UNL     1      45.286   4.466  12.804  0.00  0.00    +0.000 A 
ATOM      7  C   UNL     1      46.369   4.792  13.620  0.00  0.00    +0.000 A 
BRANCH   5   8
ATOM      8  N   UNL     1      43.954   4.762  10.844  0.00  0.00    +0.000 N 
ATOM      9  H   UNL     1      43.529   5.532  10.324  0.00  0.00    +0.000 HD
BRANCH   8  10
ATOM     10  C   UNL     1      44.192   3.624   9.958  0.00  0.00    +0.000 C 
BRANCH  10  11
ATOM     11  C   UNL     1      44.684   4.147   8.592  0.00  0.00    +0.000 C 
BRANCH  11  12
ATOM     12  N   UNL     1      45.384   3.127   7.778  0.00  0.00    +0.000 NA
ATOM     13  C   UNL     1      46.520   3.693   7.035  0.00  0.00    +0.000 C 
ATOM     14  C   UNL     1      47.193   2.632   6.165  0.00  0.00    +0.000 C 
ATOM     15  C   UNL     1      47.632   1.432   6.992  0.00  0.00    +0.000 C 
ATOM     16  C   UNL     1      46.469   0.905   7.824  0.00  0.00    +0.000 C 
ATOM     17  C   UNL     1      45.823   2.021   8.643  0.00  0.00    +0.000 C 
ENDBRANCH  11  12
ENDBRANCH  10  11
ENDBRANCH   8  10
ENDBRANCH   5   8
ENDBRANCH   1   2
BRANCH   1  20
ATOM     18  C   UNL     1      48.646   6.862  16.434  0.00  0.00    +0.000 C 
ATOM     19  O   UNL     1      48.812   7.743  17.277  0.00  0.00    +0.000 OA
ATOM     20  N   UNL     1      48.527   7.173  15.057  0.00  0.00    +0.000 N 
ATOM     21  C   UNL     1      48.595   8.569  14.645  0.00  0.00    +0.000 C 
BRANCH  18  29
ATOM     22  C   UNL     1      53.008   3.054  18.069  0.00  0.00    +0.000 C 
ATOM     23  C   UNL     1      51.626   3.525  17.798  0.00  0.00    +0.000 A 
ATOM     24  N   UNL     1      50.550   2.703  17.981  0.00  0.00    +0.000 N 
ATOM     25  C   UNL     1      49.405   3.357  17.658  0.00  0.00    +0.000 A 
ATOM     26  N   UNL     1      48.196   2.782  17.754  0.00  0.00    +0.000 NA
ATOM     27  C   UNL     1      47.221   3.600  17.365  0.00  0.00    +0.000 A 
ATOM     28  N   UNL     1      47.353   4.856  16.932  0.00  0.00    +0.000 NA
ATOM     29  C   UNL     1      48.594   5.431  16.891  0.00  0.00    +0.000 A 
ATOM     30  C   UNL     1      49.714   4.653  17.244  0.00  0.00    +0.000 A 
ATOM     31  C   UNL     1      51.153   4.755  17.347  0.00  0.00    +0.000 A 
ATOM     32  C   UNL     1      52.058   5.900  17.047  0.00  0.00    +0.000 C 
ATOM     33  H   UNL     1      50.572   1.747  18.306  0.00  0.00    +0.000 HD
ENDBRANCH  18  29
ENDBRANCH   1  20
TORSDOF 7
ENDMDL
MODEL 2
REMARK VINA RESULT:    -7.922      1.030      1.804
REMARK INTER + INTRA:         -12.080
REMARK INTER:                 -11.164
REMARK INTRA:                  -0.916
REMARK UNBOUND:                -0.916
REMARK  Name = 
REMARK  10 active torsions:
REMARK  status: ('A' for Active; 'I' for Inactive)
REMARK    1  A    between atoms: C_1  and  C_2
REMARK    2  A    between atoms: C_8  and  C_9
REMARK    3  A    between atoms: N_11  and  C_12
REMARK    4  A    between atoms: N_11  and  C_13
REMARK    5  A    between atoms: C_13  and  C_14
REMARK    6  A    between atoms: C_17  and  N_18
REMARK    7  A    between atoms: N_18  and  C_19
REMARK    8  A    between atoms: C_19  and  C_20
REMARK    9  A    between atoms: C_20  and  N_21
REMARK   10  A    between atoms: C_30  and  C_31
REMARK                            x       y       z     vdW  Elec       q    Type
REMARK                         _______ _______ _______ _____ _____    ______ ____
ROOT
ATOM      1  C   UNL     1      48.771   6.501  14.347  0.00  0.00    +0.000 C 
ENDROOT
BRANCH   1   2
ATOM      2  C   UNL     1      47.436   6.208  13.716  0.00  0.00    +0.000 A 
ATOM      3  C   UNL     1      46.853   4.944  13.881  0.00  0.00    +0.000 A 
ATOM      4  C   UNL     1      45.533   4.722  13.493  0.00  0.00    +0.000 A 
ATOM      5  C   UNL     1      44.767   5.755  12.951  0.00  0.00    +0.000 A 
ATOM      6  C   UNL     1      45.397   6.973  12.672  0.00  0.00    +0.000 A 
ATOM      7  C   UNL     1      46.714   7.210  13.067  0.00  0.00    +0.000 A 
BRANCH   5   8
ATOM      8  N   UNL     1      43.428   5.625  12.591  0.00  0.00    +0.000 N 
ATOM      9  H   UNL     1      42.884   6.453  12.840  0.00  0.00    +0.000 HD
BRANCH   8  10
ATOM     10  C   UNL     1      43.125   5.215  11.220  0.00  0.00    +0.000 C 
BRANCH  10  11
ATOM     11  C   UNL     1      43.469   3.720  11.056  0.00  0.00    +0.000 C 
BRANCH  11  12
ATOM     12  N   UNL     1      44.611   3.465  10.147  0.00  0.00    +0.000 NA
ATOM     13  C   UNL     1      44.493   2.172   9.456  0.00  0.00    +0.000 C 
ATOM     14  C   UNL     1      45.707   1.912   8.565  0.00  0.00    +0.000 C 
ATOM     15  C   UNL     1      45.916   3.042   7.566  0.00  0.00    +0.000 C 
ATOM     16  C   UNL     1      45.951   4.386   8.283  0.00  0.00    +0.000 C 
ATOM     17  C   UNL     1      44.727   4.568   9.179  0.00  0.00    +0.000 C 
ENDBRANCH  11  12
ENDBRANCH  10  11
ENDBRANCH   8  10
ENDBRANCH   5   8
ENDBRANCH   1   2
BRANCH   1  20
ATOM     18  C   UNL     1      48.876   6.980  16.817  0.00  0.00    +0.000 C 
ATOM     19  O   UNL     1      49.053   7.762  17.750  0.00  0.00    +0.000 OA
ATOM     20  N   UNL     1      48.843   7.430  15.473  0.00  0.00    +0.000 N 
ATOM     21  C   UNL     1      49.016   8.851  15.206  0.00  0.00    +0.000 C 
BRANCH  18  29
ATOM     22  C   UNL     1      52.941   2.689  17.943  0.00  0.00    +0.000 C 
ATOM     23  C   UNL     1      51.596   3.293  17.756  0.00  0.00    +0.000 A 
ATOM     24  N   UNL     1      50.461   2.544  17.881  0.00  0.00    +0.000 N 
ATOM     25  C   UNL     1      49.367   3.317  17.656  0.00  0.00    +0.000 A 
ATOM     26  N   UNL     1      48.118   2.833  17.724  0.00  0.00    +0.000 NA
ATOM     27  C   UNL     1      47.206   3.761  17.445  0.00  0.00    +0.000 A 
ATOM     28  N   UNL     1      47.432   5.041  17.139  0.00  0.00    +0.000 NA
ATOM     29  C   UNL     1      48.715   5.517  17.126  0.00  0.00    +0.000 A 
ATOM     30  C   UNL     1      49.774   4.620  17.369  0.00  0.00    +0.000 A 
ATOM     31  C   UNL     1      51.218   4.597  17.446  0.00  0.00    +0.000 A 
ATOM     32  C   UNL     1      52.208   5.692  17.242  0.00  0.00    +0.000 C 
ATOM     33  H   UNL     1      50.411   1.561  18.107  0.00  0.00    +0.000 HD
ENDBRANCH  18  29
ENDBRANCH   1  20
TORSDOF 7
ENDMDL
MODEL 3
REMARK VINA RESULT:    -7.905      1.994      2.742
REMARK INTER + INTRA:         -12.056
REMARK INTER:                 -11.079
REMARK INTRA:                  -0.977
REMARK UNBOUND:                -0.916
REMARK  Name = 
REMARK  10 active torsions:
REMARK  status: ('A' for Active; 'I' for Inactive)
REMARK    1  A    between atoms: C_1  and  C_2
REMARK    2  A    between atoms: C_8  and  C_9
REMARK    3  A    between atoms: N_11  and  C_12
REMARK    4  A    between atoms: N_11  and  C_13
REMARK    5  A    between atoms: C_13  and  C_14
REMARK    6  A    between atoms: C_17  and  N_18
REMARK    7  A    between atoms: N_18  and  C_19
REMARK    8  A    between atoms: C_19  and  C_20
REMARK    9  A    between atoms: C_20  and  N_21
REMARK   10  A    between atoms: C_30  and  C_31
REMARK                            x       y       z     vdW  Elec       q    Type
REMARK                         _______ _______ _______ _____ _____    ______ ____
ROOT
ATOM      1  C   UNL     1      48.046   8.301  14.913  0.00  0.00    +0.000 C 
ENDROOT
BRANCH   1   2
ATOM      2  C   UNL     1      47.367   7.836  13.653  0.00  0.00    +0.000 A 
ATOM      3  C   UNL     1      47.868   6.722  12.965  0.00  0.00    +0.000 A 
ATOM      4  C   UNL     1      47.135   6.148  11.928  0.00  0.00    +0.000 A 
ATOM      5  C   UNL     1      45.888   6.661  11.568  0.00  0.00    +0.000 A 
ATOM      6  C   UNL     1      45.460   7.848  12.171  0.00  0.00    +0.000 A 
ATOM      7  C   UNL     1      46.179   8.424  13.219  0.00  0.00    +0.000 A 
BRANCH   5   8
ATOM      8  N   UNL     1      45.075   6.110  10.580  0.00  0.00    +0.000 N 
ATOM      9  H   UNL     1      45.241   6.540   9.668  0.00  0.00    +0.000 HD
BRANCH   8  10
ATOM     10  C   UNL     1      45.043   4.654  10.453  0.00  0.00    +0.000 C 
BRANCH  10  11
ATOM     11  C   UNL     1      44.247   4.279   9.185  0.00  0.00    +0.000 C 
BRANCH  11  12
ATOM     12  N   UNL     1      44.972   3.367   8.271  0.00  0.00    +0.000 NA
ATOM     13  C   UNL     1      46.114   4.026   7.619  0.00  0.00    +0.000 C 
ATOM     14  C   UNL     1      46.813   3.079   6.644  0.00  0.00    +0.000 C 
ATOM     15  C   UNL     1      47.252   1.795   7.335  0.00  0.00    +0.000 C 
ATOM     16  C   UNL     1      46.081   1.164   8.079  0.00  0.00    +0.000 C 
ATOM     17  C   UNL     1      45.409   2.172   9.010  0.00  0.00    +0.000 C 
ENDBRANCH  11  12
ENDBRANCH  10  11
ENDBRANCH   8  10
ENDBRANCH   5   8
ENDBRANCH   1   2
BRANCH   1  20
ATOM     18  C   UNL     1      49.854   6.835  15.873  0.00  0.00    +0.000 C 
ATOM     19  O   UNL     1      51.037   6.505  15.952  0.00  0.00    +0.000 OA
ATOM     20  N   UNL     1      49.454   7.974  15.131  0.00  0.00    +0.000 N 
ATOM     21  C   UNL     1      50.474   8.768  14.461  0.00  0.00    +0.000 C 
BRANCH  18  29
ATOM     22  C   UNL     1      47.392   7.253  21.347  0.00  0.00    +0.000 C 
ATOM     23  C   UNL     1      47.636   6.703  19.989  0.00  0.00    +0.000 A 
ATOM     24  N   UNL     1      46.964   5.601  19.541  0.00  0.00    +0.000 N 
ATOM     25  C   UNL     1      47.367   5.292  18.281  0.00  0.00    +0.000 A 
ATOM     26  N   UNL     1      46.860   4.255  17.597  0.00  0.00    +0.000 NA
ATOM     27  C   UNL     1      47.417   4.128  16.396  0.00  0.00    +0.000 A 
ATOM     28  N   UNL     1      48.361   4.907  15.863  0.00  0.00    +0.000 NA
ATOM     29  C   UNL     1      48.824   5.986  16.565  0.00  0.00    +0.000 A 
ATOM     30  C   UNL     1      48.338   6.206  17.869  0.00  0.00    +0.000 A 
ATOM     31  C   UNL     1      48.497   7.121  18.978  0.00  0.00    +0.000 A 
ATOM     32  C   UNL     1      49.388   8.308  19.122  0.00  0.00    +0.000 C 
ATOM     33  H   UNL     1      46.267   5.075  20.047  0.00  0.00    +0.000 HD
ENDBRANCH  18  29
ENDBRANCH   1  20
TORSDOF 7
ENDMDL
MODEL 4
REMARK VINA RESULT:    -7.496      1.174      1.961
REMARK INTER + INTRA:         -11.480
REMARK INTER:                 -10.442
REMARK INTRA:                  -1.038
REMARK UNBOUND:                -0.916
REMARK  Name = 
REMARK  10 active torsions:
REMARK  status: ('A' for Active; 'I' for Inactive)
REMARK    1  A    between atoms: C_1  and  C_2
REMARK    2  A    between atoms: C_8  and  C_9
REMARK    3  A    between atoms: N_11  and  C_12
REMARK    4  A    between atoms: N_11  and  C_13
REMARK    5  A    between atoms: C_13  and  C_14
REMARK    6  A    between atoms: C_17  and  N_18
REMARK    7  A    between atoms: N_18  and  C_19
REMARK    8  A    between atoms: C_19  and  C_20
REMARK    9  A    between atoms: C_20  and  N_21
REMARK   10  A    between atoms: C_30  and  C_31
REMARK                            x       y       z     vdW  Elec       q    Type
REMARK                         _______ _______ _______ _____ _____    ______ ____
ROOT
ATOM      1  C   UNL     1      48.618   6.717  13.790  0.00  0.00    +0.000 C 
ENDROOT
BRANCH   1   2
ATOM      2  C   UNL     1      47.497   6.054  13.035  0.00  0.00    +0.000 A 
ATOM      3  C   UNL     1      46.798   4.990  13.622  0.00  0.00    +0.000 A 
ATOM      4  C   UNL     1      45.628   4.509  13.038  0.00  0.00    +0.000 A 
ATOM      5  C   UNL     1      45.127   5.086  11.871  0.00  0.00    +0.000 A 
ATOM      6  C   UNL     1      45.899   6.057  11.225  0.00  0.00    +0.000 A 
ATOM      7  C   UNL     1      47.065   6.555  11.807  0.00  0.00    +0.000 A 
BRANCH   5   8
ATOM      8  N   UNL     1      43.938   4.696  11.258  0.00  0.00    +0.000 N 
ATOM      9  H   UNL     1      43.197   5.387  11.389  0.00  0.00    +0.000 HD
BRANCH   8  10
ATOM     10  C   UNL     1      43.994   4.275   9.859  0.00  0.00    +0.000 C 
BRANCH  10  11
ATOM     11  C   UNL     1      44.573   2.846   9.788  0.00  0.00    +0.000 C 
BRANCH  11  12
ATOM     12  N   UNL     1      45.710   2.708   8.848  0.00  0.00    +0.000 NA
ATOM     13  C   UNL     1      45.839   1.337   8.331  0.00  0.00    +0.000 C 
ATOM     14  C   UNL     1      47.047   1.210   7.404  0.00  0.00    +0.000 C 
ATOM     15  C   UNL     1      46.981   2.215   6.262  0.00  0.00    +0.000 C 
ATOM     16  C   UNL     1      46.762   3.622   6.805  0.00  0.00    +0.000 C 
ATOM     17  C   UNL     1      45.560   3.672   7.746  0.00  0.00    +0.000 C 
ENDBRANCH  11  12
ENDBRANCH  10  11
ENDBRANCH   8  10
ENDBRANCH   5   8
ENDBRANCH   1   2
BRANCH   1  20
ATOM     18  C   UNL     1      48.645   7.846  16.041  0.00  0.00    +0.000 C 
ATOM     19  O   UNL     1      48.498   8.849  16.738  0.00  0.00    +0.000 OA
ATOM     20  N   UNL     1      48.322   7.853  14.661  0.00  0.00    +0.000 N 
ATOM     21  C   UNL     1      47.797   9.076  14.070  0.00  0.00    +0.000 C 
BRANCH  18  29
ATOM     22  C   UNL     1      54.298   5.863  16.605  0.00  0.00    +0.000 C 
ATOM     23  C   UNL     1      52.820   5.862  16.756  0.00  0.00    +0.000 A 
ATOM     24  N   UNL     1      52.176   4.846  17.402  0.00  0.00    +0.000 N 
ATOM     25  C   UNL     1      50.836   5.069  17.400  0.00  0.00    +0.000 A 
ATOM     26  N   UNL     1      49.965   4.226  17.977  0.00  0.00    +0.000 NA
ATOM     27  C   UNL     1      48.707   4.633  17.833  0.00  0.00    +0.000 A 
ATOM     28  N   UNL     1      48.286   5.739  17.215  0.00  0.00    +0.000 NA
ATOM     29  C   UNL     1      49.201   6.603  16.679  0.00  0.00    +0.000 A 
ATOM     30  C   UNL     1      50.568   6.265  16.734  0.00  0.00    +0.000 A 
ATOM     31  C   UNL     1      51.860   6.776  16.329  0.00  0.00    +0.000 A 
ATOM     32  C   UNL     1      52.210   8.020  15.588  0.00  0.00    +0.000 C 
ATOM     33  H   UNL     1      52.604   4.036  17.828  0.00  0.00    +0.000 HD
ENDBRANCH  18  29
ENDBRANCH   1  20
TORSDOF 7
ENDMDL
MODEL 5
REMARK VINA RESULT:    -7.135      1.314      2.667
REMARK INTER + INTRA:         -10.971
REMARK INTER:                  -9.772
REMARK INTRA:                  -1.199
REMARK UNBOUND:                -0.916
REMARK  Name = 
REMARK  10 active torsions:
REMARK  status: ('A' for Active; 'I' for Inactive)
REMARK    1  A    between atoms: C_1  and  C_2
REMARK    2  A    between atoms: C_8  and  C_9
REMARK    3  A    between atoms: N_11  and  C_12
REMARK    4  A    between atoms: N_11  and  C_13
REMARK    5  A    between atoms: C_13  and  C_14
REMARK    6  A    between atoms: C_17  and  N_18
REMARK    7  A    between atoms: N_18  and  C_19
REMARK    8  A    between atoms: C_19  and  C_20
REMARK    9  A    between atoms: C_20  and  N_21
REMARK   10  A    between atoms: C_30  and  C_31
REMARK                            x       y       z     vdW  Elec       q    Type
REMARK                         _______ _______ _______ _____ _____    ______ ____
ROOT
ATOM      1  C   UNL     1      48.777   6.680  13.933  0.00  0.00    +0.000 C 
ENDROOT
BRANCH   1   2
ATOM      2  C   UNL     1      47.575   6.087  13.249  0.00  0.00    +0.000 A 
ATOM      3  C   UNL     1      46.812   5.111  13.907  0.00  0.00    +0.000 A 
ATOM      4  C   UNL     1      45.583   4.710  13.387  0.00  0.00    +0.000 A 
ATOM      5  C   UNL     1      45.086   5.282  12.215  0.00  0.00    +0.000 A 
ATOM      6  C   UNL     1      45.911   6.156  11.499  0.00  0.00    +0.000 A 
ATOM      7  C   UNL     1      47.137   6.574  12.016  0.00  0.00    +0.000 A 
BRANCH   5   8
ATOM      8  N   UNL     1      43.844   4.972  11.664  0.00  0.00    +0.000 N 
ATOM      9  H   UNL     1      43.167   5.724  11.804  0.00  0.00    +0.000 HD
BRANCH   8  10
ATOM     10  C   UNL     1      43.806   4.510  10.277  0.00  0.00    +0.000 C 
BRANCH  10  11
ATOM     11  C   UNL     1      44.358   3.070  10.214  0.00  0.00    +0.000 C 
BRANCH  11  12
ATOM     12  N   UNL     1      45.494   2.905   9.278  0.00  0.00    +0.000 NA
ATOM     13  C   UNL     1      45.503   1.579   8.642  0.00  0.00    +0.000 C 
ATOM     14  C   UNL     1      46.713   1.417   7.722  0.00  0.00    +0.000 C 
ATOM     15  C   UNL     1      46.765   2.521   6.674  0.00  0.00    +0.000 C 
ATOM     16  C   UNL     1      46.670   3.889   7.337  0.00  0.00    +0.000 C 
ATOM     17  C   UNL     1      45.459   3.972   8.265  0.00  0.00    +0.000 C 
ENDBRANCH  11  12
ENDBRANCH  10  11
ENDBRANCH   8  10
ENDBRANCH   5   8
ENDBRANCH   1   2
BRANCH   1  20
ATOM     18  C   UNL     1      49.404   8.059  15.944  0.00  0.00    +0.000 C 
ATOM     19  O   UNL     1      49.333   9.104  16.591  0.00  0.00    +0.000 OA
ATOM     20  N   UNL     1      48.608   7.852  14.789  0.00  0.00    +0.000 N 
ATOM     21  C   UNL     1      47.686   8.901  14.376  0.00  0.00    +0.000 C 
BRANCH  18  29
ATOM     22  C   UNL     1      48.543   2.779  18.697  0.00  0.00    +0.000 C 
ATOM     23  C   UNL     1      49.296   3.888  18.056  0.00  0.00    +0.000 A 
ATOM     24  N   UNL     1      50.656   3.842  17.936  0.00  0.00    +0.000 N 
ATOM     25  C   UNL     1      51.107   4.970  17.328  0.00  0.00    +0.000 A 
ATOM     26  N   UNL     1      52.408   5.181  17.077  0.00  0.00    +0.000 NA
ATOM     27  C   UNL     1      52.620   6.360  16.497  0.00  0.00    +0.000 A 
ATOM     28  N   UNL     1      51.699   7.268  16.165  0.00  0.00    +0.000 NA
ATOM     29  C   UNL     1      50.376   7.003  16.389  0.00  0.00    +0.000 A 
ATOM     30  C   UNL     1      50.025   5.800  17.034  0.00  0.00    +0.000 A 
ATOM     31  C   UNL     1      48.856   5.086  17.500  0.00  0.00    +0.000 A 
ATOM     32  C   UNL     1      47.417   5.468  17.454  0.00  0.00    +0.000 C 
ATOM     33  H   UNL     1      51.263   3.095  18.243  0.00  0.00    +0.000 HD
ENDBRANCH  18  29
ENDBRANCH   1  20
TORSDOF 7
ENDMDL
MODEL 6
REMARK VINA RESULT:    -7.104      1.568      2.552
REMARK INTER + INTRA:         -10.927
REMARK INTER:                  -9.894
REMARK INTRA:                  -1.033
REMARK UNBOUND:                -0.916
REMARK  Name = 
REMARK  10 active torsions:
REMARK  status: ('A' for Active; 'I' for Inactive)
REMARK    1  A    between atoms: C_1  and  C_2
REMARK    2  A    between atoms: C_8  and  C_9
REMARK    3  A    between atoms: N_11  and  C_12
REMARK    4  A    between atoms: N_11  and  C_13
REMARK    5  A    between atoms: C_13  and  C_14
REMARK    6  A    between atoms: C_17  and  N_18
REMARK    7  A    between atoms: N_18  and  C_19
REMARK    8  A    between atoms: C_19  and  C_20
REMARK    9  A    between atoms: C_20  and  N_21
REMARK   10  A    between atoms: C_30  and  C_31
REMARK                            x       y       z     vdW  Elec       q    Type
REMARK                         _______ _______ _______ _____ _____    ______ ____
ROOT
ATOM      1  C   UNL     1      49.343   6.858  16.423  0.00  0.00    +0.000 C 
ENDROOT
BRANCH   1   2
ATOM      2  C   UNL     1      48.574   7.000  15.137  0.00  0.00    +0.000 A 
ATOM      3  C   UNL     1      48.216   5.855  14.412  0.00  0.00    +0.000 A 
ATOM      4  C   UNL     1      47.326   5.949  13.343  0.00  0.00    +0.000 A 
ATOM      5  C   UNL     1      46.768   7.178  12.988  0.00  0.00    +0.000 A 
ATOM      6  C   UNL     1      47.232   8.329  13.632  0.00  0.00    +0.000 A 
ATOM      7  C   UNL     1      48.112   8.246  14.711  0.00  0.00    +0.000 A 
BRANCH   5   8
ATOM      8  N   UNL     1      45.833   7.342  11.968  0.00  0.00    +0.000 N 
ATOM      9  H   UNL     1      45.799   8.307  11.635  0.00  0.00    +0.000 HD
BRANCH   8  10
ATOM     10  C   UNL     1      45.886   6.418  10.835  0.00  0.00    +0.000 C 
BRANCH  10  11
ATOM     11  C   UNL     1      44.619   5.536  10.849  0.00  0.00    +0.000 C 
BRANCH  11  12
ATOM     12  N   UNL     1      44.613   4.482   9.809  0.00  0.00    +0.000 NA
ATOM     13  C   UNL     1      45.678   4.678   8.813  0.00  0.00    +0.000 C 
ATOM     14  C   UNL     1      45.618   3.608   7.724  0.00  0.00    +0.000 C 
ATOM     15  C   UNL     1      45.683   2.207   8.318  0.00  0.00    +0.000 C 
ATOM     16  C   UNL     1      44.632   2.041   9.408  0.00  0.00    +0.000 C 
ATOM     17  C   UNL     1      44.727   3.160  10.444  0.00  0.00    +0.000 C 
ENDBRANCH  11  12
ENDBRANCH  10  11
ENDBRANCH   8  10
ENDBRANCH   5   8
ENDBRANCH   1   2
BRANCH   1  20
ATOM     18  C   UNL     1      48.394   5.508  18.325  0.00  0.00    +0.000 C 
ATOM     19  O   UNL     1      47.882   5.444  19.443  0.00  0.00    +0.000 OA
ATOM     20  N   UNL     1      48.614   6.753  17.686  0.00  0.00    +0.000 N 
ATOM     21  C   UNL     1      48.213   7.974  18.371  0.00  0.00    +0.000 C 
BRANCH  18  29
ATOM     22  C   UNL     1      53.617   2.522  18.347  0.00  0.00    +0.000 C 
ATOM     23  C   UNL     1      52.199   2.806  18.010  0.00  0.00    +0.000 A 
ATOM     24  N   UNL     1      51.478   1.963  17.213  0.00  0.00    +0.000 N 
ATOM     25  C   UNL     1      50.219   2.444  17.046  0.00  0.00    +0.000 A 
ATOM     26  N   UNL     1      49.296   1.804  16.311  0.00  0.00    +0.000 NA
ATOM     27  C   UNL     1      48.143   2.467  16.269  0.00  0.00    +0.000 A 
ATOM     28  N   UNL     1      47.862   3.626  16.869  0.00  0.00    +0.000 NA
ATOM     29  C   UNL     1      48.809   4.230  17.651  0.00  0.00    +0.000 A 
ATOM     30  C   UNL     1      50.086   3.643  17.746  0.00  0.00    +0.000 A 
ATOM     31  C   UNL     1      51.370   3.864  18.375  0.00  0.00    +0.000 A 
ATOM     32  C   UNL     1      51.829   4.977  19.252  0.00  0.00    +0.000 C 
ATOM     33  H   UNL     1      51.806   1.104  16.795  0.00  0.00    +0.000 HD
ENDBRANCH  18  29
ENDBRANCH   1  20
TORSDOF 7
ENDMDL
MODEL 7
REMARK VINA RESULT:    -6.951      2.059      3.139
REMARK INTER + INTRA:         -10.712
REMARK INTER:                  -9.497
REMARK INTRA:                  -1.215
REMARK UNBOUND:                -0.916
REMARK  Name = 
REMARK  10 active torsions:
REMARK  status: ('A' for Active; 'I' for Inactive)
REMARK    1  A    between atoms: C_1  and  C_2
REMARK    2  A    between atoms: C_8  and  C_9
REMARK    3  A    between atoms: N_11  and  C_12
REMARK    4  A    between atoms: N_11  and  C_13
REMARK    5  A    between atoms: C_13  and  C_14
REMARK    6  A    between atoms: C_17  and  N_18
REMARK    7  A    between atoms: N_18  and  C_19
REMARK    8  A    between atoms: C_19  and  C_20
REMARK    9  A    between atoms: C_20  and  N_21
REMARK   10  A    between atoms: C_30  and  C_31
REMARK                            x       y       z     vdW  Elec       q    Type
REMARK                         _______ _______ _______ _____ _____    ______ ____
ROOT
ATOM      1  C   UNL     1      47.801   8.073  13.965  0.00  0.00    +0.000 C 
ENDROOT
BRANCH   1   2
ATOM      2  C   UNL     1      47.245   6.851  13.287  0.00  0.00    +0.000 A 
ATOM      3  C   UNL     1      47.201   5.631  13.978  0.00  0.00    +0.000 A 
ATOM      4  C   UNL     1      46.498   4.549  13.452  0.00  0.00    +0.000 A 
ATOM      5  C   UNL     1      45.817   4.665  12.240  0.00  0.00    +0.000 A 
ATOM      6  C   UNL     1      45.975   5.840  11.498  0.00  0.00    +0.000 A 
ATOM      7  C   UNL     1      46.666   6.934  12.020  0.00  0.00    +0.000 A 
BRANCH   5   8
ATOM      8  N   UNL     1      45.050   3.646  11.678  0.00  0.00    +0.000 N 
ATOM      9  H   UNL     1      44.394   3.247  12.352  0.00  0.00    +0.000 HD
BRANCH   8  10
ATOM     10  C   UNL     1      44.370   3.919  10.412  0.00  0.00    +0.000 C 
BRANCH  10  11
ATOM     11  C   UNL     1      44.240   2.601   9.620  0.00  0.00    +0.000 C 
BRANCH  11  12
ATOM     12  N   UNL     1      45.070   2.556   8.394  0.00  0.00    +0.000 NA
ATOM     13  C   UNL     1      45.736   3.840   8.127  0.00  0.00    +0.000 C 
ATOM     14  C   UNL     1      46.544   3.783   6.831  0.00  0.00    +0.000 C 
ATOM     15  C   UNL     1      47.555   2.644   6.857  0.00  0.00    +0.000 C 
ATOM     16  C   UNL     1      46.870   1.332   7.218  0.00  0.00    +0.000 C 
ATOM     17  C   UNL     1      46.055   1.469   8.504  0.00  0.00    +0.000 C 
ENDBRANCH  11  12
ENDBRANCH  10  11
ENDBRANCH   8  10
ENDBRANCH   5   8
ENDBRANCH   1   2
BRANCH   1  20
ATOM     18  C   UNL     1      49.898   8.449  15.308  0.00  0.00    +0.000 C 
ATOM     19  O   UNL     1      51.125   8.472  15.395  0.00  0.00    +0.000 OA
ATOM     20  N   UNL     1      49.250   8.240  14.066  0.00  0.00    +0.000 N 
ATOM     21  C   UNL     1      50.065   8.058  12.872  0.00  0.00    +0.000 C 
BRANCH  18  29
ATOM     22  C   UNL     1      48.543   4.608  19.737  0.00  0.00    +0.000 C 
ATOM     23  C   UNL     1      48.566   5.892  18.992  0.00  0.00    +0.000 A 
ATOM     24  N   UNL     1      47.923   6.999  19.470  0.00  0.00    +0.000 N 
ATOM     25  C   UNL     1      48.083   8.037  18.609  0.00  0.00    +0.000 A 
ATOM     26  N   UNL     1      47.558   9.251  18.841  0.00  0.00    +0.000 NA
ATOM     27  C   UNL     1      47.821  10.105  17.855  0.00  0.00    +0.000 A 
ATOM     28  N   UNL     1      48.523   9.859  16.746  0.00  0.00    +0.000 NA
ATOM     29  C   UNL     1      49.086   8.626  16.562  0.00  0.00    +0.000 A 
ATOM     30  C   UNL     1      48.848   7.621  17.520  0.00  0.00    +0.000 A 
ATOM     31  C   UNL     1      49.165   6.234  17.782  0.00  0.00    +0.000 A 
ATOM     32  C   UNL     1      49.959   5.263  16.978  0.00  0.00    +0.000 C 
ATOM     33  H   UNL     1      47.401   7.066  20.332  0.00  0.00    +0.000 HD
ENDBRANCH  18  29
ENDBRANCH   1  20
TORSDOF 7
ENDMDL
MODEL 8
REMARK VINA RESULT:    -6.903      2.974      5.535
REMARK INTER + INTRA:         -10.644
REMARK INTER:                  -9.320
REMARK INTRA:                  -1.324
REMARK UNBOUND:                -0.916
REMARK  Name = 
REMARK  10 active torsions:
REMARK  status: ('A' for Active; 'I' for Inactive)
REMARK    1  A    between atoms: C_1  and  C_2
REMARK    2  A    between atoms: C_8  and  C_9
REMARK    3  A    between atoms: N_11  and  C_12
REMARK    4  A    between atoms: N_11  and  C_13
REMARK    5  A    between atoms: C_13  and  C_14
REMARK    6  A    between atoms: C_17  and  N_18
REMARK    7  A    between atoms: N_18  and  C_19
REMARK    8  A    between atoms: C_19  and  C_20
REMARK    9  A    between atoms: C_20  and  N_21
REMARK   10  A    between atoms: C_30  and  C_31
REMARK                            x       y       z     vdW  Elec       q    Type
REMARK                         _______ _______ _______ _____ _____    ______ ____
ROOT
ATOM      1  C   UNL     1      48.837   7.008  13.494  0.00  0.00    +0.000 C 
ENDROOT
BRANCH   1   2
ATOM      2  C   UNL     1      47.499   6.408  13.157  0.00  0.00    +0.000 A 
ATOM      3  C   UNL     1      47.125   5.181  13.722  0.00  0.00    +0.000 A 
ATOM      4  C   UNL     1      45.817   4.718  13.596  0.00  0.00    +0.000 A 
ATOM      5  C   UNL     1      44.857   5.472  12.921  0.00  0.00    +0.000 A 
ATOM      6  C   UNL     1      45.271   6.628  12.251  0.00  0.00    +0.000 A 
ATOM      7  C   UNL     1      46.574   7.108  12.380  0.00  0.00    +0.000 A 
BRANCH   5   8
ATOM      8  N   UNL     1      43.519   5.101  12.800  0.00  0.00    +0.000 N 
ATOM      9  H   UNL     1      42.893   5.791  13.219  0.00  0.00    +0.000 HD
BRANCH   8  10
ATOM     10  C   UNL     1      43.032   4.717  11.475  0.00  0.00    +0.000 C 
BRANCH  10  11
ATOM     11  C   UNL     1      43.532   3.293  11.152  0.00  0.00    +0.000 C 
BRANCH  11  12
ATOM     12  N   UNL     1      44.645   3.258  10.176  0.00  0.00    +0.000 NA
ATOM     13  C   UNL     1      44.608   2.053   9.333  0.00  0.00    +0.000 C 
ATOM     14  C   UNL     1      45.794   2.016   8.370  0.00  0.00    +0.000 C 
ATOM     15  C   UNL     1      45.854   3.273   7.514  0.00  0.00    +0.000 C 
ATOM     16  C   UNL     1      45.807   4.518   8.392  0.00  0.00    +0.000 C 
ATOM     17  C   UNL     1      44.617   4.475   9.350  0.00  0.00    +0.000 C 
ENDBRANCH  11  12
ENDBRANCH  10  11
ENDBRANCH   8  10
ENDBRANCH   5   8
ENDBRANCH   1   2
BRANCH   1  20
ATOM     18  C   UNL     1      48.969   9.299  14.530  0.00  0.00    +0.000 C 
ATOM     19  O   UNL     1      48.952  10.030  15.520  0.00  0.00    +0.000 OA
ATOM     20  N   UNL     1      48.956   7.888  14.655  0.00  0.00    +0.000 N 
ATOM     21  C   UNL     1      48.931   7.303  15.989  0.00  0.00    +0.000 C 
BRANCH  18  29
ATOM     22  C   UNL     1      53.332   9.796  10.417  0.00  0.00    +0.000 C 
ATOM     23  C   UNL     1      51.980   9.952  11.011  0.00  0.00    +0.000 A 
ATOM     24  N   UNL     1      50.977  10.583  10.330  0.00  0.00    +0.000 N 
ATOM     25  C   UNL     1      49.847  10.606  11.083  0.00  0.00    +0.000 A 
ATOM     26  N   UNL     1      48.705  11.161  10.650  0.00  0.00    +0.000 NA
ATOM     27  C   UNL     1      47.737  11.089  11.560  0.00  0.00    +0.000 A 
ATOM     28  N   UNL     1      47.816  10.536  12.773  0.00  0.00    +0.000 NA
ATOM     29  C   UNL     1      48.981   9.935  13.168  0.00  0.00    +0.000 A 
ATOM     30  C   UNL     1      50.093   9.978  12.305  0.00  0.00    +0.000 A 
ATOM     31  C   UNL     1      51.473   9.549  12.244  0.00  0.00    +0.000 A 
ATOM     32  C   UNL     1      52.297   8.822  13.250  0.00  0.00    +0.000 C 
ATOM     33  H   UNL     1      51.037  10.982   9.404  0.00  0.00    +0.000 HD
ENDBRANCH  18  29
ENDBRANCH   1  20
TORSDOF 7
ENDMDL
MODEL 9
REMARK VINA RESULT:    -6.581      3.350      6.183
REMARK INTER + INTRA:         -10.190
REMARK INTER:                  -8.832
REMARK INTRA:                  -1.358
REMARK UNBOUND:                -0.916
REMARK  Name = 
REMARK  10 active torsions:
REMARK  status: ('A' for Active; 'I' for Inactive)
REMARK    1  A    between atoms: C_1  and  C_2
REMARK    2  A    between atoms: C_8  and  C_9
REMARK    3  A    between atoms: N_11  and  C_12
REMARK    4  A    between atoms: N_11  and  C_13
REMARK    5  A    between atoms: C_13  and  C_14
REMARK    6  A    between atoms: C_17  and  N_18
REMARK    7  A    between atoms: N_18  and  C_19
REMARK    8  A    between atoms: C_19  and  C_20
REMARK    9  A    between atoms: C_20  and  N_21
REMARK   10  A    between atoms: C_30  and  C_31
REMARK                            x       y       z     vdW  Elec       q    Type
REMARK                         _______ _______ _______ _____ _____    ______ ____
ROOT
ATOM      1  C   UNL     1      49.164   7.243  13.685  0.00  0.00    +0.000 C 
ENDROOT
BRANCH   1   2
ATOM      2  C   UNL     1      47.782   6.832  13.254  0.00  0.00    +0.000 A 
ATOM      3  C   UNL     1      47.335   5.527  13.507  0.00  0.00    +0.000 A 
ATOM      4  C   UNL     1      45.996   5.192  13.314  0.00  0.00    +0.000 A 
ATOM      5  C   UNL     1      45.078   6.150  12.882  0.00  0.00    +0.000 A 
ATOM      6  C   UNL     1      45.559   7.410  12.509  0.00  0.00    +0.000 A 
ATOM      7  C   UNL     1      46.894   7.760  12.709  0.00  0.00    +0.000 A 
BRANCH   5   8
ATOM      8  N   UNL     1      43.717   5.905  12.718  0.00  0.00    +0.000 N 
ATOM      9  H   UNL     1      43.146   6.680  13.061  0.00  0.00    +0.000 HD
BRANCH   8  10
ATOM     10  C   UNL     1      43.251   5.481  11.397  0.00  0.00    +0.000 C 
BRANCH  10  11
ATOM     11  C   UNL     1      43.491   3.964  11.246  0.00  0.00    +0.000 C 
BRANCH  11  12
ATOM     12  N   UNL     1      44.584   3.623  10.306  0.00  0.00    +0.000 NA
ATOM     13  C   UNL     1      44.369   2.323   9.652  0.00  0.00    +0.000 C 
ATOM     14  C   UNL     1      45.534   1.971   8.728  0.00  0.00    +0.000 C 
ATOM     15  C   UNL     1      45.773   3.064   7.695  0.00  0.00    +0.000 C 
ATOM     16  C   UNL     1      45.910   4.420   8.376  0.00  0.00    +0.000 C 
ATOM     17  C   UNL     1      44.730   4.693   9.307  0.00  0.00    +0.000 C 
ENDBRANCH  11  12
ENDBRANCH  10  11
ENDBRANCH   8  10
ENDBRANCH   5   8
ENDBRANCH   1   2
BRANCH   1  20
ATOM     18  C   UNL     1      50.023   9.481  14.458  0.00  0.00    +0.000 C 
ATOM     19  O   UNL     1      50.047  10.392  15.285  0.00  0.00    +0.000 OA
ATOM     20  N   UNL     1      49.318   8.277  14.707  0.00  0.00    +0.000 N 
ATOM     21  C   UNL     1      48.618   8.124  15.975  0.00  0.00    +0.000 C 
BRANCH  18  29
ATOM     22  C   UNL     1      48.340  12.199   9.361  0.00  0.00    +0.000 C 
ATOM     23  C   UNL     1      49.226  11.459  10.296  0.00  0.00    +0.000 A 
ATOM     24  N   UNL     1      50.484  11.078   9.924  0.00  0.00    +0.000 N 
ATOM     25  C   UNL     1      51.088  10.413  10.943  0.00  0.00    +0.000 A 
ATOM     26  N   UNL     1      52.337   9.932  10.848  0.00  0.00    +0.000 NA
ATOM     27  C   UNL     1      52.714   9.299  11.956  0.00  0.00    +0.000 A 
ATOM     28  N   UNL     1      51.996   9.133  13.069  0.00  0.00    +0.000 NA
ATOM     29  C   UNL     1      50.743   9.676  13.153  0.00  0.00    +0.000 A 
ATOM     30  C   UNL     1      50.215  10.341  12.029  0.00  0.00    +0.000 A 
ATOM     31  C   UNL     1      49.017  11.030  11.604  0.00  0.00    +0.000 A 
ATOM     32  C   UNL     1      47.743  11.282  12.336  0.00  0.00    +0.000 C 
ATOM     33  H   UNL     1      50.926  11.249   9.032  0.00  0.00    +0.000 HD
ENDBRANCH  18  29
ENDBRANCH   1  20
TORSDOF 7
ENDMDL
