MODEL 1
REMARK VINA RESULT:    -7.016      0.000      0.000
REMARK INTER + INTRA:          -9.697
REMARK INTER:                  -9.066
REMARK INTRA:                  -0.630
REMARK UNBOUND:                -0.630
REMARK  Name = 
REMARK  5 active torsions:
REMARK  status: ('A' for Active; 'I' for Inactive)
REMARK    1  A    between atoms: C_2  and  C_4
REMARK    2  A    between atoms: C_9  and  C_10
REMARK    3  A    between atoms: C_10  and  O_11
REMARK    4  A    between atoms: O_11  and  C_12
REMARK    5  A    between atoms: C_16  and  C_17
REMARK                            x       y       z     vdW  Elec       q    Type
REMARK                         _______ _______ _______ _____ _____    ______ ____
ROOT
ATOM      1  O   UNL     1      49.163   6.426  14.220  0.00  0.00    +0.000 OA
ENDROOT
BRANCH   1   2
ATOM      2  C   UNL     1      47.914   6.669  13.720  0.00  0.00    +0.000 A 
ATOM      3  C   UNL     1      47.654   7.978  13.333  0.00  0.00    +0.000 A 
ATOM      4  C   UNL     1      46.382   8.325  12.885  0.00  0.00    +0.000 A 
ATOM      5  C   UNL     1      45.385   7.351  12.775  0.00  0.00    +0.000 A 
ATOM      6  C   UNL     1      45.658   6.007  13.059  0.00  0.00    +0.000 A 
ATOM      7  C   UNL     1      46.927   5.694  13.569  0.00  0.00    +0.000 A 
BRANCH   6   8
ATOM      8  C   UNL     1      44.674   4.860  12.843  0.00  0.00    +0.000 C 
ATOM      9  C   UNL     1      45.031   4.036  11.584  0.00  0.00    +0.000 C 
ATOM     10  C   UNL     1      44.654   4.780  10.303  0.00  0.00    +0.000 C 
ATOM     11  N   UNL     1      43.223   5.082  10.266  0.00  0.00    +0.000 NA
ATOM     12  C   UNL     1      42.817   5.887  11.417  0.00  0.00    +0.000 C 
ATOM     13  C   UNL     1      43.185   5.235  12.754  0.00  0.00    +0.000 C 
ATOM     14  H   UNL     1      42.698   4.207  10.266  0.00  0.00    +0.000 HD
ENDBRANCH   6   8
ENDBRANCH   1   2
BRANCH   1  15
ATOM     15  C   UNL     1      49.553   7.301  15.278  0.00  0.00    +0.000 C 
BRANCH  15  21
ATOM     16  C   UNL     1      47.877   5.118  17.913  0.00  0.00    +0.000 A 
ATOM     17  C   UNL     1      47.509   6.071  18.867  0.00  0.00    +0.000 A 
ATOM     18  C   UNL     1      47.806   7.415  18.649  0.00  0.00    +0.000 A 
ATOM     19 CL   UNL     1      47.353   8.592  19.817  0.00  0.00    +0.000 Cl
ATOM     20  C   UNL     1      48.466   7.814  17.491  0.00  0.00    +0.000 A 
ATOM     21  C   UNL     1      48.856   6.864  16.536  0.00  0.00    +0.000 A 
ATOM     22  C   UNL     1      48.557   5.514  16.753  0.00  0.00    +0.000 A 
BRANCH  16  24
ATOM     23  N   UNL     1      48.282   3.004  19.040  0.00  0.00    +0.000 N 
ATOM     24  C   UNL     1      47.577   3.675  18.084  0.00  0.00    +0.000 C 
ATOM     25  O   UNL     1      46.701   3.120  17.433  0.00  0.00    +0.000 OA
ATOM     26  H   UNL     1      47.991   2.049  19.218  0.00  0.00    +0.000 HD
ATOM     27  H   UNL     1      48.813   3.473  19.758  0.00  0.00    +0.000 HD
ENDBRANCH  16  24
ENDBRANCH  15  21
ENDBRANCH   1  15
TORSDOF 5
ENDMDL
MODEL 2
REMARK VINA RESULT:    -6.840      1.817      2.027
REMARK INTER + INTRA:          -9.470
REMARK INTER:                  -8.818
REMARK INTRA:                  -0.651
REMARK UNBOUND:                -0.630
REMARK  Name = 
REMARK  5 active torsions:
REMARK  status: ('A' for Active; 'I' for Inactive)
REMARK    1  A    between atoms: C_2  and  C_4
REMARK    2  A    between atoms: C_9  and  C_10
REMARK    3  A    between atoms: C_10  and  O_11
REMARK    4  A    between atoms: O_11  and  C_12
REMARK    5  A    between atoms: C_16  and  C_17
REMARK                            x       y       z     vdW  Elec       q    Type
REMARK                         _______ _______ _______ _____ _____    ______ ____
ROOT
ATOM      1  O   UNL     1      49.095   6.687  13.935  0.00  0.00    +0.000 OA
ENDROOT
BRANCH   1   2
ATOM      2  C   UNL     1      47.830   6.714  13.419  0.00  0.00    +0.000 A 
ATOM      3  C   UNL     1      47.500   7.836  12.667  0.00  0.00    +0.000 A 
ATOM      4  C   UNL     1      46.207   7.977  12.171  0.00  0.00    +0.000 A 
ATOM      5  C   UNL     1      45.258   6.972  12.383  0.00  0.00    +0.000 A 
ATOM      6  C   UNL     1      45.600   5.787  13.047  0.00  0.00    +0.000 A 
ATOM      7  C   UNL     1      46.890   5.697  13.592  0.00  0.00    +0.000 A 
BRANCH   6   8
ATOM      8  C   UNL     1      44.672   4.586  13.209  0.00  0.00    +0.000 C 
ATOM      9  C   UNL     1      45.114   3.404  12.316  0.00  0.00    +0.000 C 
ATOM     10  C   UNL     1      44.763   3.648  10.849  0.00  0.00    +0.000 C 
ATOM     11  N   UNL     1      43.323   3.846  10.674  0.00  0.00    +0.000 NA
ATOM     12  C   UNL     1      42.839   4.972  11.470  0.00  0.00    +0.000 C 
ATOM     13  C   UNL     1      43.175   4.832  12.959  0.00  0.00    +0.000 C 
ATOM     14  H   UNL     1      42.834   2.998  10.958  0.00  0.00    +0.000 HD
ENDBRANCH   6   8
ENDBRANCH   1   2
BRANCH   1  15
ATOM     15  C   UNL     1      49.213   7.265  15.235  0.00  0.00    +0.000 C 
BRANCH  15  21
ATOM     16  C   UNL     1      49.004   4.296  17.615  0.00  0.00    +0.000 A 
ATOM     17  C   UNL     1      50.330   4.194  18.045  0.00  0.00    +0.000 A 
ATOM     18  C   UNL     1      51.282   5.089  17.561  0.00  0.00    +0.000 A 
ATOM     19 CL   UNL     1      52.914   4.971  18.089  0.00  0.00    +0.000 Cl
ATOM     20  C   UNL     1      50.924   6.081  16.654  0.00  0.00    +0.000 A 
ATOM     21  C   UNL     1      49.600   6.181  16.201  0.00  0.00    +0.000 A 
ATOM     22  C   UNL     1      48.642   5.284  16.688  0.00  0.00    +0.000 A 
BRANCH  16  24
ATOM     23  N   UNL     1      48.114   2.841  19.346  0.00  0.00    +0.000 N 
ATOM     24  C   UNL     1      47.943   3.381  18.104  0.00  0.00    +0.000 C 
ATOM     25  O   UNL     1      46.935   3.157  17.447  0.00  0.00    +0.000 OA
ATOM     26  H   UNL     1      47.333   2.306  19.709  0.00  0.00    +0.000 HD
ATOM     27  H   UNL     1      48.786   3.197  20.009  0.00  0.00    +0.000 HD
ENDBRANCH  16  24
ENDBRANCH  15  21
ENDBRANCH   1  15
TORSDOF 5
ENDMDL
MODEL 3
REMARK VINA RESULT:    -6.831      2.405      3.052
REMARK INTER + INTRA:          -9.458
REMARK INTER:                  -9.422
REMARK INTRA:                  -0.036
REMARK UNBOUND:                -0.630
REMARK  Name = 
REMARK  5 active torsions:
REMARK  status: ('A' for Active; 'I' for Inactive)
REMARK    1  A    between atoms: C_2  and  C_4
REMARK    2  A    between atoms: C_9  and  C_10
REMARK    3  A    between atoms: C_10  and  O_11
REMARK    4  A    between atoms: O_11  and  C_12
REMARK    5  A    between atoms: C_16  and  C_17
REMARK                            x       y       z     vdW  Elec       q    Type
REMARK                         _______ _______ _______ _____ _____    ______ ____
ROOT
ATOM      1  O   UNL     1      47.296   3.648  14.868  0.00  0.00    +0.000 OA
ENDROOT
BRANCH   1   2
ATOM      2  C   UNL     1      46.936   4.577  13.933  0.00  0.00    +0.000 A 
ATOM      3  C   UNL     1      47.808   5.647  13.766  0.00  0.00    +0.000 A 
ATOM      4  C   UNL     1      47.477   6.675  12.889  0.00  0.00    +0.000 A 
ATOM      5  C   UNL     1      46.298   6.609  12.139  0.00  0.00    +0.000 A 
ATOM      6  C   UNL     1      45.460   5.490  12.214  0.00  0.00    +0.000 A 
ATOM      7  C   UNL     1      45.783   4.497  13.152  0.00  0.00    +0.000 A 
BRANCH   6   8
ATOM      8  C   UNL     1      44.227   5.271  11.340  0.00  0.00    +0.000 C 
ATOM      9  C   UNL     1      43.109   4.533  12.112  0.00  0.00    +0.000 C 
ATOM     10  C   UNL     1      43.425   3.047  12.272  0.00  0.00    +0.000 C 
ATOM     11  N   UNL     1      43.594   2.397  10.972  0.00  0.00    +0.000 NA
ATOM     12  C   UNL     1      44.662   3.027  10.195  0.00  0.00    +0.000 C 
ATOM     13  C   UNL     1      44.448   4.533  10.009  0.00  0.00    +0.000 C 
ATOM     14  H   UNL     1      42.720   2.459  10.452  0.00  0.00    +0.000 HD
ENDBRANCH   6   8
ENDBRANCH   1   2
BRANCH   1  15
ATOM     15  C   UNL     1      47.082   4.059  16.219  0.00  0.00    +0.000 C 
BRANCH  15  21
ATOM     16  C   UNL     1      50.529   3.217  17.607  0.00  0.00    +0.000 A 
ATOM     17  C   UNL     1      50.893   4.431  18.197  0.00  0.00    +0.000 A 
ATOM     18  C   UNL     1      50.017   5.513  18.142  0.00  0.00    +0.000 A 
ATOM     19 CL   UNL     1      50.456   7.007  18.870  0.00  0.00    +0.000 Cl
ATOM     20  C   UNL     1      48.786   5.395  17.504  0.00  0.00    +0.000 A 
ATOM     21  C   UNL     1      48.420   4.187  16.892  0.00  0.00    +0.000 A 
ATOM     22  C   UNL     1      49.298   3.100  16.948  0.00  0.00    +0.000 A 
BRANCH  16  24
ATOM     23  N   UNL     1      52.467   2.062  18.510  0.00  0.00    +0.000 N 
ATOM     24  C   UNL     1      51.414   2.026  17.643  0.00  0.00    +0.000 C 
ATOM     25  O   UNL     1      51.184   1.033  16.965  0.00  0.00    +0.000 OA
ATOM     26  H   UNL     1      52.997   1.203  18.602  0.00  0.00    +0.000 HD
ATOM     27  H   UNL     1      52.539   2.739  19.256  0.00  0.00    +0.000 HD
ENDBRANCH  16  24
ENDBRANCH  15  21
ENDBRANCH   1  15
TORSDOF 5
ENDMDL
MODEL 4
REMARK VINA RESULT:    -6.531      2.858      7.465
REMARK INTER + INTRA:          -9.071
REMARK INTER:                  -8.297
REMARK INTRA:                  -0.774
REMARK UNBOUND:                -0.630
REMARK  Name = 
REMARK  5 active torsions:
REMARK  status: ('A' for Active; 'I' for Inactive)
REMARK    1  A    between atoms: C_2  and  C_4
REMARK    2  A    between atoms: C_9  and  C_10
REMARK    3  A    between atoms: C_10  and  O_11
REMARK    4  A    between atoms: O_11  and  C_12
REMARK    5  A    between atoms: C_16  and  C_17
REMARK                            x       y       z     vdW  Elec       q    Type
REMARK                         _______ _______ _______ _____ _____    ______ ____
ROOT
ATOM      1  O   UNL     1      46.656   3.886  15.408  0.00  0.00    +0.000 OA
ENDROOT
BRANCH   1   2
ATOM      2  C   UNL     1      47.701   3.998  16.281  0.00  0.00    +0.000 A 
ATOM      3  C   UNL     1      48.328   2.811  16.640  0.00  0.00    +0.000 A 
ATOM      4  C   UNL     1      49.351   2.829  17.584  0.00  0.00    +0.000 A 
ATOM      5  C   UNL     1      49.782   4.042  18.132  0.00  0.00    +0.000 A 
ATOM      6  C   UNL     1      49.235   5.259  17.705  0.00  0.00    +0.000 A 
ATOM      7  C   UNL     1      48.163   5.208  16.800  0.00  0.00    +0.000 A 
BRANCH   6   8
ATOM      8  C   UNL     1      49.731   6.634  18.147  0.00  0.00    +0.000 C 
ATOM      9  C   UNL     1      50.200   6.620  19.620  0.00  0.00    +0.000 C 
ATOM     10  C   UNL     1      49.016   6.588  20.585  0.00  0.00    +0.000 C 
ATOM     11  N   UNL     1      48.141   7.745  20.390  0.00  0.00    +0.000 NA
ATOM     12  C   UNL     1      47.633   7.805  19.020  0.00  0.00    +0.000 C 
ATOM     13  C   UNL     1      48.752   7.808  17.974  0.00  0.00    +0.000 C 
ATOM     14  H   UNL     1      48.664   8.596  20.592  0.00  0.00    +0.000 HD
ENDBRANCH   6   8
ENDBRANCH   1   2
BRANCH   1  15
ATOM     15  C   UNL     1      47.044   3.654  14.053  0.00  0.00    +0.000 C 
BRANCH  15  21
ATOM     16  C   UNL     1      44.865   5.875  11.853  0.00  0.00    +0.000 A 
ATOM     17  C   UNL     1      45.719   6.959  11.625  0.00  0.00    +0.000 A 
ATOM     18  C   UNL     1      46.994   6.961  12.185  0.00  0.00    +0.000 A 
ATOM     19 CL   UNL     1      48.050   8.289  11.905  0.00  0.00    +0.000 Cl
ATOM     20  C   UNL     1      47.425   5.895  12.970  0.00  0.00    +0.000 A 
ATOM     21  C   UNL     1      46.569   4.812  13.220  0.00  0.00    +0.000 A 
ATOM     22  C   UNL     1      45.289   4.808  12.657  0.00  0.00    +0.000 A 
BRANCH  16  24
ATOM     23  N   UNL     1      42.812   6.985  11.175  0.00  0.00    +0.000 N 
ATOM     24  C   UNL     1      43.501   5.811  11.274  0.00  0.00    +0.000 C 
ATOM     25  O   UNL     1      43.030   4.761  10.855  0.00  0.00    +0.000 OA
ATOM     26  H   UNL     1      41.928   6.941  10.681  0.00  0.00    +0.000 HD
ATOM     27  H   UNL     1      43.255   7.887  11.266  0.00  0.00    +0.000 HD
ENDBRANCH  16  24
ENDBRANCH  15  21
ENDBRANCH   1  15
TORSDOF 5
ENDMDL
MODEL 5
REMARK VINA RESULT:    -6.476      3.130      7.449
REMARK INTER + INTRA:          -8.999
REMARK INTER:                  -8.271
REMARK INTRA:                  -0.728
REMARK UNBOUND:                -0.630
REMARK  Name = 
REMARK  5 active torsions:
REMARK  status: ('A' for Active; 'I' for Inactive)
REMARK    1  A    between atoms: C_2  and  C_4
REMARK    2  A    between atoms: C_9  and  C_10
REMARK    3  A    between atoms: C_10  and  O_11
REMARK    4  A    between atoms: O_11  and  C_12
REMARK    5  A    between atoms: C_16  and  C_17
REMARK                            x       y       z     vdW  Elec       q    Type
REMARK                         _______ _______ _______ _____ _____    ______ ____
ROOT
ATOM      1  O   UNL     1      46.710   3.999  15.456  0.00  0.00    +0.000 OA
ENDROOT
BRANCH   1   2
ATOM      2  C   UNL     1      47.837   4.035  16.228  0.00  0.00    +0.000 A 
ATOM      3  C   UNL     1      48.338   2.805  16.639  0.00  0.00    +0.000 A 
ATOM      4  C   UNL     1      49.438   2.758  17.491  0.00  0.00    +0.000 A 
ATOM      5  C   UNL     1      50.068   3.940  17.892  0.00  0.00    +0.000 A 
ATOM      6  C   UNL     1      49.644   5.183  17.405  0.00  0.00    +0.000 A 
ATOM      7  C   UNL     1      48.496   5.208  16.598  0.00  0.00    +0.000 A 
BRANCH   6   8
ATOM      8  C   UNL     1      50.351   6.508  17.681  0.00  0.00    +0.000 C 
ATOM      9  C   UNL     1      50.026   7.561  16.596  0.00  0.00    +0.000 C 
ATOM     10  C   UNL     1      50.778   7.276  15.296  0.00  0.00    +0.000 C 
ATOM     11  N   UNL     1      52.225   7.267  15.512  0.00  0.00    +0.000 NA
ATOM     12  C   UNL     1      52.610   6.270  16.509  0.00  0.00    +0.000 C 
ATOM     13  C   UNL     1      51.880   6.454  17.843  0.00  0.00    +0.000 C 
ATOM     14  H   UNL     1      52.520   8.190  15.829  0.00  0.00    +0.000 HD
ENDBRANCH   6   8
ENDBRANCH   1   2
BRANCH   1  15
ATOM     15  C   UNL     1      46.919   3.504  14.133  0.00  0.00    +0.000 C 
BRANCH  15  21
ATOM     16  C   UNL     1      44.905   5.290  11.437  0.00  0.00    +0.000 A 
ATOM     17  C   UNL     1      45.618   6.485  11.306  0.00  0.00    +0.000 A 
ATOM     18  C   UNL     1      46.748   6.702  12.092  0.00  0.00    +0.000 A 
ATOM     19 CL   UNL     1      47.632   8.168  11.934  0.00  0.00    +0.000 Cl
ATOM     20  C   UNL     1      47.170   5.741  13.006  0.00  0.00    +0.000 A 
ATOM     21  C   UNL     1      46.450   4.547  13.158  0.00  0.00    +0.000 A 
ATOM     22  C   UNL     1      45.317   4.327  12.368  0.00  0.00    +0.000 A 
BRANCH  16  24
ATOM     23  N   UNL     1      43.911   4.550   9.346  0.00  0.00    +0.000 N 
ATOM     24  C   UNL     1      43.702   4.996  10.619  0.00  0.00    +0.000 C 
ATOM     25  O   UNL     1      42.572   5.099  11.078  0.00  0.00    +0.000 OA
ATOM     26  H   UNL     1      43.086   4.253   8.838  0.00  0.00    +0.000 HD
ATOM     27  H   UNL     1      44.806   4.211   9.026  0.00  0.00    +0.000 HD
ENDBRANCH  16  24
ENDBRANCH  15  21
ENDBRANCH   1  15
TORSDOF 5
ENDMDL
MODEL 6
REMARK VINA RESULT:    -6.354      3.332      7.482
REMARK INTER + INTRA:          -8.841
REMARK INTER:                  -8.013
REMARK INTRA:                  -0.828
REMARK UNBOUND:                -0.630
REMARK  Name = 
REMARK  5 active torsions:
REMARK  status: ('A' for Active; 'I' for Inactive)
REMARK    1  A    between atoms: C_2  and  C_4
REMARK    2  A    between atoms: C_9  and  C_10
REMARK    3  A    between atoms: C_10  and  O_11
REMARK    4  A    between atoms: O_11  and  C_12
REMARK    5  A    between atoms: C_16  and  C_17
REMARK                            x       y       z     vdW  Elec       q    Type
REMARK                         _______ _______ _______ _____ _____    ______ ____
ROOT
ATOM      1  O   UNL     1      46.631   3.882  15.272  0.00  0.00    +0.000 OA
ENDROOT
BRANCH   1   2
ATOM      2  C   UNL     1      47.682   4.037  16.133  0.00  0.00    +0.000 A 
ATOM      3  C   UNL     1      48.160   2.878  16.731  0.00  0.00    +0.000 A 
ATOM      4  C   UNL     1      49.177   2.959  17.678  0.00  0.00    +0.000 A 
ATOM      5  C   UNL     1      49.752   4.195  17.989  0.00  0.00    +0.000 A 
ATOM      6  C   UNL     1      49.357   5.361  17.320  0.00  0.00    +0.000 A 
ATOM      7  C   UNL     1      48.288   5.262  16.417  0.00  0.00    +0.000 A 
BRANCH   6   8
ATOM      8  C   UNL     1      50.017   6.727  17.497  0.00  0.00    +0.000 C 
ATOM      9  C   UNL     1      50.600   6.894  18.919  0.00  0.00    +0.000 C 
ATOM     10  C   UNL     1      49.500   7.141  19.950  0.00  0.00    +0.000 C 
ATOM     11  N   UNL     1      48.727   8.340  19.625  0.00  0.00    +0.000 NA
ATOM     12  C   UNL     1      48.118   8.239  18.299  0.00  0.00    +0.000 C 
ATOM     13  C   UNL     1      49.145   7.958  17.197  0.00  0.00    +0.000 C 
ATOM     14  H   UNL     1      49.344   9.151  19.650  0.00  0.00    +0.000 HD
ENDBRANCH   6   8
ENDBRANCH   1   2
BRANCH   1  15
ATOM     15  C   UNL     1      47.008   3.755  13.901  0.00  0.00    +0.000 C 
BRANCH  15  21
ATOM     16  C   UNL     1      45.616   7.078  12.657  0.00  0.00    +0.000 A 
ATOM     17  C   UNL     1      44.758   6.652  11.639  0.00  0.00    +0.000 A 
ATOM     18  C   UNL     1      44.636   5.292  11.364  0.00  0.00    +0.000 A 
ATOM     19 CL   UNL     1      43.579   4.763  10.115  0.00  0.00    +0.000 Cl
ATOM     20  C   UNL     1      45.361   4.355  12.093  0.00  0.00    +0.000 A 
ATOM     21  C   UNL     1      46.239   4.772  13.104  0.00  0.00    +0.000 A 
ATOM     22  C   UNL     1      46.361   6.138  13.382  0.00  0.00    +0.000 A 
BRANCH  16  24
ATOM     23  N   UNL     1      46.681   8.814  13.983  0.00  0.00    +0.000 N 
ATOM     24  C   UNL     1      45.778   8.511  13.005  0.00  0.00    +0.000 C 
ATOM     25  O   UNL     1      45.170   9.389  12.408  0.00  0.00    +0.000 OA
ATOM     26  H   UNL     1      46.858   9.801  14.133  0.00  0.00    +0.000 HD
ATOM     27  H   UNL     1      47.375   8.158  14.309  0.00  0.00    +0.000 HD
ENDBRANCH  16  24
ENDBRANCH  15  21
ENDBRANCH   1  15
TORSDOF 5
ENDMDL
MODEL 7
REMARK VINA RESULT:    -6.324      3.035      7.315
REMARK INTER + INTRA:          -8.803
REMARK INTER:                  -8.143
REMARK INTRA:                  -0.660
REMARK UNBOUND:                -0.630
REMARK  Name = 
REMARK  5 active torsions:
REMARK  status: ('A' for Active; 'I' for Inactive)
REMARK    1  A    between atoms: C_2  and  C_4
REMARK    2  A    between atoms: C_9  and  C_10
REMARK    3  A    between atoms: C_10  and  O_11
REMARK    4  A    between atoms: O_11  and  C_12
REMARK    5  A    between atoms: C_16  and  C_17
REMARK                            x       y       z     vdW  Elec       q    Type
REMARK                         _______ _______ _______ _____ _____    ______ ____
ROOT
ATOM      1  O   UNL     1      47.563   4.410  14.795  0.00  0.00    +0.000 OA
ENDROOT
BRANCH   1   2
ATOM      2  C   UNL     1      47.914   4.396  16.116  0.00  0.00    +0.000 A 
ATOM      3  C   UNL     1      47.737   3.190  16.783  0.00  0.00    +0.000 A 
ATOM      4  C   UNL     1      47.998   3.113  18.149  0.00  0.00    +0.000 A 
ATOM      5  C   UNL     1      48.486   4.229  18.836  0.00  0.00    +0.000 A 
ATOM      6  C   UNL     1      48.771   5.422  18.160  0.00  0.00    +0.000 A 
ATOM      7  C   UNL     1      48.440   5.494  16.799  0.00  0.00    +0.000 A 
BRANCH   6   8
ATOM      8  C   UNL     1      49.427   6.644  18.800  0.00  0.00    +0.000 C 
ATOM      9  C   UNL     1      49.150   6.705  20.320  0.00  0.00    +0.000 C 
ATOM     10  C   UNL     1      47.718   7.154  20.610  0.00  0.00    +0.000 C 
ATOM     11  N   UNL     1      47.449   8.474  20.038  0.00  0.00    +0.000 NA
ATOM     12  C   UNL     1      47.663   8.482  18.592  0.00  0.00    +0.000 C 
ATOM     13  C   UNL     1      49.068   8.013  18.199  0.00  0.00    +0.000 C 
ATOM     14  H   UNL     1      48.068   9.158  20.473  0.00  0.00    +0.000 HD
ENDBRANCH   6   8
ENDBRANCH   1   2
BRANCH   1  15
ATOM     15  C   UNL     1      47.510   5.713  14.214  0.00  0.00    +0.000 C 
BRANCH  15  21
ATOM     16  C   UNL     1      44.638   4.630  11.956  0.00  0.00    +0.000 A 
ATOM     17  C   UNL     1      44.222   5.857  11.432  0.00  0.00    +0.000 A 
ATOM     18  C   UNL     1      44.876   7.026  11.813  0.00  0.00    +0.000 A 
ATOM     19 CL   UNL     1      44.371   8.539  11.170  0.00  0.00    +0.000 Cl
ATOM     20  C   UNL     1      45.938   6.983  12.712  0.00  0.00    +0.000 A 
ATOM     21  C   UNL     1      46.351   5.758  13.258  0.00  0.00    +0.000 A 
ATOM     22  C   UNL     1      45.696   4.583  12.874  0.00  0.00    +0.000 A 
BRANCH  16  24
ATOM     23  N   UNL     1      43.848   2.412  12.559  0.00  0.00    +0.000 N 
ATOM     24  C   UNL     1      43.989   3.350  11.578  0.00  0.00    +0.000 C 
ATOM     25  O   UNL     1      43.552   3.160  10.450  0.00  0.00    +0.000 OA
ATOM     26  H   UNL     1      43.309   1.590  12.314  0.00  0.00    +0.000 HD
ATOM     27  H   UNL     1      43.957   2.626  13.540  0.00  0.00    +0.000 HD
ENDBRANCH  16  24
ENDBRANCH  15  21
ENDBRANCH   1  15
TORSDOF 5
ENDMDL
MODEL 8
REMARK VINA RESULT:    -6.103      2.469      3.191
REMARK INTER + INTRA:          -8.517
REMARK INTER:                  -8.014
REMARK INTRA:                  -0.503
REMARK UNBOUND:                -0.630
REMARK  Name = 
REMARK  5 active torsions:
REMARK  status: ('A' for Active; 'I' for Inactive)
REMARK    1  A    between atoms: C_2  and  C_4
REMARK    2  A    between atoms: C_9  and  C_10
REMARK    3  A    between atoms: C_10  and  O_11
REMARK    4  A    between atoms: O_11  and  C_12
REMARK    5  A    between atoms: C_16  and  C_17
REMARK                            x       y       z     vdW  Elec       q    Type
REMARK                         _______ _______ _______ _____ _____    ______ ____
ROOT
ATOM      1  O   UNL     1      47.618   3.992  14.878  0.00  0.00    +0.000 OA
ENDROOT
BRANCH   1   2
ATOM      2  C   UNL     1      47.167   4.894  13.955  0.00  0.00    +0.000 A 
ATOM      3  C   UNL     1      47.624   6.198  14.100  0.00  0.00    +0.000 A 
ATOM      4  C   UNL     1      47.153   7.193  13.248  0.00  0.00    +0.000 A 
ATOM      5  C   UNL     1      46.263   6.873  12.218  0.00  0.00    +0.000 A 
ATOM      6  C   UNL     1      45.873   5.548  11.989  0.00  0.00    +0.000 A 
ATOM      7  C   UNL     1      46.312   4.574  12.899  0.00  0.00    +0.000 A 
BRANCH   6   8
ATOM      8  C   UNL     1      45.015   5.088  10.813  0.00  0.00    +0.000 C 
ATOM      9  C   UNL     1      43.616   5.746  10.841  0.00  0.00    +0.000 C 
ATOM     10  C   UNL     1      42.723   5.120  11.912  0.00  0.00    +0.000 C 
ATOM     11  N   UNL     1      42.553   3.684  11.687  0.00  0.00    +0.000 NA
ATOM     12  C   UNL     1      43.840   2.989  11.678  0.00  0.00    +0.000 C 
ATOM     13  C   UNL     1      44.819   3.571  10.653  0.00  0.00    +0.000 C 
ATOM     14  H   UNL     1      42.087   3.539  10.792  0.00  0.00    +0.000 HD
ENDBRANCH   6   8
ENDBRANCH   1   2
BRANCH   1  15
ATOM     15  C   UNL     1      46.932   4.039  16.129  0.00  0.00    +0.000 C 
BRANCH  15  21
ATOM     16  C   UNL     1      48.596   5.284  19.323  0.00  0.00    +0.000 A 
ATOM     17  C   UNL     1      49.868   4.713  19.211  0.00  0.00    +0.000 A 
ATOM     18  C   UNL     1      50.176   3.931  18.101  0.00  0.00    +0.000 A 
ATOM     19 CL   UNL     1      51.740   3.229  17.956  0.00  0.00    +0.000 Cl
ATOM     20  C   UNL     1      49.230   3.711  17.104  0.00  0.00    +0.000 A 
ATOM     21  C   UNL     1      47.946   4.263  17.216  0.00  0.00    +0.000 A 
ATOM     22  C   UNL     1      47.635   5.051  18.330  0.00  0.00    +0.000 A 
BRANCH  16  24
ATOM     23  N   UNL     1      49.118   7.075  20.881  0.00  0.00    +0.000 N 
ATOM     24  C   UNL     1      48.213   6.137  20.475  0.00  0.00    +0.000 C 
ATOM     25  O   UNL     1      47.115   6.041  21.008  0.00  0.00    +0.000 OA
ATOM     26  H   UNL     1      48.800   7.719  21.596  0.00  0.00    +0.000 HD
ATOM     27  H   UNL     1      49.907   7.354  20.316  0.00  0.00    +0.000 HD
ENDBRANCH  16  24
ENDBRANCH  15  21
ENDBRANCH   1  15
TORSDOF 5
ENDMDL
MODEL 9
REMARK VINA RESULT:    -5.914      1.838      2.268
REMARK INTER + INTRA:          -8.273
REMARK INTER:                  -7.680
REMARK INTRA:                  -0.592
REMARK UNBOUND:                -0.630
REMARK  Name = 
REMARK  5 active torsions:
REMARK  status: ('A' for Active; 'I' for Inactive)
REMARK    1  A    between atoms: C_2  and  C_4
REMARK    2  A    between atoms: C_9  and  C_10
REMARK    3  A    between atoms: C_10  and  O_11
REMARK    4  A    between atoms: O_11  and  C_12
REMARK    5  A    between atoms: C_16  and  C_17
REMARK                            x       y       z     vdW  Elec       q    Type
REMARK                         _______ _______ _______ _____ _____    ______ ____
ROOT
ATOM      1  O   UNL     1      48.028   4.915  14.749  0.00  0.00    +0.000 OA
ENDROOT
BRANCH   1   2
ATOM      2  C   UNL     1      47.091   5.504  13.949  0.00  0.00    +0.000 A 
ATOM      3  C   UNL     1      47.436   6.737  13.408  0.00  0.00    +0.000 A 
ATOM      4  C   UNL     1      46.508   7.439  12.644  0.00  0.00    +0.000 A 
ATOM      5  C   UNL     1      45.252   6.885  12.378  0.00  0.00    +0.000 A 
ATOM      6  C   UNL     1      44.924   5.599  12.825  0.00  0.00    +0.000 A 
ATOM      7  C   UNL     1      45.852   4.939  13.645  0.00  0.00    +0.000 A 
BRANCH   6   8
ATOM      8  C   UNL     1      43.633   4.863  12.473  0.00  0.00    +0.000 C 
ATOM      9  C   UNL     1      43.827   3.330  12.512  0.00  0.00    +0.000 C 
ATOM     10  C   UNL     1      44.602   2.832  11.293  0.00  0.00    +0.000 C 
ATOM     11  N   UNL     1      43.915   3.179  10.048  0.00  0.00    +0.000 NA
ATOM     12  C   UNL     1      43.723   4.623   9.929  0.00  0.00    +0.000 C 
ATOM     13  C   UNL     1      42.979   5.222  11.127  0.00  0.00    +0.000 C 
ATOM     14  H   UNL     1      43.006   2.717  10.030  0.00  0.00    +0.000 HD
ENDBRANCH   6   8
ENDBRANCH   1   2
BRANCH   1  15
ATOM     15  C   UNL     1      47.525   4.452  16.003  0.00  0.00    +0.000 C 
BRANCH  15  21
ATOM     16  C   UNL     1      48.513   5.728  19.455  0.00  0.00    +0.000 A 
ATOM     17  C   UNL     1      49.278   6.850  19.125  0.00  0.00    +0.000 A 
ATOM     18  C   UNL     1      49.467   7.185  17.786  0.00  0.00    +0.000 A 
ATOM     19 CL   UNL     1      50.405   8.566  17.374  0.00  0.00    +0.000 Cl
ATOM     20  C   UNL     1      48.902   6.413  16.776  0.00  0.00    +0.000 A 
ATOM     21  C   UNL     1      48.148   5.274  17.096  0.00  0.00    +0.000 A 
ATOM     22  C   UNL     1      47.956   4.937  18.440  0.00  0.00    +0.000 A 
BRANCH  16  24
ATOM     23  N   UNL     1      49.110   4.401  21.401  0.00  0.00    +0.000 N 
ATOM     24  C   UNL     1      48.266   5.328  20.862  0.00  0.00    +0.000 C 
ATOM     25  O   UNL     1      47.377   5.842  21.529  0.00  0.00    +0.000 OA
ATOM     26  H   UNL     1      48.996   4.219  22.392  0.00  0.00    +0.000 HD
ATOM     27  H   UNL     1      49.992   4.154  20.978  0.00  0.00    +0.000 HD
ENDBRANCH  16  24
ENDBRANCH  15  21
ENDBRANCH   1  15
TORSDOF 5
ENDMDL
