MODEL 1
REMARK VINA RESULT:    -8.192      0.000      0.000
REMARK INTER + INTRA:         -12.337
REMARK INTER:                 -11.544
REMARK INTRA:                  -0.793
REMARK UNBOUND:                -0.793
REMARK  Name = 
REMARK  9 active torsions:
REMARK  status: ('A' for Active; 'I' for Inactive)
REMARK    1  A    between atoms: C_1  and  O_2
REMARK    2  A    between atoms: O_2  and  C_3
REMARK    3  A    between atoms: C_5  and  C_6
REMARK    4  A    between atoms: C_11  and  N_12
REMARK    5  A    between atoms: N_12  and  C_13
REMARK    6  A    between atoms: C_13  and  C_14
REMARK    7  A    between atoms: C_19  and  C_20
REMARK    8  A    between atoms: C_25  and  O_26
REMARK    9  A    between atoms: O_26  and  C_27
REMARK                            x       y       z     vdW  Elec       q    Type
REMARK                         _______ _______ _______ _____ _____    ______ ____
ROOT
ATOM      1  C   UNL     1      43.582   5.422  11.645  0.00  0.00    +0.000 C 
ENDROOT
BRANCH   1   2
ATOM      2  C   UNL     1      44.931   5.549  12.314  0.00  0.00    +0.000 A 
ATOM      3  C   UNL     1      45.356   4.620  13.265  0.00  0.00    +0.000 A 
ATOM      4  C   UNL     1      46.577   4.805  13.892  0.00  0.00    +0.000 A 
ATOM      5  F   UNL     1      46.999   3.901  14.787  0.00  0.00    +0.000 F 
ATOM      6  C   UNL     1      47.384   5.905  13.599  0.00  0.00    +0.000 A 
ATOM      7  C   UNL     1      47.005   6.861  12.636  0.00  0.00    +0.000 A 
ATOM      8  C   UNL     1      45.759   6.653  12.015  0.00  0.00    +0.000 A 
BRANCH   7   9
ATOM      9  C   UNL     1      47.920   7.975  12.232  0.00  0.00    +0.000 A 
ATOM     10  C   UNL     1      49.232   7.650  11.814  0.00  0.00    +0.000 A 
ATOM     11  C   UNL     1      50.129   8.609  11.348  0.00  0.00    +0.000 A 
ATOM     12  C   UNL     1      49.750   9.939  11.290  0.00  0.00    +0.000 A 
ATOM     13  C   UNL     1      48.478  10.308  11.710  0.00  0.00    +0.000 A 
ATOM     14  C   UNL     1      47.554   9.347  12.165  0.00  0.00    +0.000 A 
BRANCH  14  15
ATOM     15  O   UNL     1      46.300   9.718  12.593  0.00  0.00    +0.000 OA
ATOM     16  C   UNL     1      45.494  10.414  11.642  0.00  0.00    +0.000 C 
ENDBRANCH  14  15
ENDBRANCH   7   9
ENDBRANCH   1   2
BRANCH   1  17
ATOM     17  N   UNL     1      43.749   5.379  10.192  0.00  0.00    +0.000 N 
ATOM     18  H   UNL     1      44.034   6.287   9.835  0.00  0.00    +0.000 HD
BRANCH  17  24
ATOM     19  C   UNL     1      44.283   2.952   9.868  0.00  0.00    +0.000 A 
ATOM     20  C   UNL     1      45.069   1.990   9.218  0.00  0.00    +0.000 A 
ATOM     21  C   UNL     1      46.077   2.354   8.317  0.00  0.00    +0.000 A 
ATOM     22  C   UNL     1      46.272   3.708   8.040  0.00  0.00    +0.000 A 
ATOM     23  C   UNL     1      45.482   4.674   8.680  0.00  0.00    +0.000 A 
ATOM     24  C   UNL     1      44.505   4.328   9.635  0.00  0.00    +0.000 A 
BRANCH  21  25
ATOM     25  C   UNL     1      46.862   1.248   7.697  0.00  0.00    +0.000 C 
ATOM     26  N   UNL     1      47.942   1.558   6.923  0.00  0.00    +0.000 N 
ATOM     27  O   UNL     1      46.561   0.072   7.874  0.00  0.00    +0.000 OA
ATOM     28  H   UNL     1      48.263   2.491   6.709  0.00  0.00    +0.000 HD
ATOM     29  H   UNL     1      48.441   0.778   6.516  0.00  0.00    +0.000 HD
ENDBRANCH  21  25
BRANCH  19  31
ATOM     30  C   UNL     1      43.573   2.000  11.934  0.00  0.00    +0.000 C 
ATOM     31  O   UNL     1      43.242   2.593  10.685  0.00  0.00    +0.000 OA
ENDBRANCH  19  31
ENDBRANCH  17  24
ENDBRANCH   1  17
TORSDOF 7
ENDMDL
MODEL 2
REMARK VINA RESULT:    -7.994      2.231      3.841
REMARK INTER + INTRA:         -12.058
REMARK INTER:                 -11.581
REMARK INTRA:                  -0.478
REMARK UNBOUND:                -0.793
REMARK  Name = 
REMARK  9 active torsions:
REMARK  status: ('A' for Active; 'I' for Inactive)
REMARK    1  A    between atoms: C_1  and  O_2
REMARK    2  A    between atoms: O_2  and  C_3
REMARK    3  A    between atoms: C_5  and  C_6
REMARK    4  A    between atoms: C_11  and  N_12
REMARK    5  A    between atoms: N_12  and  C_13
REMARK    6  A    between atoms: C_13  and  C_14
REMARK    7  A    between atoms: C_19  and  C_20
REMARK    8  A    between atoms: C_25  and  O_26
REMARK    9  A    between atoms: O_26  and  C_27
REMARK                            x       y       z     vdW  Elec       q    Type
REMARK                         _______ _______ _______ _____ _____    ______ ____
ROOT
ATOM      1  C   UNL     1      43.991   5.756  11.761  0.00  0.00    +0.000 C 
ENDROOT
BRANCH   1   2
ATOM      2  C   UNL     1      45.408   6.017  12.218  0.00  0.00    +0.000 A 
ATOM      3  C   UNL     1      46.280   6.795  11.458  0.00  0.00    +0.000 A 
ATOM      4  C   UNL     1      47.586   6.964  11.889  0.00  0.00    +0.000 A 
ATOM      5  F   UNL     1      48.420   7.732  11.173  0.00  0.00    +0.000 F 
ATOM      6  C   UNL     1      48.047   6.364  13.061  0.00  0.00    +0.000 A 
ATOM      7  C   UNL     1      47.198   5.583  13.870  0.00  0.00    +0.000 A 
ATOM      8  C   UNL     1      45.879   5.423  13.410  0.00  0.00    +0.000 A 
BRANCH   7   9
ATOM      9  C   UNL     1      47.653   5.037  15.189  0.00  0.00    +0.000 A 
ATOM     10  C   UNL     1      47.386   3.679  15.483  0.00  0.00    +0.000 A 
ATOM     11  C   UNL     1      47.836   3.062  16.649  0.00  0.00    +0.000 A 
ATOM     12  C   UNL     1      48.568   3.786  17.575  0.00  0.00    +0.000 A 
ATOM     13  C   UNL     1      48.836   5.128  17.338  0.00  0.00    +0.000 A 
ATOM     14  C   UNL     1      48.405   5.760  16.155  0.00  0.00    +0.000 A 
BRANCH  14  15
ATOM     15  O   UNL     1      48.661   7.093  15.930  0.00  0.00    +0.000 OA
ATOM     16  C   UNL     1      49.594   7.709  16.818  0.00  0.00    +0.000 C 
ENDBRANCH  14  15
ENDBRANCH   7   9
ENDBRANCH   1   2
BRANCH   1  17
ATOM     17  N   UNL     1      43.957   5.602  10.307  0.00  0.00    +0.000 N 
ATOM     18  H   UNL     1      44.195   6.476   9.846  0.00  0.00    +0.000 HD
BRANCH  17  24
ATOM     19  C   UNL     1      44.330   3.144   9.993  0.00  0.00    +0.000 A 
ATOM     20  C   UNL     1      45.031   2.129   9.325  0.00  0.00    +0.000 A 
ATOM     21  C   UNL     1      46.021   2.422   8.380  0.00  0.00    +0.000 A 
ATOM     22  C   UNL     1      46.287   3.759   8.078  0.00  0.00    +0.000 A 
ATOM     23  C   UNL     1      45.583   4.777   8.737  0.00  0.00    +0.000 A 
ATOM     24  C   UNL     1      44.625   4.501   9.734  0.00  0.00    +0.000 A 
BRANCH  21  25
ATOM     25  C   UNL     1      46.713   1.263   7.743  0.00  0.00    +0.000 C 
ATOM     26  N   UNL     1      47.757   1.502   6.897  0.00  0.00    +0.000 N 
ATOM     27  O   UNL     1      46.367   0.109   7.970  0.00  0.00    +0.000 OA
ATOM     28  H   UNL     1      48.108   2.412   6.639  0.00  0.00    +0.000 HD
ATOM     29  H   UNL     1      48.191   0.688   6.482  0.00  0.00    +0.000 HD
ENDBRANCH  21  25
BRANCH  19  31
ATOM     30  C   UNL     1      43.656   2.389  12.150  0.00  0.00    +0.000 C 
ATOM     31  O   UNL     1      43.303   2.857  10.854  0.00  0.00    +0.000 OA
ENDBRANCH  19  31
ENDBRANCH  17  24
ENDBRANCH   1  17
TORSDOF 7
ENDMDL
MODEL 3
REMARK VINA RESULT:    -7.741      2.615      4.122
REMARK INTER + INTRA:         -11.701
REMARK INTER:                 -10.779
REMARK INTRA:                  -0.923
REMARK UNBOUND:                -0.793
REMARK  Name = 
REMARK  9 active torsions:
REMARK  status: ('A' for Active; 'I' for Inactive)
REMARK    1  A    between atoms: C_1  and  O_2
REMARK    2  A    between atoms: O_2  and  C_3
REMARK    3  A    between atoms: C_5  and  C_6
REMARK    4  A    between atoms: C_11  and  N_12
REMARK    5  A    between atoms: N_12  and  C_13
REMARK    6  A    between atoms: C_13  and  C_14
REMARK    7  A    between atoms: C_19  and  C_20
REMARK    8  A    between atoms: C_25  and  O_26
REMARK    9  A    between atoms: O_26  and  C_27
REMARK                            x       y       z     vdW  Elec       q    Type
REMARK                         _______ _______ _______ _____ _____    ______ ____
ROOT
ATOM      1  C   UNL     1      44.263   5.896  11.735  0.00  0.00    +0.000 C 
ENDROOT
BRANCH   1   2
ATOM      2  C   UNL     1      44.701   7.343  11.745  0.00  0.00    +0.000 A 
ATOM      3  C   UNL     1      45.839   7.747  12.441  0.00  0.00    +0.000 A 
ATOM      4  C   UNL     1      46.173   9.092  12.468  0.00  0.00    +0.000 A 
ATOM      5  F   UNL     1      47.282   9.481  13.114  0.00  0.00    +0.000 F 
ATOM      6  C   UNL     1      45.388  10.048  11.822  0.00  0.00    +0.000 A 
ATOM      7  C   UNL     1      44.238   9.685  11.093  0.00  0.00    +0.000 A 
ATOM      8  C   UNL     1      43.918   8.315  11.084  0.00  0.00    +0.000 A 
BRANCH   7   9
ATOM      9  C   UNL     1      43.461  10.690  10.300  0.00  0.00    +0.000 A 
ATOM     10  C   UNL     1      43.769  10.846   8.928  0.00  0.00    +0.000 A 
ATOM     11  C   UNL     1      43.051  11.699   8.091  0.00  0.00    +0.000 A 
ATOM     12  C   UNL     1      41.998  12.440   8.600  0.00  0.00    +0.000 A 
ATOM     13  C   UNL     1      41.673  12.334   9.946  0.00  0.00    +0.000 A 
ATOM     14  C   UNL     1      42.377  11.461  10.799  0.00  0.00    +0.000 A 
BRANCH  14  15
ATOM     15  O   UNL     1      42.061  11.370  12.135  0.00  0.00    +0.000 OA
ATOM     16  C   UNL     1      40.788  11.893  12.515  0.00  0.00    +0.000 C 
ENDBRANCH  14  15
ENDBRANCH   7   9
ENDBRANCH   1   2
BRANCH   1  17
ATOM     17  N   UNL     1      43.860   5.507  10.383  0.00  0.00    +0.000 N 
ATOM     18  H   UNL     1      43.799   6.321   9.777  0.00  0.00    +0.000 HD
BRANCH  17  24
ATOM     19  C   UNL     1      44.265   3.065   9.992  0.00  0.00    +0.000 A 
ATOM     20  C   UNL     1      44.968   2.081   9.282  0.00  0.00    +0.000 A 
ATOM     21  C   UNL     1      45.935   2.416   8.327  0.00  0.00    +0.000 A 
ATOM     22  C   UNL     1      46.173   3.766   8.058  0.00  0.00    +0.000 A 
ATOM     23  C   UNL     1      45.467   4.754   8.759  0.00  0.00    +0.000 A 
ATOM     24  C   UNL     1      44.534   4.434   9.767  0.00  0.00    +0.000 A 
BRANCH  21  25
ATOM     25  C   UNL     1      46.632   1.288   7.644  0.00  0.00    +0.000 C 
ATOM     26  N   UNL     1      47.468   1.563   6.602  0.00  0.00    +0.000 N 
ATOM     27  O   UNL     1      46.473   0.126   8.005  0.00  0.00    +0.000 OA
ATOM     28  H   UNL     1      47.655   2.480   6.224  0.00  0.00    +0.000 HD
ATOM     29  H   UNL     1      47.913   0.767   6.163  0.00  0.00    +0.000 HD
ENDBRANCH  21  25
BRANCH  19  31
ATOM     30  C   UNL     1      43.628   2.500  12.218  0.00  0.00    +0.000 C 
ATOM     31  O   UNL     1      43.260   2.737  10.865  0.00  0.00    +0.000 OA
ENDBRANCH  19  31
ENDBRANCH  17  24
ENDBRANCH   1  17
TORSDOF 7
ENDMDL
MODEL 4
REMARK VINA RESULT:    -7.359      2.022      2.817
REMARK INTER + INTRA:         -11.164
REMARK INTER:                 -10.109
REMARK INTRA:                  -1.054
REMARK UNBOUND:                -0.793
REMARK  Name = 
REMARK  9 active torsions:
REMARK  status: ('A' for Active; 'I' for Inactive)
REMARK    1  A    between atoms: C_1  and  O_2
REMARK    2  A    between atoms: O_2  and  C_3
REMARK    3  A    between atoms: C_5  and  C_6
REMARK    4  A    between atoms: C_11  and  N_12
REMARK    5  A    between atoms: N_12  and  C_13
REMARK    6  A    between atoms: C_13  and  C_14
REMARK    7  A    between atoms: C_19  and  C_20
REMARK    8  A    between atoms: C_25  and  O_26
REMARK    9  A    between atoms: O_26  and  C_27
REMARK                            x       y       z     vdW  Elec       q    Type
REMARK                         _______ _______ _______ _____ _____    ______ ____
ROOT
ATOM      1  C   UNL     1      44.447   6.031  11.880  0.00  0.00    +0.000 C 
ENDROOT
BRANCH   1   2
ATOM      2  C   UNL     1      45.238   7.317  11.955  0.00  0.00    +0.000 A 
ATOM      3  C   UNL     1      44.619   8.556  11.797  0.00  0.00    +0.000 A 
ATOM      4  C   UNL     1      45.391   9.706  11.821  0.00  0.00    +0.000 A 
ATOM      5  F   UNL     1      44.795  10.900  11.695  0.00  0.00    +0.000 F 
ATOM      6  C   UNL     1      46.775   9.647  11.988  0.00  0.00    +0.000 A 
ATOM      7  C   UNL     1      47.443   8.419  12.167  0.00  0.00    +0.000 A 
ATOM      8  C   UNL     1      46.638   7.266  12.136  0.00  0.00    +0.000 A 
BRANCH   7   9
ATOM      9  C   UNL     1      48.909   8.360  12.467  0.00  0.00    +0.000 A 
ATOM     10  C   UNL     1      49.815   8.282  11.382  0.00  0.00    +0.000 A 
ATOM     11  C   UNL     1      51.198   8.299  11.558  0.00  0.00    +0.000 A 
ATOM     12  C   UNL     1      51.731   8.386  12.832  0.00  0.00    +0.000 A 
ATOM     13  C   UNL     1      50.880   8.443  13.929  0.00  0.00    +0.000 A 
ATOM     14  C   UNL     1      49.480   8.446  13.765  0.00  0.00    +0.000 A 
BRANCH  14  15
ATOM     15  O   UNL     1      48.641   8.489  14.855  0.00  0.00    +0.000 OA
ATOM     16  C   UNL     1      48.845   7.480  15.843  0.00  0.00    +0.000 C 
ENDBRANCH  14  15
ENDBRANCH   7   9
ENDBRANCH   1   2
BRANCH   1  17
ATOM     17  N   UNL     1      44.081   5.751  10.492  0.00  0.00    +0.000 N 
ATOM     18  H   UNL     1      44.130   6.596   9.929  0.00  0.00    +0.000 HD
BRANCH  17  24
ATOM     19  C   UNL     1      44.316   3.299  10.035  0.00  0.00    +0.000 A 
ATOM     20  C   UNL     1      44.954   2.287   9.302  0.00  0.00    +0.000 A 
ATOM     21  C   UNL     1      45.950   2.579   8.363  0.00  0.00    +0.000 A 
ATOM     22  C   UNL     1      46.285   3.915   8.133  0.00  0.00    +0.000 A 
ATOM     23  C   UNL     1      45.645   4.931   8.857  0.00  0.00    +0.000 A 
ATOM     24  C   UNL     1      44.683   4.650   9.849  0.00  0.00    +0.000 A 
BRANCH  21  25
ATOM     25  C   UNL     1      46.571   1.423   7.653  0.00  0.00    +0.000 C 
ATOM     26  N   UNL     1      47.349   1.662   6.558  0.00  0.00    +0.000 N 
ATOM     27  O   UNL     1      46.402   0.271   8.038  0.00  0.00    +0.000 OA
ATOM     28  H   UNL     1      47.539   2.569   6.158  0.00  0.00    +0.000 HD
ATOM     29  H   UNL     1      47.744   0.849   6.103  0.00  0.00    +0.000 HD
ENDBRANCH  21  25
BRANCH  19  31
ATOM     30  C   UNL     1      43.627   2.585  12.201  0.00  0.00    +0.000 C 
ATOM     31  O   UNL     1      43.283   3.019  10.892  0.00  0.00    +0.000 OA
ENDBRANCH  19  31
ENDBRANCH  17  24
ENDBRANCH   1  17
TORSDOF 7
ENDMDL
MODEL 5
REMARK VINA RESULT:    -7.222      4.720      7.810
REMARK INTER + INTRA:         -10.970
REMARK INTER:                 -10.120
REMARK INTRA:                  -0.851
REMARK UNBOUND:                -0.793
REMARK  Name = 
REMARK  9 active torsions:
REMARK  status: ('A' for Active; 'I' for Inactive)
REMARK    1  A    between atoms: C_1  and  O_2
REMARK    2  A    between atoms: O_2  and  C_3
REMARK    3  A    between atoms: C_5  and  C_6
REMARK    4  A    between atoms: C_11  and  N_12
REMARK    5  A    between atoms: N_12  and  C_13
REMARK    6  A    between atoms: C_13  and  C_14
REMARK    7  A    between atoms: C_19  and  C_20
REMARK    8  A    between atoms: C_25  and  O_26
REMARK    9  A    between atoms: O_26  and  C_27
REMARK                            x       y       z     vdW  Elec       q    Type
REMARK                         _______ _______ _______ _____ _____    ______ ____
ROOT
ATOM      1  C   UNL     1      48.553   7.151  14.121  0.00  0.00    +0.000 C 
ENDROOT
BRANCH   1   2
ATOM      2  C   UNL     1      47.318   7.276  13.259  0.00  0.00    +0.000 A 
ATOM      3  C   UNL     1      46.572   8.454  13.233  0.00  0.00    +0.000 A 
ATOM      4  C   UNL     1      45.417   8.506  12.469  0.00  0.00    +0.000 A 
ATOM      5  F   UNL     1      44.711   9.645  12.422  0.00  0.00    +0.000 F 
ATOM      6  C   UNL     1      44.982   7.402  11.735  0.00  0.00    +0.000 A 
ATOM      7  C   UNL     1      45.711   6.196  11.718  0.00  0.00    +0.000 A 
ATOM      8  C   UNL     1      46.877   6.167  12.504  0.00  0.00    +0.000 A 
BRANCH   7   9
ATOM      9  C   UNL     1      45.314   5.051  10.838  0.00  0.00    +0.000 A 
ATOM     10  C   UNL     1      45.555   5.157   9.448  0.00  0.00    +0.000 A 
ATOM     11  C   UNL     1      45.291   4.114   8.560  0.00  0.00    +0.000 A 
ATOM     12  C   UNL     1      44.765   2.923   9.031  0.00  0.00    +0.000 A 
ATOM     13  C   UNL     1      44.493   2.782  10.386  0.00  0.00    +0.000 A 
ATOM     14  C   UNL     1      44.773   3.819  11.297  0.00  0.00    +0.000 A 
BRANCH  14  15
ATOM     15  O   UNL     1      44.490   3.680  12.636  0.00  0.00    +0.000 OA
ATOM     16  C   UNL     1      43.248   4.233  13.074  0.00  0.00    +0.000 C 
ENDBRANCH  14  15
ENDBRANCH   7   9
ENDBRANCH   1   2
BRANCH   1  17
ATOM     17  N   UNL     1      48.169   6.854  15.502  0.00  0.00    +0.000 N 
ATOM     18  H   UNL     1      47.220   6.494  15.542  0.00  0.00    +0.000 HD
BRANCH  17  24
ATOM     19  C   UNL     1      48.723   4.921  16.997  0.00  0.00    +0.000 A 
ATOM     20  C   UNL     1      49.704   4.226  17.719  0.00  0.00    +0.000 A 
ATOM     21  C   UNL     1      51.033   4.663  17.756  0.00  0.00    +0.000 A 
ATOM     22  C   UNL     1      51.387   5.799  17.026  0.00  0.00    +0.000 A 
ATOM     23  C   UNL     1      50.412   6.493  16.295  0.00  0.00    +0.000 A 
ATOM     24  C   UNL     1      49.057   6.101  16.296  0.00  0.00    +0.000 A 
BRANCH  21  25
ATOM     25  C   UNL     1      51.989   3.855  18.568  0.00  0.00    +0.000 C 
ATOM     26  N   UNL     1      52.147   2.531  18.278  0.00  0.00    +0.000 N 
ATOM     27  O   UNL     1      52.636   4.359  19.480  0.00  0.00    +0.000 OA
ATOM     28  H   UNL     1      51.654   2.024  17.558  0.00  0.00    +0.000 HD
ATOM     29  H   UNL     1      52.799   2.020  18.859  0.00  0.00    +0.000 HD
ENDBRANCH  21  25
BRANCH  19  31
ATOM     30  C   UNL     1      47.190   3.140  17.395  0.00  0.00    +0.000 C 
ATOM     31  O   UNL     1      47.441   4.447  16.892  0.00  0.00    +0.000 OA
ENDBRANCH  19  31
ENDBRANCH  17  24
ENDBRANCH   1  17
TORSDOF 7
ENDMDL
MODEL 6
REMARK VINA RESULT:    -7.084      4.401      8.007
REMARK INTER + INTRA:         -10.776
REMARK INTER:                  -9.591
REMARK INTRA:                  -1.185
REMARK UNBOUND:                -0.793
REMARK  Name = 
REMARK  9 active torsions:
REMARK  status: ('A' for Active; 'I' for Inactive)
REMARK    1  A    between atoms: C_1  and  O_2
REMARK    2  A    between atoms: O_2  and  C_3
REMARK    3  A    between atoms: C_5  and  C_6
REMARK    4  A    between atoms: C_11  and  N_12
REMARK    5  A    between atoms: N_12  and  C_13
REMARK    6  A    between atoms: C_13  and  C_14
REMARK    7  A    between atoms: C_19  and  C_20
REMARK    8  A    between atoms: C_25  and  O_26
REMARK    9  A    between atoms: O_26  and  C_27
REMARK                            x       y       z     vdW  Elec       q    Type
REMARK                         _______ _______ _______ _____ _____    ______ ____
ROOT
ATOM      1  C   UNL     1      48.745   7.522  13.975  0.00  0.00    +0.000 C 
ENDROOT
BRANCH   1   2
ATOM      2  C   UNL     1      47.447   7.622  13.206  0.00  0.00    +0.000 A 
ATOM      3  C   UNL     1      46.669   8.778  13.251  0.00  0.00    +0.000 A 
ATOM      4  C   UNL     1      45.460   8.806  12.574  0.00  0.00    +0.000 A 
ATOM      5  F   UNL     1      44.722   9.926  12.593  0.00  0.00    +0.000 F 
ATOM      6  C   UNL     1      45.003   7.699  11.859  0.00  0.00    +0.000 A 
ATOM      7  C   UNL     1      45.761   6.514  11.773  0.00  0.00    +0.000 A 
ATOM      8  C   UNL     1      46.982   6.509  12.472  0.00  0.00    +0.000 A 
BRANCH   7   9
ATOM      9  C   UNL     1      45.332   5.368  10.910  0.00  0.00    +0.000 A 
ATOM     10  C   UNL     1      45.679   5.392   9.539  0.00  0.00    +0.000 A 
ATOM     11  C   UNL     1      45.392   4.337   8.674  0.00  0.00    +0.000 A 
ATOM     12  C   UNL     1      44.734   3.215   9.149  0.00  0.00    +0.000 A 
ATOM     13  C   UNL     1      44.355   3.157  10.484  0.00  0.00    +0.000 A 
ATOM     14  C   UNL     1      44.656   4.207  11.373  0.00  0.00    +0.000 A 
BRANCH  14  15
ATOM     15  O   UNL     1      44.267   4.151  12.692  0.00  0.00    +0.000 OA
ATOM     16  C   UNL     1      42.987   4.708  12.991  0.00  0.00    +0.000 C 
ENDBRANCH  14  15
ENDBRANCH   7   9
ENDBRANCH   1   2
BRANCH   1  17
ATOM     17  N   UNL     1      48.833   6.221  14.637  0.00  0.00    +0.000 N 
ATOM     18  H   UNL     1      49.719   5.769  14.425  0.00  0.00    +0.000 HD
BRANCH  17  24
ATOM     19  C   UNL     1      48.099   4.972  16.681  0.00  0.00    +0.000 A 
ATOM     20  C   UNL     1      47.852   5.002  18.062  0.00  0.00    +0.000 A 
ATOM     21  C   UNL     1      48.019   6.172  18.811  0.00  0.00    +0.000 A 
ATOM     22  C   UNL     1      48.476   7.323  18.165  0.00  0.00    +0.000 A 
ATOM     23  C   UNL     1      48.732   7.296  16.787  0.00  0.00    +0.000 A 
ATOM     24  C   UNL     1      48.511   6.143  16.007  0.00  0.00    +0.000 A 
BRANCH  21  25
ATOM     25  C   UNL     1      47.712   6.093  20.269  0.00  0.00    +0.000 C 
ATOM     26  N   UNL     1      47.849   4.896  20.908  0.00  0.00    +0.000 N 
ATOM     27  O   UNL     1      47.348   7.080  20.899  0.00  0.00    +0.000 OA
ATOM     28  H   UNL     1      48.130   4.028  20.477  0.00  0.00    +0.000 HD
ATOM     29  H   UNL     1      47.623   4.886  21.894  0.00  0.00    +0.000 HD
ENDBRANCH  21  25
BRANCH  19  31
ATOM     30  C   UNL     1      48.440   2.614  16.615  0.00  0.00    +0.000 C 
ATOM     31  O   UNL     1      48.016   3.806  15.965  0.00  0.00    +0.000 OA
ENDBRANCH  19  31
ENDBRANCH  17  24
ENDBRANCH   1  17
TORSDOF 7
ENDMDL
MODEL 7
REMARK VINA RESULT:    -7.049      3.862      7.479
REMARK INTER + INTRA:         -10.727
REMARK INTER:                 -10.075
REMARK INTRA:                  -0.652
REMARK UNBOUND:                -0.793
REMARK  Name = 
REMARK  9 active torsions:
REMARK  status: ('A' for Active; 'I' for Inactive)
REMARK    1  A    between atoms: C_1  and  O_2
REMARK    2  A    between atoms: O_2  and  C_3
REMARK    3  A    between atoms: C_5  and  C_6
REMARK    4  A    between atoms: C_11  and  N_12
REMARK    5  A    between atoms: N_12  and  C_13
REMARK    6  A    between atoms: C_13  and  C_14
REMARK    7  A    between atoms: C_19  and  C_20
REMARK    8  A    between atoms: C_25  and  O_26
REMARK    9  A    between atoms: O_26  and  C_27
REMARK                            x       y       z     vdW  Elec       q    Type
REMARK                         _______ _______ _______ _____ _____    ______ ____
ROOT
ATOM      1  C   UNL     1      48.882   7.584  12.988  0.00  0.00    +0.000 C 
ENDROOT
BRANCH   1   2
ATOM      2  C   UNL     1      47.496   7.580  12.385  0.00  0.00    +0.000 A 
ATOM      3  C   UNL     1      46.663   8.693  12.484  0.00  0.00    +0.000 A 
ATOM      4  C   UNL     1      45.381   8.626  11.963  0.00  0.00    +0.000 A 
ATOM      5  F   UNL     1      44.586   9.704  12.034  0.00  0.00    +0.000 F 
ATOM      6  C   UNL     1      44.905   7.465  11.352  0.00  0.00    +0.000 A 
ATOM      7  C   UNL     1      45.716   6.321  11.215  0.00  0.00    +0.000 A 
ATOM      8  C   UNL     1      47.012   6.413  11.754  0.00  0.00    +0.000 A 
BRANCH   7   9
ATOM      9  C   UNL     1      45.253   5.117  10.454  0.00  0.00    +0.000 A 
ATOM     10  C   UNL     1      45.566   5.030   9.077  0.00  0.00    +0.000 A 
ATOM     11  C   UNL     1      45.245   3.914   8.305  0.00  0.00    +0.000 A 
ATOM     12  C   UNL     1      44.587   2.842   8.881  0.00  0.00    +0.000 A 
ATOM     13  C   UNL     1      44.240   2.892  10.225  0.00  0.00    +0.000 A 
ATOM     14  C   UNL     1      44.576   4.004  11.023  0.00  0.00    +0.000 A 
BRANCH  14  15
ATOM     15  O   UNL     1      44.218   4.056  12.351  0.00  0.00    +0.000 OA
ATOM     16  C   UNL     1      42.927   4.598  12.631  0.00  0.00    +0.000 C 
ENDBRANCH  14  15
ENDBRANCH   7   9
ENDBRANCH   1   2
BRANCH   1  17
ATOM     17  N   UNL     1      48.800   7.841  14.425  0.00  0.00    +0.000 N 
ATOM     18  H   UNL     1      48.188   8.631  14.615  0.00  0.00    +0.000 HD
BRANCH  17  24
ATOM     19  C   UNL     1      48.866   6.716  16.663  0.00  0.00    +0.000 A 
ATOM     20  C   UNL     1      48.523   5.598  17.436  0.00  0.00    +0.000 A 
ATOM     21  C   UNL     1      47.849   4.503  16.882  0.00  0.00    +0.000 A 
ATOM     22  C   UNL     1      47.484   4.551  15.535  0.00  0.00    +0.000 A 
ATOM     23  C   UNL     1      47.817   5.671  14.760  0.00  0.00    +0.000 A 
ATOM     24  C   UNL     1      48.549   6.755  15.287  0.00  0.00    +0.000 A 
BRANCH  21  25
ATOM     25  C   UNL     1      47.548   3.361  17.793  0.00  0.00    +0.000 C 
ATOM     26  N   UNL     1      48.387   3.112  18.840  0.00  0.00    +0.000 N 
ATOM     27  O   UNL     1      46.562   2.651  17.623  0.00  0.00    +0.000 OA
ATOM     28  H   UNL     1      49.226   3.630  19.056  0.00  0.00    +0.000 HD
ATOM     29  H   UNL     1      48.149   2.323  19.427  0.00  0.00    +0.000 HD
ENDBRANCH  21  25
BRANCH  19  31
ATOM     30  C   UNL     1      50.310   7.606  18.337  0.00  0.00    +0.000 C 
ATOM     31  O   UNL     1      49.451   7.822  17.225  0.00  0.00    +0.000 OA
ENDBRANCH  19  31
ENDBRANCH  17  24
ENDBRANCH   1  17
TORSDOF 7
ENDMDL
MODEL 8
REMARK VINA RESULT:    -6.660      4.225      6.267
REMARK INTER + INTRA:         -10.178
REMARK INTER:                  -8.988
REMARK INTRA:                  -1.191
REMARK UNBOUND:                -0.793
REMARK  Name = 
REMARK  9 active torsions:
REMARK  status: ('A' for Active; 'I' for Inactive)
REMARK    1  A    between atoms: C_1  and  O_2
REMARK    2  A    between atoms: O_2  and  C_3
REMARK    3  A    between atoms: C_5  and  C_6
REMARK    4  A    between atoms: C_11  and  N_12
REMARK    5  A    between atoms: N_12  and  C_13
REMARK    6  A    between atoms: C_13  and  C_14
REMARK    7  A    between atoms: C_19  and  C_20
REMARK    8  A    between atoms: C_25  and  O_26
REMARK    9  A    between atoms: O_26  and  C_27
REMARK                            x       y       z     vdW  Elec       q    Type
REMARK                         _______ _______ _______ _____ _____    ______ ____
ROOT
ATOM      1  C   UNL     1      48.234   7.556  13.222  0.00  0.00    +0.000 C 
ENDROOT
BRANCH   1   2
ATOM      2  C   UNL     1      49.268   7.412  14.316  0.00  0.00    +0.000 A 
ATOM      3  C   UNL     1      50.544   7.959  14.179  0.00  0.00    +0.000 A 
ATOM      4  C   UNL     1      51.477   7.758  15.183  0.00  0.00    +0.000 A 
ATOM      5  F   UNL     1      52.696   8.303  15.066  0.00  0.00    +0.000 F 
ATOM      6  C   UNL     1      51.169   7.011  16.321  0.00  0.00    +0.000 A 
ATOM      7  C   UNL     1      49.889   6.452  16.510  0.00  0.00    +0.000 A 
ATOM      8  C   UNL     1      48.960   6.668  15.475  0.00  0.00    +0.000 A 
BRANCH   7   9
ATOM      9  C   UNL     1      49.517   5.754  17.782  0.00  0.00    +0.000 A 
ATOM     10  C   UNL     1      49.119   6.540  18.889  0.00  0.00    +0.000 A 
ATOM     11  C   UNL     1      48.682   5.979  20.088  0.00  0.00    +0.000 A 
ATOM     12  C   UNL     1      48.635   4.603  20.229  0.00  0.00    +0.000 A 
ATOM     13  C   UNL     1      49.036   3.791  19.176  0.00  0.00    +0.000 A 
ATOM     14  C   UNL     1      49.461   4.344  17.951  0.00  0.00    +0.000 A 
BRANCH  14  15
ATOM     15  O   UNL     1      49.871   3.537  16.915  0.00  0.00    +0.000 OA
ATOM     16  C   UNL     1      50.354   2.244  17.281  0.00  0.00    +0.000 C 
ENDBRANCH  14  15
ENDBRANCH   7   9
ENDBRANCH   1   2
BRANCH   1  17
ATOM     17  N   UNL     1      46.966   6.970  13.656  0.00  0.00    +0.000 N 
ATOM     18  H   UNL     1      46.326   7.693  13.975  0.00  0.00    +0.000 HD
BRANCH  17  24
ATOM     19  C   UNL     1      45.907   4.747  13.191  0.00  0.00    +0.000 A 
ATOM     20  C   UNL     1      45.242   3.921  12.273  0.00  0.00    +0.000 A 
ATOM     21  C   UNL     1      44.968   4.348  10.969  0.00  0.00    +0.000 A 
ATOM     22  C   UNL     1      45.339   5.641  10.593  0.00  0.00    +0.000 A 
ATOM     23  C   UNL     1      45.996   6.474  11.510  0.00  0.00    +0.000 A 
ATOM     24  C   UNL     1      46.334   6.038  12.808  0.00  0.00    +0.000 A 
BRANCH  21  25
ATOM     25  C   UNL     1      44.270   3.381  10.072  0.00  0.00    +0.000 C 
ATOM     26  N   UNL     1      44.375   3.539   8.721  0.00  0.00    +0.000 N 
ATOM     27  O   UNL     1      43.614   2.449  10.525  0.00  0.00    +0.000 OA
ATOM     28  H   UNL     1      44.880   4.277   8.253  0.00  0.00    +0.000 HD
ATOM     29  H   UNL     1      43.879   2.866   8.151  0.00  0.00    +0.000 HD
ENDBRANCH  21  25
BRANCH  19  31
ATOM     30  C   UNL     1      47.237   3.552  14.766  0.00  0.00    +0.000 C 
ATOM     31  O   UNL     1      46.100   4.360  14.492  0.00  0.00    +0.000 OA
ENDBRANCH  19  31
ENDBRANCH  17  24
ENDBRANCH   1  17
TORSDOF 7
ENDMDL
MODEL 9
REMARK VINA RESULT:    -6.529      5.230      7.564
REMARK INTER + INTRA:          -9.994
REMARK INTER:                  -8.640
REMARK INTRA:                  -1.354
REMARK UNBOUND:                -0.793
REMARK  Name = 
REMARK  9 active torsions:
REMARK  status: ('A' for Active; 'I' for Inactive)
REMARK    1  A    between atoms: C_1  and  O_2
REMARK    2  A    between atoms: O_2  and  C_3
REMARK    3  A    between atoms: C_5  and  C_6
REMARK    4  A    between atoms: C_11  and  N_12
REMARK    5  A    between atoms: N_12  and  C_13
REMARK    6  A    between atoms: C_13  and  C_14
REMARK    7  A    between atoms: C_19  and  C_20
REMARK    8  A    between atoms: C_25  and  O_26
REMARK    9  A    between atoms: O_26  and  C_27
REMARK                            x       y       z     vdW  Elec       q    Type
REMARK                         _______ _______ _______ _____ _____    ______ ____
ROOT
ATOM      1  C   UNL     1      49.016   7.685  15.282  0.00  0.00    +0.000 C 
ENDROOT
BRANCH   1   2
ATOM      2  C   UNL     1      49.150   6.914  16.576  0.00  0.00    +0.000 A 
ATOM      3  C   UNL     1      48.485   7.323  17.731  0.00  0.00    +0.000 A 
ATOM      4  C   UNL     1      48.679   6.617  18.908  0.00  0.00    +0.000 A 
ATOM      5  F   UNL     1      48.021   6.992  20.014  0.00  0.00    +0.000 F 
ATOM      6  C   UNL     1      49.533   5.515  18.961  0.00  0.00    +0.000 A 
ATOM      7  C   UNL     1      50.214   5.056  17.816  0.00  0.00    +0.000 A 
ATOM      8  C   UNL     1      50.004   5.791  16.635  0.00  0.00    +0.000 A 
BRANCH   7   9
ATOM      9  C   UNL     1      51.036   3.805  17.840  0.00  0.00    +0.000 A 
ATOM     10  C   UNL     1      50.446   2.604  17.381  0.00  0.00    +0.000 A 
ATOM     11  C   UNL     1      51.154   1.406  17.293  0.00  0.00    +0.000 A 
ATOM     12  C   UNL     1      52.485   1.362  17.672  0.00  0.00    +0.000 A 
ATOM     13  C   UNL     1      53.100   2.512  18.149  0.00  0.00    +0.000 A 
ATOM     14  C   UNL     1      52.403   3.734  18.225  0.00  0.00    +0.000 A 
BRANCH  14  15
ATOM     15  O   UNL     1      53.012   4.868  18.711  0.00  0.00    +0.000 OA
ATOM     16  C   UNL     1      53.860   4.686  19.845  0.00  0.00    +0.000 C 
ENDBRANCH  14  15
ENDBRANCH   7   9
ENDBRANCH   1   2
BRANCH   1  17
ATOM     17  N   UNL     1      48.889   6.756  14.159  0.00  0.00    +0.000 N 
ATOM     18  H   UNL     1      49.453   5.924  14.314  0.00  0.00    +0.000 HD
BRANCH  17  24
ATOM     19  C   UNL     1      46.948   5.198  13.866  0.00  0.00    +0.000 A 
ATOM     20  C   UNL     1      45.638   5.014  13.401  0.00  0.00    +0.000 A 
ATOM     21  C   UNL     1      44.931   6.046  12.773  0.00  0.00    +0.000 A 
ATOM     22  C   UNL     1      45.543   7.295  12.642  0.00  0.00    +0.000 A 
ATOM     23  C   UNL     1      46.850   7.487  13.112  0.00  0.00    +0.000 A 
ATOM     24  C   UNL     1      47.597   6.441  13.693  0.00  0.00    +0.000 A 
BRANCH  21  25
ATOM     25  C   UNL     1      43.550   5.734  12.304  0.00  0.00    +0.000 C 
ATOM     26  N   UNL     1      43.180   6.106  11.044  0.00  0.00    +0.000 N 
ATOM     27  O   UNL     1      42.748   5.148  13.024  0.00  0.00    +0.000 OA
ATOM     28  H   UNL     1      43.761   6.600  10.383  0.00  0.00    +0.000 HD
ATOM     29  H   UNL     1      42.232   5.881  10.771  0.00  0.00    +0.000 HD
ENDBRANCH  21  25
BRANCH  19  31
ATOM     30  C   UNL     1      47.144   3.919  15.867  0.00  0.00    +0.000 C 
ATOM     31  O   UNL     1      47.607   4.213  14.555  0.00  0.00    +0.000 OA
ENDBRANCH  19  31
ENDBRANCH  17  24
ENDBRANCH   1  17
TORSDOF 7
ENDMDL
