MODEL 1
REMARK VINA RESULT:    -8.584      0.000      0.000
REMARK INTER + INTRA:         -13.193
REMARK INTER:                 -12.097
REMARK INTRA:                  -1.096
REMARK UNBOUND:                -1.096
REMARK  Name = 
REMARK  8 active torsions:
REMARK  status: ('A' for Active; 'I' for Inactive)
REMARK    1  A    between atoms: C_1  and  C_2
REMARK    2  A    between atoms: C_2  and  N_3
REMARK    3  A    between atoms: C_2  and  C_11
REMARK    4  A    between atoms: N_3  and  C_4
REMARK    5  A    between atoms: C_4  and  C_5
REMARK    6  A    between atoms: C_14  and  C_15
REMARK    7  A    between atoms: C_15  and  N_16
REMARK    8  A    between atoms: C_17  and  C_19
REMARK                            x       y       z     vdW  Elec       q    Type
REMARK                         _______ _______ _______ _____ _____    ______ ____
ROOT
ATOM      1  C   UNL     1      44.945   4.763  11.969  0.00  0.00    +0.000 A 
ATOM      2  C   UNL     1      45.590   5.857  11.365  0.00  0.00    +0.000 A 
ATOM      3  C   UNL     1      46.711   6.446  11.956  0.00  0.00    +0.000 A 
ATOM      4  C   UNL     1      47.234   5.931  13.146  0.00  0.00    +0.000 A 
ATOM      5  C   UNL     1      46.604   4.834  13.745  0.00  0.00    +0.000 A 
ATOM      6  C   UNL     1      45.470   4.263  13.169  0.00  0.00    +0.000 A 
ENDROOT
BRANCH   1   8
ATOM      7  C   UNL     1      42.503   5.225  11.440  0.00  0.00    +0.000 C 
ATOM      8  C   UNL     1      43.660   4.214  11.364  0.00  0.00    +0.000 C 
BRANCH   8   9
ATOM      9  N   UNL     1      43.822   3.830   9.952  0.00  0.00    +0.000 NA
ATOM     10  H   UNL     1      44.439   4.503   9.498  0.00  0.00    +0.000 HD
BRANCH   9  11
ATOM     11  C   UNL     1      44.418   2.496   9.780  0.00  0.00    +0.000 C 
BRANCH  11  12
ATOM     12  C   UNL     1      45.431   2.464   8.649  0.00  0.00    +0.000 A 
ATOM     13  C   UNL     1      45.677   3.613   7.900  0.00  0.00    +0.000 A 
ATOM     14  C   UNL     1      46.622   3.562   6.879  0.00  0.00    +0.000 A 
ATOM     15  C   UNL     1      47.290   2.369   6.632  0.00  0.00    +0.000 A 
ATOM     16  C   UNL     1      46.984   1.272   7.417  0.00  0.00    +0.000 A 
ATOM     17  N   UNL     1      46.078   1.291   8.418  0.00  0.00    +0.000 NA
ENDBRANCH  11  12
ENDBRANCH   9  11
ENDBRANCH   8   9
ENDBRANCH   1   8
BRANCH   4  18
ATOM     18  C   UNL     1      48.394   6.585  13.844  0.00  0.00    +0.000 C 
BRANCH  18  19
ATOM     19  N   UNL     1      48.126   6.711  15.254  0.00  0.00    +0.000 N 
ATOM     20  C   UNL     1      49.095   6.502  16.199  0.00  0.00    +0.000 C 
ATOM     21  O   UNL     1      50.232   6.153  15.893  0.00  0.00    +0.000 OA
ATOM     22  H   UNL     1      47.169   6.905  15.532  0.00  0.00    +0.000 HD
BRANCH  20  23
ATOM     23  C   UNL     1      48.726   6.768  17.597  0.00  0.00    +0.000 A 
ATOM     24  C   UNL     1      48.400   8.063  17.978  0.00  0.00    +0.000 A 
ATOM     25  S   UNL     1      47.958   8.207  19.617  0.00  0.00    +0.000 S 
ATOM     26  C   UNL     1      48.229   6.549  19.891  0.00  0.00    +0.000 A 
ATOM     27  N   UNL     1      48.050   6.008  21.125  0.00  0.00    +0.000 NA
ATOM     28  C   UNL     1      48.309   4.745  21.196  0.00  0.00    +0.000 A 
ATOM     29  N   UNL     1      48.726   3.973  20.143  0.00  0.00    +0.000 N 
ATOM     30  C   UNL     1      48.891   4.470  18.873  0.00  0.00    +0.000 A 
ATOM     31  O   UNL     1      49.210   3.741  17.941  0.00  0.00    +0.000 OA
ATOM     32  C   UNL     1      48.628   5.891  18.741  0.00  0.00    +0.000 A 
ATOM     33  H   UNL     1      48.901   2.984  20.256  0.00  0.00    +0.000 HD
ENDBRANCH  20  23
ENDBRANCH  18  19
ENDBRANCH   4  18
TORSDOF 7
ENDMDL
MODEL 2
REMARK VINA RESULT:    -8.305      1.269      1.905
REMARK INTER + INTRA:         -12.799
REMARK INTER:                 -11.646
REMARK INTRA:                  -1.154
REMARK UNBOUND:                -1.096
REMARK  Name = 
REMARK  8 active torsions:
REMARK  status: ('A' for Active; 'I' for Inactive)
REMARK    1  A    between atoms: C_1  and  C_2
REMARK    2  A    between atoms: C_2  and  N_3
REMARK    3  A    between atoms: C_2  and  C_11
REMARK    4  A    between atoms: N_3  and  C_4
REMARK    5  A    between atoms: C_4  and  C_5
REMARK    6  A    between atoms: C_14  and  C_15
REMARK    7  A    between atoms: C_15  and  N_16
REMARK    8  A    between atoms: C_17  and  C_19
REMARK                            x       y       z     vdW  Elec       q    Type
REMARK                         _______ _______ _______ _____ _____    ______ ____
ROOT
ATOM      1  C   UNL     1      45.024   4.880  11.999  0.00  0.00    +0.000 A 
ATOM      2  C   UNL     1      45.535   6.130  11.606  0.00  0.00    +0.000 A 
ATOM      3  C   UNL     1      46.598   6.721  12.295  0.00  0.00    +0.000 A 
ATOM      4  C   UNL     1      47.199   6.057  13.369  0.00  0.00    +0.000 A 
ATOM      5  C   UNL     1      46.703   4.807  13.756  0.00  0.00    +0.000 A 
ATOM      6  C   UNL     1      45.626   4.230  13.085  0.00  0.00    +0.000 A 
ENDROOT
BRANCH   1   8
ATOM      7  C   UNL     1      42.593   5.273  11.373  0.00  0.00    +0.000 C 
ATOM      8  C   UNL     1      43.794   4.314  11.304  0.00  0.00    +0.000 C 
BRANCH   8   9
ATOM      9  N   UNL     1      44.039   4.009   9.885  0.00  0.00    +0.000 NA
ATOM     10  H   UNL     1      44.795   4.606   9.547  0.00  0.00    +0.000 HD
BRANCH   9  11
ATOM     11  C   UNL     1      44.437   2.613   9.652  0.00  0.00    +0.000 C 
BRANCH  11  12
ATOM     12  C   UNL     1      45.454   2.488   8.532  0.00  0.00    +0.000 A 
ATOM     13  C   UNL     1      45.709   3.573   7.695  0.00  0.00    +0.000 A 
ATOM     14  C   UNL     1      46.657   3.438   6.686  0.00  0.00    +0.000 A 
ATOM     15  C   UNL     1      47.322   2.227   6.537  0.00  0.00    +0.000 A 
ATOM     16  C   UNL     1      47.008   1.197   7.404  0.00  0.00    +0.000 A 
ATOM     17  N   UNL     1      46.098   1.297   8.397  0.00  0.00    +0.000 NA
ENDBRANCH  11  12
ENDBRANCH   9  11
ENDBRANCH   8   9
ENDBRANCH   1   8
BRANCH   4  18
ATOM     18  C   UNL     1      48.295   6.696  14.174  0.00  0.00    +0.000 C 
BRANCH  18  19
ATOM     19  N   UNL     1      48.136   6.389  15.573  0.00  0.00    +0.000 N 
ATOM     20  C   UNL     1      49.207   6.142  16.389  0.00  0.00    +0.000 C 
ATOM     21  O   UNL     1      50.357   6.124  15.960  0.00  0.00    +0.000 OA
ATOM     22  H   UNL     1      47.188   6.306  15.927  0.00  0.00    +0.000 HD
BRANCH  20  23
ATOM     23  C   UNL     1      48.921   5.950  17.818  0.00  0.00    +0.000 A 
ATOM     24  C   UNL     1      49.205   4.726  18.409  0.00  0.00    +0.000 A 
ATOM     25  S   UNL     1      48.856   4.668  20.076  0.00  0.00    +0.000 S 
ATOM     26  C   UNL     1      48.269   6.265  20.062  0.00  0.00    +0.000 A 
ATOM     27  N   UNL     1      47.782   6.840  21.194  0.00  0.00    +0.000 NA
ATOM     28  C   UNL     1      47.351   8.046  21.038  0.00  0.00    +0.000 A 
ATOM     29  N   UNL     1      47.367   8.734  19.851  0.00  0.00    +0.000 N 
ATOM     30  C   UNL     1      47.876   8.206  18.690  0.00  0.00    +0.000 A 
ATOM     31  O   UNL     1      47.929   8.867  17.660  0.00  0.00    +0.000 OA
ATOM     32  C   UNL     1      48.360   6.842  18.807  0.00  0.00    +0.000 A 
ATOM     33  H   UNL     1      47.029   9.684  19.793  0.00  0.00    +0.000 HD
ENDBRANCH  20  23
ENDBRANCH  18  19
ENDBRANCH   4  18
TORSDOF 7
ENDMDL
MODEL 3
REMARK VINA RESULT:    -7.697      2.237      2.477
REMARK INTER + INTRA:         -11.942
REMARK INTER:                 -10.881
REMARK INTRA:                  -1.061
REMARK UNBOUND:                -1.096
REMARK  Name = 
REMARK  8 active torsions:
REMARK  status: ('A' for Active; 'I' for Inactive)
REMARK    1  A    between atoms: C_1  and  C_2
REMARK    2  A    between atoms: C_2  and  N_3
REMARK    3  A    between atoms: C_2  and  C_11
REMARK    4  A    between atoms: N_3  and  C_4
REMARK    5  A    between atoms: C_4  and  C_5
REMARK    6  A    between atoms: C_14  and  C_15
REMARK    7  A    between atoms: C_15  and  N_16
REMARK    8  A    between atoms: C_17  and  C_19
REMARK                            x       y       z     vdW  Elec       q    Type
REMARK                         _______ _______ _______ _____ _____    ______ ____
ROOT
ATOM      1  C   UNL     1      45.446   4.688  12.375  0.00  0.00    +0.000 A 
ATOM      2  C   UNL     1      45.353   6.053  12.049  0.00  0.00    +0.000 A 
ATOM      3  C   UNL     1      46.202   6.993  12.642  0.00  0.00    +0.000 A 
ATOM      4  C   UNL     1      47.187   6.583  13.545  0.00  0.00    +0.000 A 
ATOM      5  C   UNL     1      47.292   5.224  13.863  0.00  0.00    +0.000 A 
ATOM      6  C   UNL     1      46.429   4.291  13.292  0.00  0.00    +0.000 A 
ENDROOT
BRANCH   1   8
ATOM      7  C   UNL     1      43.295   4.412  11.051  0.00  0.00    +0.000 C 
ATOM      8  C   UNL     1      44.435   3.704  11.803  0.00  0.00    +0.000 C 
BRANCH   8   9
ATOM      9  N   UNL     1      45.051   2.742  10.874  0.00  0.00    +0.000 NA
ATOM     10  H   UNL     1      44.934   1.801  11.251  0.00  0.00    +0.000 HD
BRANCH   9  11
ATOM     11  C   UNL     1      44.445   2.762   9.534  0.00  0.00    +0.000 C 
BRANCH  11  12
ATOM     12  C   UNL     1      45.467   2.505   8.441  0.00  0.00    +0.000 A 
ATOM     13  C   UNL     1      45.763   3.501   7.513  0.00  0.00    +0.000 A 
ATOM     14  C   UNL     1      46.715   3.246   6.531  0.00  0.00    +0.000 A 
ATOM     15  C   UNL     1      47.341   2.006   6.498  0.00  0.00    +0.000 A 
ATOM     16  C   UNL     1      46.987   1.068   7.451  0.00  0.00    +0.000 A 
ATOM     17  N   UNL     1      46.073   1.287   8.421  0.00  0.00    +0.000 NA
ENDBRANCH  11  12
ENDBRANCH   9  11
ENDBRANCH   8   9
ENDBRANCH   1   8
BRANCH   4  18
ATOM     18  C   UNL     1      48.067   7.575  14.252  0.00  0.00    +0.000 C 
BRANCH  18  19
ATOM     19  N   UNL     1      49.198   6.910  14.849  0.00  0.00    +0.000 N 
ATOM     20  C   UNL     1      49.497   7.037  16.178  0.00  0.00    +0.000 C 
ATOM     21  O   UNL     1      48.842   7.761  16.922  0.00  0.00    +0.000 OA
ATOM     22  H   UNL     1      49.807   6.382  14.231  0.00  0.00    +0.000 HD
BRANCH  20  23
ATOM     23  C   UNL     1      50.610   6.223  16.688  0.00  0.00    +0.000 A 
ATOM     24  C   UNL     1      51.869   6.795  16.812  0.00  0.00    +0.000 A 
ATOM     25  S   UNL     1      53.045   5.740  17.451  0.00  0.00    +0.000 S 
ATOM     26  C   UNL     1      51.924   4.463  17.545  0.00  0.00    +0.000 A 
ATOM     27  N   UNL     1      52.299   3.238  18.000  0.00  0.00    +0.000 NA
ATOM     28  C   UNL     1      51.356   2.357  18.000  0.00  0.00    +0.000 A 
ATOM     29  N   UNL     1      50.068   2.591  17.590  0.00  0.00    +0.000 N 
ATOM     30  C   UNL     1      49.637   3.818  17.151  0.00  0.00    +0.000 A 
ATOM     31  O   UNL     1      48.466   4.010  16.846  0.00  0.00    +0.000 OA
ATOM     32  C   UNL     1      50.665   4.844  17.116  0.00  0.00    +0.000 A 
ATOM     33  H   UNL     1      49.368   1.863  17.625  0.00  0.00    +0.000 HD
ENDBRANCH  20  23
ENDBRANCH  18  19
ENDBRANCH   4  18
TORSDOF 7
ENDMDL
MODEL 4
REMARK VINA RESULT:    -7.259      3.450      8.511
REMARK INTER + INTRA:         -11.326
REMARK INTER:                  -9.783
REMARK INTRA:                  -1.543
REMARK UNBOUND:                -1.096
REMARK  Name = 
REMARK  8 active torsions:
REMARK  status: ('A' for Active; 'I' for Inactive)
REMARK    1  A    between atoms: C_1  and  C_2
REMARK    2  A    between atoms: C_2  and  N_3
REMARK    3  A    between atoms: C_2  and  C_11
REMARK    4  A    between atoms: N_3  and  C_4
REMARK    5  A    between atoms: C_4  and  C_5
REMARK    6  A    between atoms: C_14  and  C_15
REMARK    7  A    between atoms: C_15  and  N_16
REMARK    8  A    between atoms: C_17  and  C_19
REMARK                            x       y       z     vdW  Elec       q    Type
REMARK                         _______ _______ _______ _____ _____    ______ ____
ROOT
ATOM      1  C   UNL     1      48.706   8.027  16.288  0.00  0.00    +0.000 A 
ATOM      2  C   UNL     1      48.776   6.826  15.559  0.00  0.00    +0.000 A 
ATOM      3  C   UNL     1      48.721   6.828  14.163  0.00  0.00    +0.000 A 
ATOM      4  C   UNL     1      48.632   8.035  13.462  0.00  0.00    +0.000 A 
ATOM      5  C   UNL     1      48.575   9.234  14.182  0.00  0.00    +0.000 A 
ATOM      6  C   UNL     1      48.604   9.229  15.575  0.00  0.00    +0.000 A 
ENDROOT
BRANCH   1   8
ATOM      7  C   UNL     1      48.672   9.395  18.429  0.00  0.00    +0.000 C 
ATOM      8  C   UNL     1      48.653   7.987  17.809  0.00  0.00    +0.000 C 
BRANCH   8   9
ATOM      9  N   UNL     1      47.456   7.295  18.312  0.00  0.00    +0.000 NA
ATOM     10  H   UNL     1      46.920   6.947  17.517  0.00  0.00    +0.000 HD
BRANCH   9  11
ATOM     11  C   UNL     1      47.770   6.145  19.173  0.00  0.00    +0.000 C 
BRANCH  11  12
ATOM     12  C   UNL     1      48.070   4.894  18.368  0.00  0.00    +0.000 A 
ATOM     13  C   UNL     1      49.366   4.383  18.329  0.00  0.00    +0.000 A 
ATOM     14  C   UNL     1      49.612   3.225  17.596  0.00  0.00    +0.000 A 
ATOM     15  C   UNL     1      48.564   2.613  16.921  0.00  0.00    +0.000 A 
ATOM     16  C   UNL     1      47.308   3.186  17.005  0.00  0.00    +0.000 A 
ATOM     17  N   UNL     1      47.035   4.304  17.712  0.00  0.00    +0.000 NA
ENDBRANCH  11  12
ENDBRANCH   9  11
ENDBRANCH   8   9
ENDBRANCH   1   8
BRANCH   4  18
ATOM     18  C   UNL     1      48.499   8.067  11.965  0.00  0.00    +0.000 C 
BRANCH  18  19
ATOM     19  N   UNL     1      47.738   6.933  11.504  0.00  0.00    +0.000 N 
ATOM     20  C   UNL     1      46.372   6.962  11.416  0.00  0.00    +0.000 C 
ATOM     21  O   UNL     1      45.722   7.942  11.768  0.00  0.00    +0.000 OA
ATOM     22  H   UNL     1      48.250   6.081  11.297  0.00  0.00    +0.000 HD
BRANCH  20  23
ATOM     23  C   UNL     1      45.721   5.783  10.827  0.00  0.00    +0.000 A 
ATOM     24  C   UNL     1      45.853   5.544   9.466  0.00  0.00    +0.000 A 
ATOM     25  S   UNL     1      45.076   4.122   8.939  0.00  0.00    +0.000 S 
ATOM     26  C   UNL     1      44.495   3.796  10.505  0.00  0.00    +0.000 A 
ATOM     27  N   UNL     1      43.720   2.705  10.748  0.00  0.00    +0.000 NA
ATOM     28  C   UNL     1      43.332   2.589  11.974  0.00  0.00    +0.000 A 
ATOM     29  N   UNL     1      43.654   3.463  12.981  0.00  0.00    +0.000 N 
ATOM     30  C   UNL     1      44.457   4.560  12.788  0.00  0.00    +0.000 A 
ATOM     31  O   UNL     1      44.773   5.289  13.721  0.00  0.00    +0.000 OA
ATOM     32  C   UNL     1      44.909   4.747  11.421  0.00  0.00    +0.000 A 
ATOM     33  H   UNL     1      43.332   3.312  13.927  0.00  0.00    +0.000 HD
ENDBRANCH  20  23
ENDBRANCH  18  19
ENDBRANCH   4  18
TORSDOF 7
ENDMDL
MODEL 5
REMARK VINA RESULT:    -7.141      4.559      6.487
REMARK INTER + INTRA:         -11.160
REMARK INTER:                  -9.983
REMARK INTRA:                  -1.176
REMARK UNBOUND:                -1.096
REMARK  Name = 
REMARK  8 active torsions:
REMARK  status: ('A' for Active; 'I' for Inactive)
REMARK    1  A    between atoms: C_1  and  C_2
REMARK    2  A    between atoms: C_2  and  N_3
REMARK    3  A    between atoms: C_2  and  C_11
REMARK    4  A    between atoms: N_3  and  C_4
REMARK    5  A    between atoms: C_4  and  C_5
REMARK    6  A    between atoms: C_14  and  C_15
REMARK    7  A    between atoms: C_15  and  N_16
REMARK    8  A    between atoms: C_17  and  C_19
REMARK                            x       y       z     vdW  Elec       q    Type
REMARK                         _______ _______ _______ _____ _____    ______ ____
ROOT
ATOM      1  C   UNL     1      45.302   4.817  11.793  0.00  0.00    +0.000 A 
ATOM      2  C   UNL     1      45.816   5.857  10.998  0.00  0.00    +0.000 A 
ATOM      3  C   UNL     1      46.884   6.642  11.442  0.00  0.00    +0.000 A 
ATOM      4  C   UNL     1      47.487   6.379  12.676  0.00  0.00    +0.000 A 
ATOM      5  C   UNL     1      46.988   5.337  13.466  0.00  0.00    +0.000 A 
ATOM      6  C   UNL     1      45.906   4.572  13.034  0.00  0.00    +0.000 A 
ENDROOT
BRANCH   1   8
ATOM      7  C   UNL     1      42.763   4.764  11.738  0.00  0.00    +0.000 C 
ATOM      8  C   UNL     1      44.066   4.054  11.335  0.00  0.00    +0.000 C 
BRANCH   8   9
ATOM      9  N   UNL     1      44.034   3.859   9.877  0.00  0.00    +0.000 NA
ATOM     10  H   UNL     1      44.674   4.524   9.442  0.00  0.00    +0.000 HD
BRANCH   9  11
ATOM     11  C   UNL     1      44.448   2.510   9.463  0.00  0.00    +0.000 C 
BRANCH  11  12
ATOM     12  C   UNL     1      45.538   2.545   8.407  0.00  0.00    +0.000 A 
ATOM     13  C   UNL     1      46.294   1.405   8.146  0.00  0.00    +0.000 A 
ATOM     14  C   UNL     1      47.277   1.459   7.161  0.00  0.00    +0.000 A 
ATOM     15  C   UNL     1      47.481   2.646   6.470  0.00  0.00    +0.000 A 
ATOM     16  C   UNL     1      46.692   3.736   6.793  0.00  0.00    +0.000 A 
ATOM     17  N   UNL     1      45.727   3.714   7.737  0.00  0.00    +0.000 NA
ENDBRANCH  11  12
ENDBRANCH   9  11
ENDBRANCH   8   9
ENDBRANCH   1   8
BRANCH   4  18
ATOM     18  C   UNL     1      48.589   7.247  13.213  0.00  0.00    +0.000 C 
BRANCH  18  19
ATOM     19  N   UNL     1      49.041   8.170  12.202  0.00  0.00    +0.000 N 
ATOM     20  C   UNL     1      48.812   9.517  12.294  0.00  0.00    +0.000 C 
ATOM     21  O   UNL     1      48.171  10.002  13.222  0.00  0.00    +0.000 OA
ATOM     22  H   UNL     1      49.490   7.778  11.380  0.00  0.00    +0.000 HD
BRANCH  20  23
ATOM     23  C   UNL     1      49.417  10.364  11.256  0.00  0.00    +0.000 A 
ATOM     24  C   UNL     1      48.618  11.265  10.566  0.00  0.00    +0.000 A 
ATOM     25  S   UNL     1      49.467  12.202   9.423  0.00  0.00    +0.000 S 
ATOM     26  C   UNL     1      50.928  11.405   9.777  0.00  0.00    +0.000 A 
ATOM     27  N   UNL     1      52.074  11.723   9.117  0.00  0.00    +0.000 NA
ATOM     28  C   UNL     1      53.103  11.029   9.470  0.00  0.00    +0.000 A 
ATOM     29  N   UNL     1      53.093  10.047  10.427  0.00  0.00    +0.000 N 
ATOM     30  C   UNL     1      51.967   9.713  11.139  0.00  0.00    +0.000 A 
ATOM     31  O   UNL     1      52.004   8.871  12.029  0.00  0.00    +0.000 OA
ATOM     32  C   UNL     1      50.774  10.454  10.770  0.00  0.00    +0.000 A 
ATOM     33  H   UNL     1      53.935   9.546  10.671  0.00  0.00    +0.000 HD
ENDBRANCH  20  23
ENDBRANCH  18  19
ENDBRANCH   4  18
TORSDOF 7
ENDMDL
MODEL 6
REMARK VINA RESULT:    -7.128      5.181      9.929
REMARK INTER + INTRA:         -11.141
REMARK INTER:                 -10.334
REMARK INTRA:                  -0.807
REMARK UNBOUND:                -1.096
REMARK  Name = 
REMARK  8 active torsions:
REMARK  status: ('A' for Active; 'I' for Inactive)
REMARK    1  A    between atoms: C_1  and  C_2
REMARK    2  A    between atoms: C_2  and  N_3
REMARK    3  A    between atoms: C_2  and  C_11
REMARK    4  A    between atoms: N_3  and  C_4
REMARK    5  A    between atoms: C_4  and  C_5
REMARK    6  A    between atoms: C_14  and  C_15
REMARK    7  A    between atoms: C_15  and  N_16
REMARK    8  A    between atoms: C_17  and  C_19
REMARK                            x       y       z     vdW  Elec       q    Type
REMARK                         _______ _______ _______ _____ _____    ______ ____
ROOT
ATOM      1  C   UNL     1      51.461   2.820  17.736  0.00  0.00    +0.000 A 
ATOM      2  C   UNL     1      50.663   1.868  17.076  0.00  0.00    +0.000 A 
ATOM      3  C   UNL     1      49.315   2.123  16.805  0.00  0.00    +0.000 A 
ATOM      4  C   UNL     1      48.746   3.351  17.156  0.00  0.00    +0.000 A 
ATOM      5  C   UNL     1      49.538   4.306  17.802  0.00  0.00    +0.000 A 
ATOM      6  C   UNL     1      50.875   4.041  18.095  0.00  0.00    +0.000 A 
ENDROOT
BRANCH   1   8
ATOM      7  C   UNL     1      53.412   3.340  19.278  0.00  0.00    +0.000 C 
ATOM      8  C   UNL     1      52.892   2.471  18.120  0.00  0.00    +0.000 C 
BRANCH   8   9
ATOM      9  N   UNL     1      53.040   1.062  18.520  0.00  0.00    +0.000 NA
ATOM     10  H   UNL     1      52.383   0.497  17.981  0.00  0.00    +0.000 HD
BRANCH   9  11
ATOM     11  C   UNL     1      54.388   0.528  18.276  0.00  0.00    +0.000 C 
BRANCH  11  12
ATOM     12  C   UNL     1      54.455  -0.974  18.486  0.00  0.00    +0.000 A 
ATOM     13  C   UNL     1      54.886  -1.805  17.454  0.00  0.00    +0.000 A 
ATOM     14  C   UNL     1      54.953  -3.177  17.678  0.00  0.00    +0.000 A 
ATOM     15  C   UNL     1      54.586  -3.682  18.919  0.00  0.00    +0.000 A 
ATOM     16  C   UNL     1      54.163  -2.791  19.888  0.00  0.00    +0.000 A 
ATOM     17  N   UNL     1      54.092  -1.455  19.706  0.00  0.00    +0.000 NA
ENDBRANCH  11  12
ENDBRANCH   9  11
ENDBRANCH   8   9
ENDBRANCH   1   8
BRANCH   4  18
ATOM     18  C   UNL     1      47.284   3.629  16.943  0.00  0.00    +0.000 C 
BRANCH  18  19
ATOM     19  N   UNL     1      47.105   4.627  15.919  0.00  0.00    +0.000 N 
ATOM     20  C   UNL     1      47.071   4.305  14.589  0.00  0.00    +0.000 C 
ATOM     21  O   UNL     1      47.235   3.152  14.198  0.00  0.00    +0.000 OA
ATOM     22  H   UNL     1      47.062   5.597  16.216  0.00  0.00    +0.000 HD
BRANCH  20  23
ATOM     23  C   UNL     1      46.773   5.396  13.650  0.00  0.00    +0.000 A 
ATOM     24  C   UNL     1      47.769   6.310  13.335  0.00  0.00    +0.000 A 
ATOM     25  S   UNL     1      47.287   7.492  12.206  0.00  0.00    +0.000 S 
ATOM     26  C   UNL     1      45.712   6.852  12.129  0.00  0.00    +0.000 A 
ATOM     27  N   UNL     1      44.764   7.425  11.341  0.00  0.00    +0.000 NA
ATOM     28  C   UNL     1      43.609   6.850  11.392  0.00  0.00    +0.000 A 
ATOM     29  N   UNL     1      43.317   5.750  12.158  0.00  0.00    +0.000 N 
ATOM     30  C   UNL     1      44.250   5.121  12.945  0.00  0.00    +0.000 A 
ATOM     31  O   UNL     1      43.972   4.105  13.572  0.00  0.00    +0.000 OA
ATOM     32  C   UNL     1      45.565   5.737  12.936  0.00  0.00    +0.000 A 
ATOM     33  H   UNL     1      42.396   5.335  12.146  0.00  0.00    +0.000 HD
ENDBRANCH  20  23
ENDBRANCH  18  19
ENDBRANCH   4  18
TORSDOF 7
ENDMDL
MODEL 7
REMARK VINA RESULT:    -7.113      3.231      9.044
REMARK INTER + INTRA:         -11.120
REMARK INTER:                  -9.483
REMARK INTRA:                  -1.638
REMARK UNBOUND:                -1.096
REMARK  Name = 
REMARK  8 active torsions:
REMARK  status: ('A' for Active; 'I' for Inactive)
REMARK    1  A    between atoms: C_1  and  C_2
REMARK    2  A    between atoms: C_2  and  N_3
REMARK    3  A    between atoms: C_2  and  C_11
REMARK    4  A    between atoms: N_3  and  C_4
REMARK    5  A    between atoms: C_4  and  C_5
REMARK    6  A    between atoms: C_14  and  C_15
REMARK    7  A    between atoms: C_15  and  N_16
REMARK    8  A    between atoms: C_17  and  C_19
REMARK                            x       y       z     vdW  Elec       q    Type
REMARK                         _______ _______ _______ _____ _____    ______ ____
ROOT
ATOM      1  C   UNL     1      49.061   8.061  16.117  0.00  0.00    +0.000 A 
ATOM      2  C   UNL     1      49.145   6.851  15.406  0.00  0.00    +0.000 A 
ATOM      3  C   UNL     1      48.681   6.755  14.091  0.00  0.00    +0.000 A 
ATOM      4  C   UNL     1      48.157   7.879  13.445  0.00  0.00    +0.000 A 
ATOM      5  C   UNL     1      48.083   9.089  14.143  0.00  0.00    +0.000 A 
ATOM      6  C   UNL     1      48.522   9.177  15.463  0.00  0.00    +0.000 A 
ENDROOT
BRANCH   1   8
ATOM      7  C   UNL     1      49.832   9.530  18.041  0.00  0.00    +0.000 C 
ATOM      8  C   UNL     1      49.468   8.107  17.583  0.00  0.00    +0.000 C 
BRANCH   8   9
ATOM      9  N   UNL     1      48.410   7.609  18.476  0.00  0.00    +0.000 NA
ATOM     10  H   UNL     1      47.594   7.367  17.915  0.00  0.00    +0.000 HD
BRANCH   9  11
ATOM     11  C   UNL     1      48.804   6.408  19.228  0.00  0.00    +0.000 C 
BRANCH  11  12
ATOM     12  C   UNL     1      48.590   5.137  18.426  0.00  0.00    +0.000 A 
ATOM     13  C   UNL     1      47.329   4.838  17.913  0.00  0.00    +0.000 A 
ATOM     14  C   UNL     1      47.164   3.674  17.168  0.00  0.00    +0.000 A 
ATOM     15  C   UNL     1      48.255   2.840  16.958  0.00  0.00    +0.000 A 
ATOM     16  C   UNL     1      49.472   3.205  17.506  0.00  0.00    +0.000 A 
ATOM     17  N   UNL     1      49.667   4.329  18.228  0.00  0.00    +0.000 NA
ENDBRANCH  11  12
ENDBRANCH   9  11
ENDBRANCH   8   9
ENDBRANCH   1   8
BRANCH   4  18
ATOM     18  C   UNL     1      47.585   7.792  12.058  0.00  0.00    +0.000 C 
BRANCH  18  19
ATOM     19  N   UNL     1      46.894   6.540  11.875  0.00  0.00    +0.000 N 
ATOM     20  C   UNL     1      45.529   6.450  11.925  0.00  0.00    +0.000 C 
ATOM     21  O   UNL     1      44.825   7.425  12.171  0.00  0.00    +0.000 OA
ATOM     22  H   UNL     1      47.463   5.706  11.765  0.00  0.00    +0.000 HD
BRANCH  20  23
ATOM     23  C   UNL     1      44.941   5.139  11.615  0.00  0.00    +0.000 A 
ATOM     24  C   UNL     1      44.235   4.462  12.601  0.00  0.00    +0.000 A 
ATOM     25  S   UNL     1      43.580   2.977  12.082  0.00  0.00    +0.000 S 
ATOM     26  C   UNL     1      44.254   3.161  10.531  0.00  0.00    +0.000 A 
ATOM     27  N   UNL     1      44.085   2.206   9.578  0.00  0.00    +0.000 NA
ATOM     28  C   UNL     1      44.665   2.464   8.454  0.00  0.00    +0.000 A 
ATOM     29  N   UNL     1      45.396   3.595   8.194  0.00  0.00    +0.000 N 
ATOM     30  C   UNL     1      45.569   4.599   9.115  0.00  0.00    +0.000 A 
ATOM     31  O   UNL     1      46.180   5.623   8.832  0.00  0.00    +0.000 OA
ATOM     32  C   UNL     1      44.949   4.352  10.404  0.00  0.00    +0.000 A 
ATOM     33  H   UNL     1      45.816   3.748   7.288  0.00  0.00    +0.000 HD
ENDBRANCH  20  23
ENDBRANCH  18  19
ENDBRANCH   4  18
TORSDOF 7
ENDMDL
MODEL 8
REMARK VINA RESULT:    -6.950      4.999      6.143
REMARK INTER + INTRA:         -10.890
REMARK INTER:                  -9.952
REMARK INTRA:                  -0.937
REMARK UNBOUND:                -1.096
REMARK  Name = 
REMARK  8 active torsions:
REMARK  status: ('A' for Active; 'I' for Inactive)
REMARK    1  A    between atoms: C_1  and  C_2
REMARK    2  A    between atoms: C_2  and  N_3
REMARK    3  A    between atoms: C_2  and  C_11
REMARK    4  A    between atoms: N_3  and  C_4
REMARK    5  A    between atoms: C_4  and  C_5
REMARK    6  A    between atoms: C_14  and  C_15
REMARK    7  A    between atoms: C_15  and  N_16
REMARK    8  A    between atoms: C_17  and  C_19
REMARK                            x       y       z     vdW  Elec       q    Type
REMARK                         _______ _______ _______ _____ _____    ______ ____
ROOT
ATOM      1  C   UNL     1      45.001   5.283  11.608  0.00  0.00    +0.000 A 
ATOM      2  C   UNL     1      46.281   5.455  12.164  0.00  0.00    +0.000 A 
ATOM      3  C   UNL     1      46.770   6.730  12.463  0.00  0.00    +0.000 A 
ATOM      4  C   UNL     1      45.973   7.859  12.248  0.00  0.00    +0.000 A 
ATOM      5  C   UNL     1      44.693   7.693  11.708  0.00  0.00    +0.000 A 
ATOM      6  C   UNL     1      44.217   6.424  11.385  0.00  0.00    +0.000 A 
ENDROOT
BRANCH   1   8
ATOM      7  C   UNL     1      43.369   3.385  12.042  0.00  0.00    +0.000 C 
ATOM      8  C   UNL     1      44.540   3.895  11.185  0.00  0.00    +0.000 C 
BRANCH   8   9
ATOM      9  N   UNL     1      44.115   3.848   9.777  0.00  0.00    +0.000 NA
ATOM     10  H   UNL     1      43.268   4.406   9.671  0.00  0.00    +0.000 HD
BRANCH   9  11
ATOM     11  C   UNL     1      45.121   4.387   8.850  0.00  0.00    +0.000 C 
BRANCH  11  12
ATOM     12  C   UNL     1      45.883   3.289   8.132  0.00  0.00    +0.000 A 
ATOM     13  C   UNL     1      46.724   3.604   7.066  0.00  0.00    +0.000 A 
ATOM     14  C   UNL     1      47.424   2.580   6.435  0.00  0.00    +0.000 A 
ATOM     15  C   UNL     1      47.265   1.274   6.880  0.00  0.00    +0.000 A 
ATOM     16  C   UNL     1      46.408   1.043   7.940  0.00  0.00    +0.000 A 
ATOM     17  N   UNL     1      45.719   2.014   8.578  0.00  0.00    +0.000 NA
ENDBRANCH  11  12
ENDBRANCH   9  11
ENDBRANCH   8   9
ENDBRANCH   1   8
BRANCH   4  18
ATOM     18  C   UNL     1      46.494   9.247  12.493  0.00  0.00    +0.000 C 
BRANCH  18  19
ATOM     19  N   UNL     1      47.715   9.463  11.757  0.00  0.00    +0.000 N 
ATOM     20  C   UNL     1      48.628  10.413  12.128  0.00  0.00    +0.000 C 
ATOM     21  O   UNL     1      48.432  11.162  13.081  0.00  0.00    +0.000 OA
ATOM     22  H   UNL     1      47.851   8.919  10.910  0.00  0.00    +0.000 HD
BRANCH  20  23
ATOM     23  C   UNL     1      49.882  10.462  11.363  0.00  0.00    +0.000 A 
ATOM     24  C   UNL     1      50.293  11.667  10.809  0.00  0.00    +0.000 A 
ATOM     25  S   UNL     1      51.782  11.574   9.985  0.00  0.00    +0.000 S 
ATOM     26  C   UNL     1      51.911   9.906  10.299  0.00  0.00    +0.000 A 
ATOM     27  N   UNL     1      52.972   9.190   9.840  0.00  0.00    +0.000 NA
ATOM     28  C   UNL     1      52.935   7.934  10.132  0.00  0.00    +0.000 A 
ATOM     29  N   UNL     1      51.934   7.328  10.848  0.00  0.00    +0.000 N 
ATOM     30  C   UNL     1      50.860   8.016  11.357  0.00  0.00    +0.000 A 
ATOM     31  O   UNL     1      50.012   7.455  12.042  0.00  0.00    +0.000 OA
ATOM     32  C   UNL     1      50.845   9.433  11.043  0.00  0.00    +0.000 A 
ATOM     33  H   UNL     1      51.966   6.340  11.059  0.00  0.00    +0.000 HD
ENDBRANCH  20  23
ENDBRANCH  18  19
ENDBRANCH   4  18
TORSDOF 7
ENDMDL
MODEL 9
REMARK VINA RESULT:    -6.748      3.690      9.230
REMARK INTER + INTRA:         -10.606
REMARK INTER:                  -9.044
REMARK INTRA:                  -1.561
REMARK UNBOUND:                -1.096
REMARK  Name = 
REMARK  8 active torsions:
REMARK  status: ('A' for Active; 'I' for Inactive)
REMARK    1  A    between atoms: C_1  and  C_2
REMARK    2  A    between atoms: C_2  and  N_3
REMARK    3  A    between atoms: C_2  and  C_11
REMARK    4  A    between atoms: N_3  and  C_4
REMARK    5  A    between atoms: C_4  and  C_5
REMARK    6  A    between atoms: C_14  and  C_15
REMARK    7  A    between atoms: C_15  and  N_16
REMARK    8  A    between atoms: C_17  and  C_19
REMARK                            x       y       z     vdW  Elec       q    Type
REMARK                         _______ _______ _______ _____ _____    ______ ____
ROOT
ATOM      1  C   UNL     1      49.025   5.777  19.950  0.00  0.00    +0.000 A 
ATOM      2  C   UNL     1      47.675   5.892  19.574  0.00  0.00    +0.000 A 
ATOM      3  C   UNL     1      47.174   5.200  18.468  0.00  0.00    +0.000 A 
ATOM      4  C   UNL     1      48.005   4.346  17.735  0.00  0.00    +0.000 A 
ATOM      5  C   UNL     1      49.346   4.217  18.113  0.00  0.00    +0.000 A 
ATOM      6  C   UNL     1      49.851   4.928  19.199  0.00  0.00    +0.000 A 
ENDROOT
BRANCH   1   8
ATOM      7  C   UNL     1      51.062   6.367  21.348  0.00  0.00    +0.000 C 
ATOM      8  C   UNL     1      49.570   6.630  21.087  0.00  0.00    +0.000 C 
BRANCH   8   9
ATOM      9  N   UNL     1      49.409   8.071  20.836  0.00  0.00    +0.000 NA
ATOM     10  H   UNL     1      49.557   8.575  21.710  0.00  0.00    +0.000 HD
BRANCH   9  11
ATOM     11  C   UNL     1      50.366   8.599  19.852  0.00  0.00    +0.000 C 
BRANCH  11  12
ATOM     12  C   UNL     1      49.796   8.607  18.446  0.00  0.00    +0.000 A 
ATOM     13  C   UNL     1      48.562   9.204  18.197  0.00  0.00    +0.000 A 
ATOM     14  C   UNL     1      48.068   9.212  16.896  0.00  0.00    +0.000 A 
ATOM     15  C   UNL     1      48.813   8.622  15.882  0.00  0.00    +0.000 A 
ATOM     16  C   UNL     1      50.026   8.045  16.213  0.00  0.00    +0.000 A 
ATOM     17  N   UNL     1      50.536   8.026  17.463  0.00  0.00    +0.000 NA
ENDBRANCH  11  12
ENDBRANCH   9  11
ENDBRANCH   8   9
ENDBRANCH   1   8
BRANCH   4  18
ATOM     18  C   UNL     1      47.517   3.643  16.500  0.00  0.00    +0.000 C 
BRANCH  18  19
ATOM     19  N   UNL     1      46.968   4.593  15.564  0.00  0.00    +0.000 N 
ATOM     20  C   UNL     1      46.813   4.298  14.237  0.00  0.00    +0.000 C 
ATOM     21  O   UNL     1      47.176   3.224  13.766  0.00  0.00    +0.000 OA
ATOM     22  H   UNL     1      46.750   5.520  15.916  0.00  0.00    +0.000 HD
BRANCH  20  23
ATOM     23  C   UNL     1      46.142   5.309  13.407  0.00  0.00    +0.000 A 
ATOM     24  C   UNL     1      46.790   6.507  13.141  0.00  0.00    +0.000 A 
ATOM     25  S   UNL     1      45.904   7.561  12.136  0.00  0.00    +0.000 S 
ATOM     26  C   UNL     1      44.599   6.472  12.056  0.00  0.00    +0.000 A 
ATOM     27  N   UNL     1      43.477   6.779  11.354  0.00  0.00    +0.000 NA
ATOM     28  C   UNL     1      42.558   5.873  11.393  0.00  0.00    +0.000 A 
ATOM     29  N   UNL     1      42.662   4.684  12.068  0.00  0.00    +0.000 N 
ATOM     30  C   UNL     1      43.787   4.318  12.766  0.00  0.00    +0.000 A 
ATOM     31  O   UNL     1      43.870   3.224  13.311  0.00  0.00    +0.000 OA
ATOM     32  C   UNL     1      44.847   5.310  12.767  0.00  0.00    +0.000 A 
ATOM     33  H   UNL     1      41.913   4.006  12.051  0.00  0.00    +0.000 HD
ENDBRANCH  20  23
ENDBRANCH  18  19
ENDBRANCH   4  18
TORSDOF 7
ENDMDL
