MODEL 1
REMARK VINA RESULT:    -7.614      0.000      0.000
REMARK INTER + INTRA:          -9.741
REMARK INTER:                  -8.949
REMARK INTRA:                  -0.792
REMARK UNBOUND:                -0.792
REMARK  Name = 
REMARK  4 active torsions:
REMARK  status: ('A' for Active; 'I' for Inactive)
REMARK    1  A    between atoms: C_1  and  C_2
REMARK    2  A    between atoms: N_7  and  C_8
REMARK    3  A    between atoms: C_8  and  C_9
REMARK    4  A    between atoms: C_13  and  C_14
REMARK                            x       y       z     vdW  Elec       q    Type
REMARK                         _______ _______ _______ _____ _____    ______ ____
ROOT
ATOM      1  C   UNL     1      44.317   4.234  11.339  0.00  0.00    +0.000 C 
ATOM      2  C   UNL     1      42.876   4.194  11.848  0.00  0.00    +0.000 C 
ATOM      3  C   UNL     1      43.244   5.122  10.740  0.00  0.00    +0.000 C 
ENDROOT
BRANCH   1  10
ATOM      4  C   UNL     1      46.817   0.483   6.982  0.00  0.00    +0.000 C 
ATOM      5  C   UNL     1      46.471   1.797   7.613  0.00  0.00    +0.000 A 
ATOM      6  C   UNL     1      46.777   3.006   6.998  0.00  0.00    +0.000 A 
ATOM      7  C   UNL     1      46.398   4.176   7.637  0.00  0.00    +0.000 A 
ATOM      8  N   UNL     1      45.756   4.223   8.824  0.00  0.00    +0.000 NA
ATOM      9  C   UNL     1      45.481   3.054   9.439  0.00  0.00    +0.000 A 
ATOM     10  N   UNL     1      44.777   3.002  10.667  0.00  0.00    +0.000 N 
ATOM     11  C   UNL     1      45.818   1.829   8.850  0.00  0.00    +0.000 A 
ATOM     12  H   UNL     1      45.258   2.361  11.290  0.00  0.00    +0.000 HD
ENDBRANCH   1  10
BRANCH   1  13
ATOM     13  C   UNL     1      45.360   4.907  12.229  0.00  0.00    +0.000 A 
ATOM     14  C   UNL     1      45.930   4.236  13.322  0.00  0.00    +0.000 A 
ATOM     15  C   UNL     1      46.958   4.812  14.066  0.00  0.00    +0.000 A 
ATOM     16  C   UNL     1      47.452   6.070  13.718  0.00  0.00    +0.000 A 
ATOM     17  C   UNL     1      46.923   6.782  12.630  0.00  0.00    +0.000 A 
ATOM     18  C   UNL     1      45.847   6.196  11.938  0.00  0.00    +0.000 A 
BRANCH  17  19
ATOM     19  C   UNL     1      47.534   8.041  12.146  0.00  0.00    +0.000 A 
ATOM     20  C   UNL     1      46.795   9.239  12.133  0.00  0.00    +0.000 A 
ATOM     21  C   UNL     1      47.385  10.458  11.785  0.00  0.00    +0.000 A 
ATOM     22  C   UNL     1      48.733  10.509  11.449  0.00  0.00    +0.000 A 
ATOM     23  C   UNL     1      49.486   9.338  11.444  0.00  0.00    +0.000 A 
ATOM     24  C   UNL     1      48.891   8.118  11.781  0.00  0.00    +0.000 A 
ENDBRANCH  17  19
ENDBRANCH   1  13
TORSDOF 3
ENDMDL
MODEL 2
REMARK VINA RESULT:    -7.408      1.518      3.685
REMARK INTER + INTRA:          -9.499
REMARK INTER:                  -8.748
REMARK INTRA:                  -0.752
REMARK UNBOUND:                -0.792
REMARK  Name = 
REMARK  4 active torsions:
REMARK  status: ('A' for Active; 'I' for Inactive)
REMARK    1  A    between atoms: C_1  and  C_2
REMARK    2  A    between atoms: N_7  and  C_8
REMARK    3  A    between atoms: C_8  and  C_9
REMARK    4  A    between atoms: C_13  and  C_14
REMARK                            x       y       z     vdW  Elec       q    Type
REMARK                         _______ _______ _______ _____ _____    ______ ____
ROOT
ATOM      1  C   UNL     1      44.392   4.532  11.220  0.00  0.00    +0.000 C 
ATOM      2  C   UNL     1      43.025   4.462  11.900  0.00  0.00    +0.000 C 
ATOM      3  C   UNL     1      43.203   5.305  10.682  0.00  0.00    +0.000 C 
ENDROOT
BRANCH   1  10
ATOM      4  C   UNL     1      46.856   0.582   7.021  0.00  0.00    +0.000 C 
ATOM      5  C   UNL     1      46.514   1.924   7.593  0.00  0.00    +0.000 A 
ATOM      6  C   UNL     1      46.811   3.103   6.918  0.00  0.00    +0.000 A 
ATOM      7  C   UNL     1      46.436   4.301   7.504  0.00  0.00    +0.000 A 
ATOM      8  N   UNL     1      45.806   4.403   8.695  0.00  0.00    +0.000 NA
ATOM      9  C   UNL     1      45.539   3.265   9.366  0.00  0.00    +0.000 A 
ATOM     10  N   UNL     1      44.848   3.270  10.603  0.00  0.00    +0.000 N 
ATOM     11  C   UNL     1      45.872   2.013   8.833  0.00  0.00    +0.000 A 
ATOM     12  H   UNL     1      45.336   2.660  11.250  0.00  0.00    +0.000 HD
ENDBRANCH   1  10
BRANCH   1  13
ATOM     13  C   UNL     1      45.487   5.335  11.920  0.00  0.00    +0.000 A 
ATOM     14  C   UNL     1      45.799   6.643  11.523  0.00  0.00    +0.000 A 
ATOM     15  C   UNL     1      46.722   7.412  12.231  0.00  0.00    +0.000 A 
ATOM     16  C   UNL     1      47.340   6.889  13.368  0.00  0.00    +0.000 A 
ATOM     17  C   UNL     1      47.059   5.587  13.813  0.00  0.00    +0.000 A 
ATOM     18  C   UNL     1      46.167   4.821  13.041  0.00  0.00    +0.000 A 
BRANCH  17  19
ATOM     19  C   UNL     1      47.577   5.070  15.100  0.00  0.00    +0.000 A 
ATOM     20  C   UNL     1      47.317   3.745  15.498  0.00  0.00    +0.000 A 
ATOM     21  C   UNL     1      47.888   3.203  16.654  0.00  0.00    +0.000 A 
ATOM     22  C   UNL     1      48.742   3.973  17.436  0.00  0.00    +0.000 A 
ATOM     23  C   UNL     1      49.010   5.290  17.071  0.00  0.00    +0.000 A 
ATOM     24  C   UNL     1      48.428   5.833  15.921  0.00  0.00    +0.000 A 
ENDBRANCH  17  19
ENDBRANCH   1  13
TORSDOF 3
ENDMDL
MODEL 3
REMARK VINA RESULT:    -7.302      0.905      1.805
REMARK INTER + INTRA:          -9.375
REMARK INTER:                  -9.770
REMARK INTRA:                   0.395
REMARK UNBOUND:                -0.792
REMARK  Name = 
REMARK  4 active torsions:
REMARK  status: ('A' for Active; 'I' for Inactive)
REMARK    1  A    between atoms: C_1  and  C_2
REMARK    2  A    between atoms: N_7  and  C_8
REMARK    3  A    between atoms: C_8  and  C_9
REMARK    4  A    between atoms: C_13  and  C_14
REMARK                            x       y       z     vdW  Elec       q    Type
REMARK                         _______ _______ _______ _____ _____    ______ ____
ROOT
ATOM      1  C   UNL     1      44.364   5.044  10.694  0.00  0.00    +0.000 C 
ATOM      2  C   UNL     1      43.340   3.959  11.029  0.00  0.00    +0.000 C 
ATOM      3  C   UNL     1      42.929   5.392  11.037  0.00  0.00    +0.000 C 
ENDROOT
BRANCH   1  10
ATOM      4  C   UNL     1      46.949   2.956   5.377  0.00  0.00    +0.000 C 
ATOM      5  C   UNL     1      46.404   2.833   6.767  0.00  0.00    +0.000 A 
ATOM      6  C   UNL     1      46.434   1.629   7.461  0.00  0.00    +0.000 A 
ATOM      7  C   UNL     1      45.934   1.607   8.753  0.00  0.00    +0.000 A 
ATOM      8  N   UNL     1      45.409   2.680   9.385  0.00  0.00    +0.000 NA
ATOM      9  C   UNL     1      45.351   3.845   8.707  0.00  0.00    +0.000 A 
ATOM     10  N   UNL     1      44.854   5.032   9.300  0.00  0.00    +0.000 N 
ATOM     11  C   UNL     1      45.852   3.951   7.404  0.00  0.00    +0.000 A 
ATOM     12  H   UNL     1      44.218   5.479   8.648  0.00  0.00    +0.000 HD
ENDBRANCH   1  10
BRANCH   1  13
ATOM     13  C   UNL     1      45.427   5.357  11.745  0.00  0.00    +0.000 A 
ATOM     14  C   UNL     1      45.640   4.513  12.844  0.00  0.00    +0.000 A 
ATOM     15  C   UNL     1      46.681   4.744  13.741  0.00  0.00    +0.000 A 
ATOM     16  C   UNL     1      47.547   5.821  13.543  0.00  0.00    +0.000 A 
ATOM     17  C   UNL     1      47.384   6.694  12.456  0.00  0.00    +0.000 A 
ATOM     18  C   UNL     1      46.288   6.464  11.605  0.00  0.00    +0.000 A 
BRANCH  17  19
ATOM     19  C   UNL     1      48.379   7.743  12.137  0.00  0.00    +0.000 A 
ATOM     20  C   UNL     1      49.715   7.401  11.855  0.00  0.00    +0.000 A 
ATOM     21  C   UNL     1      50.645   8.363  11.444  0.00  0.00    +0.000 A 
ATOM     22  C   UNL     1      50.256   9.689  11.297  0.00  0.00    +0.000 A 
ATOM     23  C   UNL     1      48.943  10.057  11.579  0.00  0.00    +0.000 A 
ATOM     24  C   UNL     1      48.019   9.096  12.002  0.00  0.00    +0.000 A 
ENDBRANCH  17  19
ENDBRANCH   1  13
TORSDOF 3
ENDMDL
MODEL 4
REMARK VINA RESULT:    -7.119      1.916      6.644
REMARK INTER + INTRA:          -9.159
REMARK INTER:                  -8.688
REMARK INTRA:                  -0.471
REMARK UNBOUND:                -0.792
REMARK  Name = 
REMARK  4 active torsions:
REMARK  status: ('A' for Active; 'I' for Inactive)
REMARK    1  A    between atoms: C_1  and  C_2
REMARK    2  A    between atoms: N_7  and  C_8
REMARK    3  A    between atoms: C_8  and  C_9
REMARK    4  A    between atoms: C_13  and  C_14
REMARK                            x       y       z     vdW  Elec       q    Type
REMARK                         _______ _______ _______ _____ _____    ______ ____
ROOT
ATOM      1  C   UNL     1      45.064   6.426  11.498  0.00  0.00    +0.000 C 
ATOM      2  C   UNL     1      43.913   7.418  11.333  0.00  0.00    +0.000 C 
ATOM      3  C   UNL     1      44.280   6.931  12.694  0.00  0.00    +0.000 C 
ENDROOT
BRANCH   1  10
ATOM      4  C   UNL     1      50.989   8.352  12.197  0.00  0.00    +0.000 C 
ATOM      5  C   UNL     1      49.702   7.719  12.629  0.00  0.00    +0.000 A 
ATOM      6  C   UNL     1      49.515   7.257  13.927  0.00  0.00    +0.000 A 
ATOM      7  C   UNL     1      48.285   6.709  14.253  0.00  0.00    +0.000 A 
ATOM      8  N   UNL     1      47.252   6.587  13.390  0.00  0.00    +0.000 NA
ATOM      9  C   UNL     1      47.437   7.009  12.122  0.00  0.00    +0.000 A 
ATOM     10  N   UNL     1      46.400   6.957  11.158  0.00  0.00    +0.000 N 
ATOM     11  C   UNL     1      48.646   7.588  11.720  0.00  0.00    +0.000 A 
ATOM     12  H   UNL     1      46.777   6.574  10.297  0.00  0.00    +0.000 HD
ENDBRANCH   1  10
BRANCH   1  13
ATOM     13  C   UNL     1      44.818   4.983  11.063  0.00  0.00    +0.000 A 
ATOM     14  C   UNL     1      43.815   4.202  11.655  0.00  0.00    +0.000 A 
ATOM     15  C   UNL     1      43.521   2.924  11.184  0.00  0.00    +0.000 A 
ATOM     16  C   UNL     1      44.218   2.406  10.091  0.00  0.00    +0.000 A 
ATOM     17  C   UNL     1      45.229   3.147   9.457  0.00  0.00    +0.000 A 
ATOM     18  C   UNL     1      45.537   4.408   9.996  0.00  0.00    +0.000 A 
BRANCH  17  19
ATOM     19  C   UNL     1      45.869   2.686   8.204  0.00  0.00    +0.000 A 
ATOM     20  C   UNL     1      46.080   3.578   7.136  0.00  0.00    +0.000 A 
ATOM     21  C   UNL     1      46.780   3.192   5.988  0.00  0.00    +0.000 A 
ATOM     22  C   UNL     1      47.295   1.905   5.886  0.00  0.00    +0.000 A 
ATOM     23  C   UNL     1      47.094   0.999   6.923  0.00  0.00    +0.000 A 
ATOM     24  C   UNL     1      46.382   1.383   8.065  0.00  0.00    +0.000 A 
ENDBRANCH  17  19
ENDBRANCH   1  13
TORSDOF 3
ENDMDL
MODEL 5
REMARK VINA RESULT:    -6.893      1.729      6.735
REMARK INTER + INTRA:          -8.894
REMARK INTER:                  -8.121
REMARK INTRA:                  -0.773
REMARK UNBOUND:                -0.792
REMARK  Name = 
REMARK  4 active torsions:
REMARK  status: ('A' for Active; 'I' for Inactive)
REMARK    1  A    between atoms: C_1  and  C_2
REMARK    2  A    between atoms: N_7  and  C_8
REMARK    3  A    between atoms: C_8  and  C_9
REMARK    4  A    between atoms: C_13  and  C_14
REMARK                            x       y       z     vdW  Elec       q    Type
REMARK                         _______ _______ _______ _____ _____    ______ ____
ROOT
ATOM      1  C   UNL     1      46.245   5.363  13.445  0.00  0.00    +0.000 C 
ATOM      2  C   UNL     1      46.261   4.533  14.729  0.00  0.00    +0.000 C 
ATOM      3  C   UNL     1      47.397   4.432  13.768  0.00  0.00    +0.000 C 
ENDROOT
BRANCH   1  10
ATOM      4  C   UNL     1      48.323  11.254  12.920  0.00  0.00    +0.000 C 
ATOM      5  C   UNL     1      48.257   9.797  12.578  0.00  0.00    +0.000 A 
ATOM      6  C   UNL     1      49.104   9.228  11.634  0.00  0.00    +0.000 A 
ATOM      7  C   UNL     1      48.996   7.868  11.397  0.00  0.00    +0.000 A 
ATOM      8  N   UNL     1      48.115   7.053  12.018  0.00  0.00    +0.000 NA
ATOM      9  C   UNL     1      47.272   7.604  12.915  0.00  0.00    +0.000 A 
ATOM     10  N   UNL     1      46.341   6.823  13.644  0.00  0.00    +0.000 N 
ATOM     11  C   UNL     1      47.330   8.969  13.221  0.00  0.00    +0.000 A 
ATOM     12  H   UNL     1      45.440   7.291  13.625  0.00  0.00    +0.000 HD
ENDBRANCH   1  10
BRANCH   1  13
ATOM     13  C   UNL     1      45.288   4.928  12.338  0.00  0.00    +0.000 A 
ATOM     14  C   UNL     1      43.949   5.344  12.324  0.00  0.00    +0.000 A 
ATOM     15  C   UNL     1      43.107   5.035  11.257  0.00  0.00    +0.000 A 
ATOM     16  C   UNL     1      43.598   4.314  10.166  0.00  0.00    +0.000 A 
ATOM     17  C   UNL     1      44.932   3.878  10.126  0.00  0.00    +0.000 A 
ATOM     18  C   UNL     1      45.735   4.157  11.246  0.00  0.00    +0.000 A 
BRANCH  17  19
ATOM     19  C   UNL     1      45.515   3.253   8.917  0.00  0.00    +0.000 A 
ATOM     20  C   UNL     1      46.016   4.050   7.869  0.00  0.00    +0.000 A 
ATOM     21  C   UNL     1      46.670   3.484   6.769  0.00  0.00    +0.000 A 
ATOM     22  C   UNL     1      46.846   2.107   6.696  0.00  0.00    +0.000 A 
ATOM     23  C   UNL     1      46.353   1.295   7.713  0.00  0.00    +0.000 A 
ATOM     24  C   UNL     1      45.688   1.862   8.806  0.00  0.00    +0.000 A 
ENDBRANCH  17  19
ENDBRANCH   1  13
TORSDOF 3
ENDMDL
MODEL 6
REMARK VINA RESULT:    -6.383      3.213      7.657
REMARK INTER + INTRA:          -8.295
REMARK INTER:                  -7.603
REMARK INTRA:                  -0.691
REMARK UNBOUND:                -0.792
REMARK  Name = 
REMARK  4 active torsions:
REMARK  status: ('A' for Active; 'I' for Inactive)
REMARK    1  A    between atoms: C_1  and  C_2
REMARK    2  A    between atoms: N_7  and  C_8
REMARK    3  A    between atoms: C_8  and  C_9
REMARK    4  A    between atoms: C_13  and  C_14
REMARK                            x       y       z     vdW  Elec       q    Type
REMARK                         _______ _______ _______ _____ _____    ______ ____
ROOT
ATOM      1  C   UNL     1      48.866   7.810  12.576  0.00  0.00    +0.000 C 
ATOM      2  C   UNL     1      49.841   7.975  11.410  0.00  0.00    +0.000 C 
ATOM      3  C   UNL     1      49.488   9.155  12.253  0.00  0.00    +0.000 C 
ENDROOT
BRANCH   1  10
ATOM      4  C   UNL     1      50.240   5.968  18.409  0.00  0.00    +0.000 C 
ATOM      5  C   UNL     1      49.630   6.857  17.369  0.00  0.00    +0.000 A 
ATOM      6  C   UNL     1      48.962   8.028  17.709  0.00  0.00    +0.000 A 
ATOM      7  C   UNL     1      48.450   8.807  16.684  0.00  0.00    +0.000 A 
ATOM      8  N   UNL     1      48.549   8.501  15.371  0.00  0.00    +0.000 NA
ATOM      9  C   UNL     1      49.171   7.353  15.037  0.00  0.00    +0.000 A 
ATOM     10  N   UNL     1      49.357   6.968  13.686  0.00  0.00    +0.000 N 
ATOM     11  C   UNL     1      49.729   6.520  16.015  0.00  0.00    +0.000 A 
ATOM     12  H   UNL     1      49.105   5.990  13.590  0.00  0.00    +0.000 HD
ENDBRANCH   1  10
BRANCH   1  13
ATOM     13  C   UNL     1      47.388   7.627  12.238  0.00  0.00    +0.000 A 
ATOM     14  C   UNL     1      46.464   8.668  12.410  0.00  0.00    +0.000 A 
ATOM     15  C   UNL     1      45.139   8.534  12.000  0.00  0.00    +0.000 A 
ATOM     16  C   UNL     1      44.714   7.353  11.389  0.00  0.00    +0.000 A 
ATOM     17  C   UNL     1      45.598   6.281  11.187  0.00  0.00    +0.000 A 
ATOM     18  C   UNL     1      46.912   6.431  11.666  0.00  0.00    +0.000 A 
BRANCH  17  19
ATOM     19  C   UNL     1      45.213   5.086  10.401  0.00  0.00    +0.000 A 
ATOM     20  C   UNL     1      45.567   4.976   9.043  0.00  0.00    +0.000 A 
ATOM     21  C   UNL     1      45.311   3.811   8.313  0.00  0.00    +0.000 A 
ATOM     22  C   UNL     1      44.702   2.723   8.928  0.00  0.00    +0.000 A 
ATOM     23  C   UNL     1      44.334   2.807  10.268  0.00  0.00    +0.000 A 
ATOM     24  C   UNL     1      44.580   3.978  10.993  0.00  0.00    +0.000 A 
ENDBRANCH  17  19
ENDBRANCH   1  13
TORSDOF 3
ENDMDL
MODEL 7
REMARK VINA RESULT:    -6.081      2.655      7.073
REMARK INTER + INTRA:          -7.940
REMARK INTER:                  -8.362
REMARK INTRA:                   0.423
REMARK UNBOUND:                -0.792
REMARK  Name = 
REMARK  4 active torsions:
REMARK  status: ('A' for Active; 'I' for Inactive)
REMARK    1  A    between atoms: C_1  and  C_2
REMARK    2  A    between atoms: N_7  and  C_8
REMARK    3  A    between atoms: C_8  and  C_9
REMARK    4  A    between atoms: C_13  and  C_14
REMARK                            x       y       z     vdW  Elec       q    Type
REMARK                         _______ _______ _______ _____ _____    ______ ____
ROOT
ATOM      1  C   UNL     1      48.625   7.760  13.046  0.00  0.00    +0.000 C 
ATOM      2  C   UNL     1      49.761   7.260  12.154  0.00  0.00    +0.000 C 
ATOM      3  C   UNL     1      49.476   8.722  12.239  0.00  0.00    +0.000 C 
ENDROOT
BRANCH   1  10
ATOM      4  C   UNL     1      48.320   5.135  18.732  0.00  0.00    +0.000 C 
ATOM      5  C   UNL     1      48.129   5.197  17.247  0.00  0.00    +0.000 A 
ATOM      6  C   UNL     1      47.502   4.172  16.548  0.00  0.00    +0.000 A 
ATOM      7  C   UNL     1      47.341   4.319  15.180  0.00  0.00    +0.000 A 
ATOM      8  N   UNL     1      47.760   5.393  14.474  0.00  0.00    +0.000 NA
ATOM      9  C   UNL     1      48.393   6.378  15.142  0.00  0.00    +0.000 A 
ATOM     10  N   UNL     1      48.834   7.558  14.495  0.00  0.00    +0.000 N 
ATOM     11  C   UNL     1      48.580   6.309  16.529  0.00  0.00    +0.000 A 
ATOM     12  H   UNL     1      49.782   7.759  14.796  0.00  0.00    +0.000 HD
ENDBRANCH   1  10
BRANCH   1  13
ATOM     13  C   UNL     1      47.195   7.524  12.566  0.00  0.00    +0.000 A 
ATOM     14  C   UNL     1      46.202   8.501  12.720  0.00  0.00    +0.000 A 
ATOM     15  C   UNL     1      44.927   8.326  12.184  0.00  0.00    +0.000 A 
ATOM     16  C   UNL     1      44.625   7.169  11.463  0.00  0.00    +0.000 A 
ATOM     17  C   UNL     1      45.585   6.162  11.273  0.00  0.00    +0.000 A 
ATOM     18  C   UNL     1      46.841   6.346  11.877  0.00  0.00    +0.000 A 
BRANCH  17  19
ATOM     19  C   UNL     1      45.339   5.005  10.382  0.00  0.00    +0.000 A 
ATOM     20  C   UNL     1      44.608   3.891  10.836  0.00  0.00    +0.000 A 
ATOM     21  C   UNL     1      44.271   2.838   9.979  0.00  0.00    +0.000 A 
ATOM     22  C   UNL     1      44.650   2.880   8.642  0.00  0.00    +0.000 A 
ATOM     23  C   UNL     1      45.382   3.965   8.167  0.00  0.00    +0.000 A 
ATOM     24  C   UNL     1      45.729   5.011   9.030  0.00  0.00    +0.000 A 
ENDBRANCH  17  19
ENDBRANCH   1  13
TORSDOF 3
ENDMDL
MODEL 8
REMARK VINA RESULT:    -5.886      3.232      6.319
REMARK INTER + INTRA:          -7.710
REMARK INTER:                  -7.183
REMARK INTRA:                  -0.526
REMARK UNBOUND:                -0.792
REMARK  Name = 
REMARK  4 active torsions:
REMARK  status: ('A' for Active; 'I' for Inactive)
REMARK    1  A    between atoms: C_1  and  C_2
REMARK    2  A    between atoms: N_7  and  C_8
REMARK    3  A    between atoms: C_8  and  C_9
REMARK    4  A    between atoms: C_13  and  C_14
REMARK                            x       y       z     vdW  Elec       q    Type
REMARK                         _______ _______ _______ _____ _____    ______ ____
ROOT
ATOM      1  C   UNL     1      47.979   8.086  12.692  0.00  0.00    +0.000 C 
ATOM      2  C   UNL     1      48.730   9.087  11.815  0.00  0.00    +0.000 C 
ATOM      3  C   UNL     1      49.035   7.632  11.703  0.00  0.00    +0.000 C 
ENDROOT
BRANCH   1  10
ATOM      4  C   UNL     1      42.362   5.464  11.748  0.00  0.00    +0.000 C 
ATOM      5  C   UNL     1      43.809   5.484  12.139  0.00  0.00    +0.000 A 
ATOM      6  C   UNL     1      44.482   4.325  12.509  0.00  0.00    +0.000 A 
ATOM      7  C   UNL     1      45.826   4.427  12.830  0.00  0.00    +0.000 A 
ATOM      8  N   UNL     1      46.528   5.581  12.816  0.00  0.00    +0.000 NA
ATOM      9  C   UNL     1      45.874   6.713  12.485  0.00  0.00    +0.000 A 
ATOM     10  N   UNL     1      46.535   7.963  12.405  0.00  0.00    +0.000 N 
ATOM     11  C   UNL     1      44.519   6.690  12.132  0.00  0.00    +0.000 A 
ATOM     12  H   UNL     1      45.971   8.660  12.881  0.00  0.00    +0.000 HD
ENDBRANCH   1  10
BRANCH   1  13
ATOM     13  C   UNL     1      48.344   8.034  14.174  0.00  0.00    +0.000 A 
ATOM     14  C   UNL     1      48.192   9.154  15.004  0.00  0.00    +0.000 A 
ATOM     15  C   UNL     1      48.424   9.073  16.376  0.00  0.00    +0.000 A 
ATOM     16  C   UNL     1      48.797   7.857  16.951  0.00  0.00    +0.000 A 
ATOM     17  C   UNL     1      48.957   6.703  16.168  0.00  0.00    +0.000 A 
ATOM     18  C   UNL     1      48.772   6.836  14.780  0.00  0.00    +0.000 A 
BRANCH  17  19
ATOM     19  C   UNL     1      49.195   5.373  16.773  0.00  0.00    +0.000 A 
ATOM     20  C   UNL     1      48.178   4.399  16.787  0.00  0.00    +0.000 A 
ATOM     21  C   UNL     1      48.414   3.102  17.253  0.00  0.00    +0.000 A 
ATOM     22  C   UNL     1      49.678   2.745  17.708  0.00  0.00    +0.000 A 
ATOM     23  C   UNL     1      50.700   3.689  17.714  0.00  0.00    +0.000 A 
ATOM     24  C   UNL     1      50.458   4.990  17.259  0.00  0.00    +0.000 A 
ENDBRANCH  17  19
ENDBRANCH   1  13
TORSDOF 3
ENDMDL
MODEL 9
REMARK VINA RESULT:    -5.630      4.272      7.760
REMARK INTER + INTRA:          -7.410
REMARK INTER:                  -6.640
REMARK INTRA:                  -0.769
REMARK UNBOUND:                -0.792
REMARK  Name = 
REMARK  4 active torsions:
REMARK  status: ('A' for Active; 'I' for Inactive)
REMARK    1  A    between atoms: C_1  and  C_2
REMARK    2  A    between atoms: N_7  and  C_8
REMARK    3  A    between atoms: C_8  and  C_9
REMARK    4  A    between atoms: C_13  and  C_14
REMARK                            x       y       z     vdW  Elec       q    Type
REMARK                         _______ _______ _______ _____ _____    ______ ____
ROOT
ATOM      1  C   UNL     1      49.758   7.644  16.336  0.00  0.00    +0.000 C 
ATOM      2  C   UNL     1      49.776   9.007  17.027  0.00  0.00    +0.000 C 
ATOM      3  C   UNL     1      48.653   8.061  17.287  0.00  0.00    +0.000 C 
ENDROOT
BRANCH   1  10
ATOM      4  C   UNL     1      52.618   2.381  18.188  0.00  0.00    +0.000 C 
ATOM      5  C   UNL     1      51.469   3.207  17.695  0.00  0.00    +0.000 A 
ATOM      6  C   UNL     1      50.203   2.662  17.512  0.00  0.00    +0.000 A 
ATOM      7  C   UNL     1      49.189   3.501  17.078  0.00  0.00    +0.000 A 
ATOM      8  N   UNL     1      49.349   4.816  16.814  0.00  0.00    +0.000 NA
ATOM      9  C   UNL     1      50.580   5.344  16.963  0.00  0.00    +0.000 A 
ATOM     10  N   UNL     1      50.836   6.721  16.747  0.00  0.00    +0.000 N 
ATOM     11  C   UNL     1      51.654   4.565  17.413  0.00  0.00    +0.000 A 
ATOM     12  H   UNL     1      51.677   6.811  16.186  0.00  0.00    +0.000 HD
ENDBRANCH   1  10
BRANCH   1  13
ATOM     13  C   UNL     1      49.421   7.614  14.846  0.00  0.00    +0.000 A 
ATOM     14  C   UNL     1      50.353   8.013  13.878  0.00  0.00    +0.000 A 
ATOM     15  C   UNL     1      50.082   7.883  12.517  0.00  0.00    +0.000 A 
ATOM     16  C   UNL     1      48.872   7.328  12.097  0.00  0.00    +0.000 A 
ATOM     17  C   UNL     1      47.906   6.906  13.024  0.00  0.00    +0.000 A 
ATOM     18  C   UNL     1      48.190   7.107  14.386  0.00  0.00    +0.000 A 
BRANCH  17  19
ATOM     19  C   UNL     1      46.689   6.172  12.607  0.00  0.00    +0.000 A 
ATOM     20  C   UNL     1      45.861   6.678  11.587  0.00  0.00    +0.000 A 
ATOM     21  C   UNL     1      44.770   5.949  11.102  0.00  0.00    +0.000 A 
ATOM     22  C   UNL     1      44.487   4.691  11.622  0.00  0.00    +0.000 A 
ATOM     23  C   UNL     1      45.283   4.170  12.638  0.00  0.00    +0.000 A 
ATOM     24  C   UNL     1      46.366   4.906  13.129  0.00  0.00    +0.000 A 
ENDBRANCH  17  19
ENDBRANCH   1  13
TORSDOF 3
ENDMDL
