MODEL 1
REMARK VINA RESULT:    -8.886      0.000      0.000
REMARK INTER + INTRA:         -14.133
REMARK INTER:                 -12.782
REMARK INTRA:                  -1.351
REMARK UNBOUND:                -1.351
REMARK  Name = 
REMARK  8 active torsions:
REMARK  status: ('A' for Active; 'I' for Inactive)
REMARK    1  A    between atoms: C_2  and  C_27
REMARK    2  A    between atoms: N_3  and  CA_4
REMARK    3  A    between atoms: CA_4  and  C_5
REMARK    4  A    between atoms: CA_4  and  C_7
REMARK    5  A    between atoms: C_5  and  O_6
REMARK    6  A    between atoms: C_11  and  C_12
REMARK    7  A    between atoms: C_12  and  N_13
REMARK    8  A    between atoms: C_14  and  C_16
REMARK                            x       y       z     vdW  Elec       q    Type
REMARK                         _______ _______ _______ _____ _____    ______ ____
ROOT
ATOM      1  C   UNL     1      44.714   7.824  11.607  0.00  0.00    +0.000 A 
ATOM      2  C   UNL     1      44.013   8.985  11.253  0.00  0.00    +0.000 A 
ATOM      3  C   UNL     1      44.622  10.239  11.349  0.00  0.00    +0.000 A 
ATOM      4  C   UNL     1      45.933  10.354  11.814  0.00  0.00    +0.000 A 
ATOM      5  C   UNL     1      46.644   9.217  12.212  0.00  0.00    +0.000 A 
ATOM      6  C   UNL     1      46.029   7.963  12.089  0.00  0.00    +0.000 A 
ENDROOT
BRANCH   1   7
ATOM      7  CA  UNL     1      44.032   6.461  11.513  0.00  0.00    +0.000 C 
BRANCH   7  10
ATOM      8  O   UNL     1      43.204   3.901  10.611  0.00  0.00    +0.000 OA
ATOM      9  C   UNL     1      44.276   4.352  10.230  0.00  0.00    +0.000 C 
ATOM     10  N   UNL     1      44.780   5.572  10.627  0.00  0.00    +0.000 N 
ATOM     11  H   UNL     1      45.429   6.011   9.986  0.00  0.00    +0.000 HD
BRANCH   9  12
ATOM     12  C   UNL     1      45.095   3.613   9.228  0.00  0.00    +0.000 A 
ATOM     13  C   UNL     1      45.794   4.354   8.266  0.00  0.00    +0.000 A 
ATOM     14  C   UNL     1      46.595   3.700   7.326  0.00  0.00    +0.000 A 
ATOM     15  C   UNL     1      46.686   2.309   7.342  0.00  0.00    +0.000 A 
ATOM     16 CL   UNL     1      47.686   1.505   6.195  0.00  0.00    +0.000 Cl
ATOM     17  C   UNL     1      45.975   1.563   8.281  0.00  0.00    +0.000 A 
ATOM     18  C   UNL     1      45.173   2.215   9.225  0.00  0.00    +0.000 A 
ENDBRANCH   9  12
ENDBRANCH   7  10
BRANCH   7  19
ATOM     19  C   UNL     1      43.802   5.860  12.929  0.00  0.00    +0.000 C 
BRANCH  19  20
ATOM     20  O   UNL     1      42.459   5.420  13.167  0.00  0.00    +0.000 OA
ATOM     21  H   UNL     1      42.467   4.860  13.959  0.00  0.00    +0.000 HD
ENDBRANCH  19  20
ENDBRANCH   7  19
ENDBRANCH   1   7
BRANCH   5  22
ATOM     22  C   UNL     1      48.038   9.314  12.780  0.00  0.00    +0.000 C 
BRANCH  22  23
ATOM     23  N   UNL     1      48.187   8.594  14.020  0.00  0.00    +0.000 N 
ATOM     24  C   UNL     1      48.778   7.356  14.096  0.00  0.00    +0.000 C 
ATOM     25  O   UNL     1      49.283   6.807  13.118  0.00  0.00    +0.000 OA
ATOM     26  H   UNL     1      47.658   8.940  14.811  0.00  0.00    +0.000 HD
BRANCH  24  27
ATOM     27  C   UNL     1      48.826   6.738  15.428  0.00  0.00    +0.000 A 
ATOM     28  C   UNL     1      49.608   7.311  16.421  0.00  0.00    +0.000 A 
ATOM     29  S   UNL     1      49.523   6.500  17.918  0.00  0.00    +0.000 S 
ATOM     30  C   UNL     1      48.477   5.319  17.280  0.00  0.00    +0.000 A 
ATOM     31  N   UNL     1      48.033   4.291  18.052  0.00  0.00    +0.000 NA
ATOM     32  C   UNL     1      47.282   3.444  17.432  0.00  0.00    +0.000 A 
ATOM     33  N   UNL     1      46.928   3.535  16.110  0.00  0.00    +0.000 N 
ATOM     34  C   UNL     1      47.310   4.584  15.306  0.00  0.00    +0.000 A 
ATOM     35  O   UNL     1      46.908   4.682  14.152  0.00  0.00    +0.000 OA
ATOM     36  C   UNL     1      48.182   5.551  15.948  0.00  0.00    +0.000 A 
ATOM     37  H   UNL     1      46.323   2.845  15.691  0.00  0.00    +0.000 HD
ENDBRANCH  24  27
ENDBRANCH  22  23
ENDBRANCH   5  22
TORSDOF 8
ENDMDL
MODEL 2
REMARK VINA RESULT:    -7.561      4.152      8.168
REMARK INTER + INTRA:         -12.228
REMARK INTER:                 -10.938
REMARK INTRA:                  -1.289
REMARK UNBOUND:                -1.351
REMARK  Name = 
REMARK  8 active torsions:
REMARK  status: ('A' for Active; 'I' for Inactive)
REMARK    1  A    between atoms: C_2  and  C_27
REMARK    2  A    between atoms: N_3  and  CA_4
REMARK    3  A    between atoms: CA_4  and  C_5
REMARK    4  A    between atoms: CA_4  and  C_7
REMARK    5  A    between atoms: C_5  and  O_6
REMARK    6  A    between atoms: C_11  and  C_12
REMARK    7  A    between atoms: C_12  and  N_13
REMARK    8  A    between atoms: C_14  and  C_16
REMARK                            x       y       z     vdW  Elec       q    Type
REMARK                         _______ _______ _______ _____ _____    ______ ____
ROOT
ATOM      1  C   UNL     1      48.894   6.437  15.898  0.00  0.00    +0.000 A 
ATOM      2  C   UNL     1      49.953   7.301  16.206  0.00  0.00    +0.000 A 
ATOM      3  C   UNL     1      50.335   8.303  15.309  0.00  0.00    +0.000 A 
ATOM      4  C   UNL     1      49.674   8.447  14.088  0.00  0.00    +0.000 A 
ATOM      5  C   UNL     1      48.639   7.574  13.737  0.00  0.00    +0.000 A 
ATOM      6  C   UNL     1      48.252   6.588  14.655  0.00  0.00    +0.000 A 
ENDROOT
BRANCH   1   7
ATOM      7  CA  UNL     1      48.498   5.335  16.879  0.00  0.00    +0.000 C 
BRANCH   7  10
ATOM      8  O   UNL     1      49.011   2.563  16.553  0.00  0.00    +0.000 OA
ATOM      9  C   UNL     1      49.841   3.264  17.116  0.00  0.00    +0.000 C 
ATOM     10  N   UNL     1      49.679   4.613  17.346  0.00  0.00    +0.000 N 
ATOM     11  H   UNL     1      50.531   5.151  17.440  0.00  0.00    +0.000 HD
BRANCH   9  12
ATOM     12  C   UNL     1      51.151   2.693  17.541  0.00  0.00    +0.000 A 
ATOM     13  C   UNL     1      51.359   1.317  17.378  0.00  0.00    +0.000 A 
ATOM     14  C   UNL     1      52.584   0.747  17.738  0.00  0.00    +0.000 A 
ATOM     15  C   UNL     1      53.591   1.551  18.270  0.00  0.00    +0.000 A 
ATOM     16 CL   UNL     1      55.104   0.851  18.697  0.00  0.00    +0.000 Cl
ATOM     17  C   UNL     1      53.384   2.916  18.457  0.00  0.00    +0.000 A 
ATOM     18  C   UNL     1      52.159   3.491  18.097  0.00  0.00    +0.000 A 
ENDBRANCH   9  12
ENDBRANCH   7  10
BRANCH   7  19
ATOM     19  C   UNL     1      47.637   5.913  18.039  0.00  0.00    +0.000 C 
BRANCH  19  20
ATOM     20  O   UNL     1      46.523   5.091  18.406  0.00  0.00    +0.000 OA
ATOM     21  H   UNL     1      46.871   4.245  18.729  0.00  0.00    +0.000 HD
ENDBRANCH  19  20
ENDBRANCH   7  19
ENDBRANCH   1   7
BRANCH   5  22
ATOM     22  C   UNL     1      47.949   7.662  12.398  0.00  0.00    +0.000 C 
BRANCH  22  23
ATOM     23  N   UNL     1      47.146   6.501  12.107  0.00  0.00    +0.000 N 
ATOM     24  C   UNL     1      45.777   6.496  12.214  0.00  0.00    +0.000 C 
ATOM     25  O   UNL     1      45.136   7.506  12.501  0.00  0.00    +0.000 OA
ATOM     26  H   UNL     1      47.639   5.621  12.014  0.00  0.00    +0.000 HD
BRANCH  24  27
ATOM     27  C   UNL     1      45.104   5.226  11.913  0.00  0.00    +0.000 A 
ATOM     28  C   UNL     1      44.440   4.546  12.925  0.00  0.00    +0.000 A 
ATOM     29  S   UNL     1      43.675   3.114  12.406  0.00  0.00    +0.000 S 
ATOM     30  C   UNL     1      44.248   3.320  10.817  0.00  0.00    +0.000 A 
ATOM     31  N   UNL     1      43.967   2.405   9.850  0.00  0.00    +0.000 NA
ATOM     32  C   UNL     1      44.498   2.661   8.702  0.00  0.00    +0.000 A 
ATOM     33  N   UNL     1      45.281   3.754   8.431  0.00  0.00    +0.000 N 
ATOM     34  C   UNL     1      45.548   4.731   9.362  0.00  0.00    +0.000 A 
ATOM     35  O   UNL     1      46.180   5.739   9.065  0.00  0.00    +0.000 OA
ATOM     36  C   UNL     1      44.997   4.476  10.681  0.00  0.00    +0.000 A 
ATOM     37  H   UNL     1      45.653   3.902   7.505  0.00  0.00    +0.000 HD
ENDBRANCH  24  27
ENDBRANCH  22  23
ENDBRANCH   5  22
TORSDOF 8
ENDMDL
MODEL 3
REMARK VINA RESULT:    -7.495      2.339      3.022
REMARK INTER + INTRA:         -12.132
REMARK INTER:                 -11.316
REMARK INTRA:                  -0.816
REMARK UNBOUND:                -1.351
REMARK  Name = 
REMARK  8 active torsions:
REMARK  status: ('A' for Active; 'I' for Inactive)
REMARK    1  A    between atoms: C_2  and  C_27
REMARK    2  A    between atoms: N_3  and  CA_4
REMARK    3  A    between atoms: CA_4  and  C_5
REMARK    4  A    between atoms: CA_4  and  C_7
REMARK    5  A    between atoms: C_5  and  O_6
REMARK    6  A    between atoms: C_11  and  C_12
REMARK    7  A    between atoms: C_12  and  N_13
REMARK    8  A    between atoms: C_14  and  C_16
REMARK                            x       y       z     vdW  Elec       q    Type
REMARK                         _______ _______ _______ _____ _____    ______ ____
ROOT
ATOM      1  C   UNL     1      45.288   7.126  12.184  0.00  0.00    +0.000 A 
ATOM      2  C   UNL     1      44.861   8.432  11.908  0.00  0.00    +0.000 A 
ATOM      3  C   UNL     1      45.625   9.529  12.315  0.00  0.00    +0.000 A 
ATOM      4  C   UNL     1      46.817   9.339  13.016  0.00  0.00    +0.000 A 
ATOM      5  C   UNL     1      47.248   8.048  13.340  0.00  0.00    +0.000 A 
ATOM      6  C   UNL     1      46.484   6.956  12.905  0.00  0.00    +0.000 A 
ENDROOT
BRANCH   1   7
ATOM      7  CA  UNL     1      44.436   5.936  11.748  0.00  0.00    +0.000 C 
BRANCH   7  10
ATOM      8  O   UNL     1      43.339   3.831  10.193  0.00  0.00    +0.000 OA
ATOM      9  C   UNL     1      44.513   4.140  10.039  0.00  0.00    +0.000 C 
ATOM     10  N   UNL     1      45.147   5.128  10.759  0.00  0.00    +0.000 N 
ATOM     11  H   UNL     1      45.944   5.561  10.308  0.00  0.00    +0.000 HD
BRANCH   9  12
ATOM     12  C   UNL     1      45.336   3.487   8.981  0.00  0.00    +0.000 A 
ATOM     13  C   UNL     1      45.479   2.094   9.016  0.00  0.00    +0.000 A 
ATOM     14  C   UNL     1      46.219   1.441   8.027  0.00  0.00    +0.000 A 
ATOM     15  C   UNL     1      46.823   2.183   7.012  0.00  0.00    +0.000 A 
ATOM     16 CL   UNL     1      47.720   1.377   5.784  0.00  0.00    +0.000 Cl
ATOM     17  C   UNL     1      46.705   3.572   6.983  0.00  0.00    +0.000 A 
ATOM     18  C   UNL     1      45.963   4.229   7.972  0.00  0.00    +0.000 A 
ENDBRANCH   9  12
ENDBRANCH   7  10
BRANCH   7  19
ATOM     19  C   UNL     1      43.963   5.114  12.981  0.00  0.00    +0.000 C 
BRANCH  19  20
ATOM     20  O   UNL     1      42.625   5.405  13.399  0.00  0.00    +0.000 OA
ATOM     21  H   UNL     1      42.472   6.355  13.268  0.00  0.00    +0.000 HD
ENDBRANCH  19  20
ENDBRANCH   7  19
ENDBRANCH   1   7
BRANCH   5  22
ATOM     22  C   UNL     1      48.498   7.811  14.152  0.00  0.00    +0.000 C 
BRANCH  22  23
ATOM     23  N   UNL     1      48.231   7.689  15.563  0.00  0.00    +0.000 N 
ATOM     24  C   UNL     1      48.932   6.839  16.383  0.00  0.00    +0.000 C 
ATOM     25  O   UNL     1      49.884   6.172  15.980  0.00  0.00    +0.000 OA
ATOM     26  H   UNL     1      47.369   8.102  15.898  0.00  0.00    +0.000 HD
BRANCH  24  27
ATOM     27  C   UNL     1      48.519   6.804  17.792  0.00  0.00    +0.000 A 
ATOM     28  C   UNL     1      48.525   5.596  18.477  0.00  0.00    +0.000 A 
ATOM     29  S   UNL     1      48.063   5.731  20.112  0.00  0.00    +0.000 S 
ATOM     30  C   UNL     1      47.786   7.402  19.953  0.00  0.00    +0.000 A 
ATOM     31  N   UNL     1      47.338   8.139  21.005  0.00  0.00    +0.000 NA
ATOM     32  C   UNL     1      47.129   9.384  20.736  0.00  0.00    +0.000 A 
ATOM     33  N   UNL     1      47.335   9.961  19.510  0.00  0.00    +0.000 N 
ATOM     34  C   UNL     1      47.836   9.269  18.432  0.00  0.00    +0.000 A 
ATOM     35  O   UNL     1      48.090   9.833  17.373  0.00  0.00    +0.000 OA
ATOM     36  C   UNL     1      48.061   7.855  18.674  0.00  0.00    +0.000 A 
ATOM     37  H   UNL     1      47.166  10.947  19.371  0.00  0.00    +0.000 HD
ENDBRANCH  24  27
ENDBRANCH  22  23
ENDBRANCH   5  22
TORSDOF 8
ENDMDL
MODEL 4
REMARK VINA RESULT:    -7.394      3.960      6.324
REMARK INTER + INTRA:         -11.986
REMARK INTER:                 -10.751
REMARK INTRA:                  -1.235
REMARK UNBOUND:                -1.351
REMARK  Name = 
REMARK  8 active torsions:
REMARK  status: ('A' for Active; 'I' for Inactive)
REMARK    1  A    between atoms: C_2  and  C_27
REMARK    2  A    between atoms: N_3  and  CA_4
REMARK    3  A    between atoms: CA_4  and  C_5
REMARK    4  A    between atoms: CA_4  and  C_7
REMARK    5  A    between atoms: C_5  and  O_6
REMARK    6  A    between atoms: C_11  and  C_12
REMARK    7  A    between atoms: C_12  and  N_13
REMARK    8  A    between atoms: C_14  and  C_16
REMARK                            x       y       z     vdW  Elec       q    Type
REMARK                         _______ _______ _______ _____ _____    ______ ____
ROOT
ATOM      1  C   UNL     1      44.208   6.654  11.556  0.00  0.00    +0.000 A 
ATOM      2  C   UNL     1      43.031   6.000  11.169  0.00  0.00    +0.000 A 
ATOM      3  C   UNL     1      42.825   4.656  11.495  0.00  0.00    +0.000 A 
ATOM      4  C   UNL     1      43.797   3.943  12.198  0.00  0.00    +0.000 A 
ATOM      5  C   UNL     1      44.999   4.558  12.563  0.00  0.00    +0.000 A 
ATOM      6  C   UNL     1      45.183   5.912  12.250  0.00  0.00    +0.000 A 
ENDROOT
BRANCH   1   7
ATOM      7  CA  UNL     1      44.428   8.117  11.180  0.00  0.00    +0.000 C 
BRANCH   7  10
ATOM      8  O   UNL     1      43.814  10.407   9.619  0.00  0.00    +0.000 OA
ATOM      9  C   UNL     1      42.956   9.933  10.352  0.00  0.00    +0.000 C 
ATOM     10  N   UNL     1      43.159   8.841  11.167  0.00  0.00    +0.000 N 
ATOM     11  H   UNL     1      42.331   8.310  11.407  0.00  0.00    +0.000 HD
BRANCH   9  12
ATOM     12  C   UNL     1      41.573  10.490  10.355  0.00  0.00    +0.000 A 
ATOM     13  C   UNL     1      41.305  11.608   9.554  0.00  0.00    +0.000 A 
ATOM     14  C   UNL     1      40.015  12.143   9.507  0.00  0.00    +0.000 A 
ATOM     15  C   UNL     1      39.000  11.568  10.271  0.00  0.00    +0.000 A 
ATOM     16 CL   UNL     1      37.408  12.217  10.201  0.00  0.00    +0.000 Cl
ATOM     17  C   UNL     1      39.263  10.471  11.089  0.00  0.00    +0.000 A 
ATOM     18  C   UNL     1      40.554   9.931  11.137  0.00  0.00    +0.000 A 
ENDBRANCH   9  12
ENDBRANCH   7  10
BRANCH   7  19
ATOM     19  C   UNL     1      45.494   8.771  12.105  0.00  0.00    +0.000 C 
BRANCH  19  20
ATOM     20  O   UNL     1      44.962   9.741  13.015  0.00  0.00    +0.000 OA
ATOM     21  H   UNL     1      44.007   9.587  13.089  0.00  0.00    +0.000 HD
ENDBRANCH  19  20
ENDBRANCH   7  19
ENDBRANCH   1   7
BRANCH   5  22
ATOM     22  C   UNL     1      46.096   3.797  13.266  0.00  0.00    +0.000 C 
BRANCH  22  23
ATOM     23  N   UNL     1      46.598   4.487  14.427  0.00  0.00    +0.000 N 
ATOM     24  C   UNL     1      47.417   3.889  15.354  0.00  0.00    +0.000 C 
ATOM     25  O   UNL     1      47.835   2.739  15.218  0.00  0.00    +0.000 OA
ATOM     26  H   UNL     1      46.163   5.374  14.651  0.00  0.00    +0.000 HD
BRANCH  24  27
ATOM     27  C   UNL     1      47.819   4.715  16.500  0.00  0.00    +0.000 A 
ATOM     28  C   UNL     1      47.437   4.340  17.781  0.00  0.00    +0.000 A 
ATOM     29  S   UNL     1      48.017   5.377  19.003  0.00  0.00    +0.000 S 
ATOM     30  C   UNL     1      48.757   6.398  17.861  0.00  0.00    +0.000 A 
ATOM     31  N   UNL     1      49.421   7.519  18.253  0.00  0.00    +0.000 NA
ATOM     32  C   UNL     1      49.896   8.225  17.283  0.00  0.00    +0.000 A 
ATOM     33  N   UNL     1      49.775   7.908  15.955  0.00  0.00    +0.000 N 
ATOM     34  C   UNL     1      49.159   6.760  15.514  0.00  0.00    +0.000 A 
ATOM     35  O   UNL     1      49.141   6.462  14.325  0.00  0.00    +0.000 OA
ATOM     36  C   UNL     1      48.579   5.943  16.565  0.00  0.00    +0.000 A 
ATOM     37  H   UNL     1      50.185   8.498  15.246  0.00  0.00    +0.000 HD
ENDBRANCH  24  27
ENDBRANCH  22  23
ENDBRANCH   5  22
TORSDOF 8
ENDMDL
MODEL 5
REMARK VINA RESULT:    -7.336      2.080      2.604
REMARK INTER + INTRA:         -11.903
REMARK INTER:                 -10.947
REMARK INTRA:                  -0.956
REMARK UNBOUND:                -1.351
REMARK  Name = 
REMARK  8 active torsions:
REMARK  status: ('A' for Active; 'I' for Inactive)
REMARK    1  A    between atoms: C_2  and  C_27
REMARK    2  A    between atoms: N_3  and  CA_4
REMARK    3  A    between atoms: CA_4  and  C_5
REMARK    4  A    between atoms: CA_4  and  C_7
REMARK    5  A    between atoms: C_5  and  O_6
REMARK    6  A    between atoms: C_11  and  C_12
REMARK    7  A    between atoms: C_12  and  N_13
REMARK    8  A    between atoms: C_14  and  C_16
REMARK                            x       y       z     vdW  Elec       q    Type
REMARK                         _______ _______ _______ _____ _____    ______ ____
ROOT
ATOM      1  C   UNL     1      45.128   6.348  12.019  0.00  0.00    +0.000 A 
ATOM      2  C   UNL     1      44.429   7.472  11.559  0.00  0.00    +0.000 A 
ATOM      3  C   UNL     1      44.887   8.760  11.849  0.00  0.00    +0.000 A 
ATOM      4  C   UNL     1      46.040   8.945  12.614  0.00  0.00    +0.000 A 
ATOM      5  C   UNL     1      46.737   7.842  13.119  0.00  0.00    +0.000 A 
ATOM      6  C   UNL     1      46.279   6.556  12.801  0.00  0.00    +0.000 A 
ENDROOT
BRANCH   1   7
ATOM      7  CA  UNL     1      44.608   4.946  11.709  0.00  0.00    +0.000 C 
BRANCH   7  10
ATOM      8  O   UNL     1      43.755   2.740  10.142  0.00  0.00    +0.000 OA
ATOM      9  C   UNL     1      44.793   3.318   9.848  0.00  0.00    +0.000 C 
ATOM     10  N   UNL     1      45.306   4.381  10.556  0.00  0.00    +0.000 N 
ATOM     11  H   UNL     1      45.905   5.011  10.036  0.00  0.00    +0.000 HD
BRANCH   9  12
ATOM     12  C   UNL     1      45.553   2.933   8.624  0.00  0.00    +0.000 A 
ATOM     13  C   UNL     1      45.845   3.929   7.683  0.00  0.00    +0.000 A 
ATOM     14  C   UNL     1      46.579   3.616   6.536  0.00  0.00    +0.000 A 
ATOM     15  C   UNL     1      47.007   2.306   6.326  0.00  0.00    +0.000 A 
ATOM     16 CL   UNL     1      47.925   1.923   4.922  0.00  0.00    +0.000 Cl
ATOM     17  C   UNL     1      46.700   1.303   7.245  0.00  0.00    +0.000 A 
ATOM     18  C   UNL     1      45.966   1.614   8.396  0.00  0.00    +0.000 A 
ENDBRANCH   9  12
ENDBRANCH   7  10
BRANCH   7  19
ATOM     19  C   UNL     1      44.681   4.039  12.970  0.00  0.00    +0.000 C 
BRANCH  19  20
ATOM     20  O   UNL     1      43.408   3.755  13.561  0.00  0.00    +0.000 OA
ATOM     21  H   UNL     1      43.154   2.854  13.302  0.00  0.00    +0.000 HD
ENDBRANCH  19  20
ENDBRANCH   7  19
ENDBRANCH   1   7
BRANCH   5  22
ATOM     22  C   UNL     1      47.948   8.009  14.002  0.00  0.00    +0.000 C 
BRANCH  22  23
ATOM     23  N   UNL     1      48.249   6.824  14.766  0.00  0.00    +0.000 N 
ATOM     24  C   UNL     1      48.538   6.856  16.108  0.00  0.00    +0.000 C 
ATOM     25  O   UNL     1      48.493   7.895  16.767  0.00  0.00    +0.000 OA
ATOM     26  H   UNL     1      48.441   5.981  14.238  0.00  0.00    +0.000 HD
BRANCH  24  27
ATOM     27  C   UNL     1      48.854   5.568  16.739  0.00  0.00    +0.000 A 
ATOM     28  C   UNL     1      47.823   4.709  17.094  0.00  0.00    +0.000 A 
ATOM     29  S   UNL     1      48.356   3.240  17.775  0.00  0.00    +0.000 S 
ATOM     30  C   UNL     1      49.985   3.719  17.669  0.00  0.00    +0.000 A 
ATOM     31  N   UNL     1      50.981   2.908  18.117  0.00  0.00    +0.000 NA
ATOM     32  C   UNL     1      52.166   3.411  18.017  0.00  0.00    +0.000 A 
ATOM     33  N   UNL     1      52.445   4.651  17.502  0.00  0.00    +0.000 N 
ATOM     34  C   UNL     1      51.477   5.482  16.990  0.00  0.00    +0.000 A 
ATOM     35  O   UNL     1      51.768   6.549  16.458  0.00  0.00    +0.000 OA
ATOM     36  C   UNL     1      50.122   4.975  17.105  0.00  0.00    +0.000 A 
ATOM     37  H   UNL     1      53.398   4.978  17.439  0.00  0.00    +0.000 HD
ENDBRANCH  24  27
ENDBRANCH  22  23
ENDBRANCH   5  22
TORSDOF 8
ENDMDL
MODEL 6
REMARK VINA RESULT:    -7.275      1.606      2.135
REMARK INTER + INTRA:         -11.815
REMARK INTER:                 -10.129
REMARK INTRA:                  -1.686
REMARK UNBOUND:                -1.351
REMARK  Name = 
REMARK  8 active torsions:
REMARK  status: ('A' for Active; 'I' for Inactive)
REMARK    1  A    between atoms: C_2  and  C_27
REMARK    2  A    between atoms: N_3  and  CA_4
REMARK    3  A    between atoms: CA_4  and  C_5
REMARK    4  A    between atoms: CA_4  and  C_7
REMARK    5  A    between atoms: C_5  and  O_6
REMARK    6  A    between atoms: C_11  and  C_12
REMARK    7  A    between atoms: C_12  and  N_13
REMARK    8  A    between atoms: C_14  and  C_16
REMARK                            x       y       z     vdW  Elec       q    Type
REMARK                         _______ _______ _______ _____ _____    ______ ____
ROOT
ATOM      1  C   UNL     1      45.891   6.976  12.462  0.00  0.00    +0.000 A 
ATOM      2  C   UNL     1      45.227   8.210  12.496  0.00  0.00    +0.000 A 
ATOM      3  C   UNL     1      45.951   9.404  12.565  0.00  0.00    +0.000 A 
ATOM      4  C   UNL     1      47.346   9.382  12.616  0.00  0.00    +0.000 A 
ATOM      5  C   UNL     1      48.034   8.164  12.624  0.00  0.00    +0.000 A 
ATOM      6  C   UNL     1      47.297   6.976  12.532  0.00  0.00    +0.000 A 
ENDROOT
BRANCH   1   7
ATOM      7  CA  UNL     1      45.088   5.679  12.404  0.00  0.00    +0.000 C 
BRANCH   7  10
ATOM      8  O   UNL     1      43.552   4.768  10.198  0.00  0.00    +0.000 OA
ATOM      9  C   UNL     1      44.734   4.461  10.272  0.00  0.00    +0.000 C 
ATOM     10  N   UNL     1      45.560   4.830  11.311  0.00  0.00    +0.000 N 
ATOM     11  H   UNL     1      46.548   4.877  11.095  0.00  0.00    +0.000 HD
BRANCH   9  12
ATOM     12  C   UNL     1      45.389   3.700   9.170  0.00  0.00    +0.000 A 
ATOM     13  C   UNL     1      45.449   2.304   9.271  0.00  0.00    +0.000 A 
ATOM     14  C   UNL     1      46.030   1.552   8.246  0.00  0.00    +0.000 A 
ATOM     15  C   UNL     1      46.559   2.198   7.130  0.00  0.00    +0.000 A 
ATOM     16 CL   UNL     1      47.259   1.271   5.860  0.00  0.00    +0.000 Cl
ATOM     17  C   UNL     1      46.525   3.588   7.032  0.00  0.00    +0.000 A 
ATOM     18  C   UNL     1      45.943   4.344   8.056  0.00  0.00    +0.000 A 
ENDBRANCH   9  12
ENDBRANCH   7  10
BRANCH   7  19
ATOM     19  C   UNL     1      45.100   4.959  13.783  0.00  0.00    +0.000 C 
BRANCH  19  20
ATOM     20  O   UNL     1      46.155   4.003  13.935  0.00  0.00    +0.000 OA
ATOM     21  H   UNL     1      46.998   4.483  13.909  0.00  0.00    +0.000 HD
ENDBRANCH  19  20
ENDBRANCH   7  19
ENDBRANCH   1   7
BRANCH   5  22
ATOM     22  C   UNL     1      49.537   8.105  12.745  0.00  0.00    +0.000 C 
BRANCH  22  23
ATOM     23  N   UNL     1      49.976   7.288  13.847  0.00  0.00    +0.000 N 
ATOM     24  C   UNL     1      50.477   7.814  15.013  0.00  0.00    +0.000 C 
ATOM     25  O   UNL     1      50.520   9.026  15.222  0.00  0.00    +0.000 OA
ATOM     26  H   UNL     1      50.096   6.299  13.659  0.00  0.00    +0.000 HD
BRANCH  24  27
ATOM     27  C   UNL     1      50.912   6.849  16.031  0.00  0.00    +0.000 A 
ATOM     28  C   UNL     1      52.214   6.902  16.511  0.00  0.00    +0.000 A 
ATOM     29  S   UNL     1      52.549   5.744  17.717  0.00  0.00    +0.000 S 
ATOM     30  C   UNL     1      50.982   5.093  17.605  0.00  0.00    +0.000 A 
ATOM     31  N   UNL     1      50.611   4.031  18.370  0.00  0.00    +0.000 NA
ATOM     32  C   UNL     1      49.410   3.611  18.154  0.00  0.00    +0.000 A 
ATOM     33  N   UNL     1      48.542   4.161  17.247  0.00  0.00    +0.000 N 
ATOM     34  C   UNL     1      48.854   5.266  16.490  0.00  0.00    +0.000 A 
ATOM     35  O   UNL     1      48.027   5.787  15.749  0.00  0.00    +0.000 OA
ATOM     36  C   UNL     1      50.207   5.762  16.673  0.00  0.00    +0.000 A 
ATOM     37  H   UNL     1      47.609   3.792  17.139  0.00  0.00    +0.000 HD
ENDBRANCH  24  27
ENDBRANCH  22  23
ENDBRANCH   5  22
TORSDOF 8
ENDMDL
MODEL 7
REMARK VINA RESULT:    -7.253      4.139      8.002
REMARK INTER + INTRA:         -11.784
REMARK INTER:                 -10.521
REMARK INTRA:                  -1.263
REMARK UNBOUND:                -1.351
REMARK  Name = 
REMARK  8 active torsions:
REMARK  status: ('A' for Active; 'I' for Inactive)
REMARK    1  A    between atoms: C_2  and  C_27
REMARK    2  A    between atoms: N_3  and  CA_4
REMARK    3  A    between atoms: CA_4  and  C_5
REMARK    4  A    between atoms: CA_4  and  C_7
REMARK    5  A    between atoms: C_5  and  O_6
REMARK    6  A    between atoms: C_11  and  C_12
REMARK    7  A    between atoms: C_12  and  N_13
REMARK    8  A    between atoms: C_14  and  C_16
REMARK                            x       y       z     vdW  Elec       q    Type
REMARK                         _______ _______ _______ _____ _____    ______ ____
ROOT
ATOM      1  C   UNL     1      48.570   6.627  18.329  0.00  0.00    +0.000 A 
ATOM      2  C   UNL     1      48.869   7.688  19.193  0.00  0.00    +0.000 A 
ATOM      3  C   UNL     1      49.132   8.964  18.685  0.00  0.00    +0.000 A 
ATOM      4  C   UNL     1      49.115   9.193  17.308  0.00  0.00    +0.000 A 
ATOM      5  C   UNL     1      48.858   8.144  16.420  0.00  0.00    +0.000 A 
ATOM      6  C   UNL     1      48.574   6.875  16.944  0.00  0.00    +0.000 A 
ENDROOT
BRANCH   1   7
ATOM      7  CA  UNL     1      48.301   5.234  18.896  0.00  0.00    +0.000 C 
BRANCH   7  10
ATOM      8  O   UNL     1      49.014   3.494  16.771  0.00  0.00    +0.000 OA
ATOM      9  C   UNL     1      49.767   3.609  17.729  0.00  0.00    +0.000 C 
ATOM     10  N   UNL     1      49.503   4.407  18.820  0.00  0.00    +0.000 N 
ATOM     11  H   UNL     1      50.312   4.734  19.333  0.00  0.00    +0.000 HD
BRANCH   9  12
ATOM     12  C   UNL     1      51.089   2.921  17.739  0.00  0.00    +0.000 A 
ATOM     13  C   UNL     1      51.132   1.560  17.406  0.00  0.00    +0.000 A 
ATOM     14  C   UNL     1      52.356   0.886  17.377  0.00  0.00    +0.000 A 
ATOM     15  C   UNL     1      53.530   1.568  17.693  0.00  0.00    +0.000 A 
ATOM     16 CL   UNL     1      55.038   0.741  17.641  0.00  0.00    +0.000 Cl
ATOM     17  C   UNL     1      53.493   2.915  18.049  0.00  0.00    +0.000 A 
ATOM     18  C   UNL     1      52.269   3.595  18.077  0.00  0.00    +0.000 A 
ENDBRANCH   9  12
ENDBRANCH   7  10
BRANCH   7  19
ATOM     19  C   UNL     1      47.714   5.327  20.333  0.00  0.00    +0.000 C 
BRANCH  19  20
ATOM     20  O   UNL     1      48.139   4.276  21.208  0.00  0.00    +0.000 OA
ATOM     21  H   UNL     1      48.768   4.655  21.844  0.00  0.00    +0.000 HD
ENDBRANCH  19  20
ENDBRANCH   7  19
ENDBRANCH   1   7
BRANCH   5  22
ATOM     22  C   UNL     1      48.896   8.344  14.925  0.00  0.00    +0.000 C 
BRANCH  22  23
ATOM     23  N   UNL     1      47.729   7.821  14.261  0.00  0.00    +0.000 N 
ATOM     24  C   UNL     1      47.789   6.809  13.335  0.00  0.00    +0.000 C 
ATOM     25  O   UNL     1      48.840   6.233  13.057  0.00  0.00    +0.000 OA
ATOM     26  H   UNL     1      46.877   8.362  14.350  0.00  0.00    +0.000 HD
BRANCH  24  27
ATOM     27  C   UNL     1      46.516   6.407  12.723  0.00  0.00    +0.000 A 
ATOM     28  C   UNL     1      45.699   7.370  12.146  0.00  0.00    +0.000 A 
ATOM     29  S   UNL     1      44.280   6.738  11.444  0.00  0.00    +0.000 S 
ATOM     30  C   UNL     1      44.678   5.158  11.931  0.00  0.00    +0.000 A 
ATOM     31  N   UNL     1      43.848   4.115  11.660  0.00  0.00    +0.000 NA
ATOM     32  C   UNL     1      44.249   2.979  12.123  0.00  0.00    +0.000 A 
ATOM     33  N   UNL     1      45.410   2.789  12.827  0.00  0.00    +0.000 N 
ATOM     34  C   UNL     1      46.305   3.803  13.079  0.00  0.00    +0.000 A 
ATOM     35  O   UNL     1      47.375   3.586  13.638  0.00  0.00    +0.000 OA
ATOM     36  C   UNL     1      45.887   5.110  12.604  0.00  0.00    +0.000 A 
ATOM     37  H   UNL     1      45.672   1.869  13.148  0.00  0.00    +0.000 HD
ENDBRANCH  24  27
ENDBRANCH  22  23
ENDBRANCH   5  22
TORSDOF 8
ENDMDL
MODEL 8
REMARK VINA RESULT:    -7.239      3.636      8.007
REMARK INTER + INTRA:         -11.763
REMARK INTER:                 -10.082
REMARK INTRA:                  -1.682
REMARK UNBOUND:                -1.351
REMARK  Name = 
REMARK  8 active torsions:
REMARK  status: ('A' for Active; 'I' for Inactive)
REMARK    1  A    between atoms: C_2  and  C_27
REMARK    2  A    between atoms: N_3  and  CA_4
REMARK    3  A    between atoms: CA_4  and  C_5
REMARK    4  A    between atoms: CA_4  and  C_7
REMARK    5  A    between atoms: C_5  and  O_6
REMARK    6  A    between atoms: C_11  and  C_12
REMARK    7  A    between atoms: C_12  and  N_13
REMARK    8  A    between atoms: C_14  and  C_16
REMARK                            x       y       z     vdW  Elec       q    Type
REMARK                         _______ _______ _______ _____ _____    ______ ____
ROOT
ATOM      1  C   UNL     1      50.503   5.416  17.423  0.00  0.00    +0.000 A 
ATOM      2  C   UNL     1      51.388   4.378  17.743  0.00  0.00    +0.000 A 
ATOM      3  C   UNL     1      50.962   3.047  17.710  0.00  0.00    +0.000 A 
ATOM      4  C   UNL     1      49.644   2.736  17.373  0.00  0.00    +0.000 A 
ATOM      5  C   UNL     1      48.728   3.753  17.087  0.00  0.00    +0.000 A 
ATOM      6  C   UNL     1      49.174   5.082  17.101  0.00  0.00    +0.000 A 
ENDROOT
BRANCH   1   7
ATOM      7  CA  UNL     1      50.976   6.867  17.479  0.00  0.00    +0.000 C 
BRANCH   7  10
ATOM      8  O   UNL     1      52.223   7.548  15.022  0.00  0.00    +0.000 OA
ATOM      9  C   UNL     1      51.070   7.902  15.226  0.00  0.00    +0.000 C 
ATOM     10  N   UNL     1      50.383   7.644  16.392  0.00  0.00    +0.000 N 
ATOM     11  H   UNL     1      49.374   7.617  16.314  0.00  0.00    +0.000 HD
BRANCH   9  12
ATOM     12  C   UNL     1      50.292   8.597  14.162  0.00  0.00    +0.000 A 
ATOM     13  C   UNL     1      49.603   9.769  14.501  0.00  0.00    +0.000 A 
ATOM     14  C   UNL     1      48.884  10.466  13.526  0.00  0.00    +0.000 A 
ATOM     15  C   UNL     1      48.846   9.984  12.219  0.00  0.00    +0.000 A 
ATOM     16 CL   UNL     1      47.975  10.852  11.015  0.00  0.00    +0.000 Cl
ATOM     17  C   UNL     1      49.509   8.806  11.878  0.00  0.00    +0.000 A 
ATOM     18  C   UNL     1      50.230   8.106  12.852  0.00  0.00    +0.000 A 
ENDBRANCH   9  12
ENDBRANCH   7  10
BRANCH   7  19
ATOM     19  C   UNL     1      50.711   7.481  18.883  0.00  0.00    +0.000 C 
BRANCH  19  20
ATOM     20  O   UNL     1      50.525   8.901  18.875  0.00  0.00    +0.000 OA
ATOM     21  H   UNL     1      51.375   9.311  18.647  0.00  0.00    +0.000 HD
ENDBRANCH  19  20
ENDBRANCH   7  19
ENDBRANCH   1   7
BRANCH   5  22
ATOM     22  C   UNL     1      47.281   3.453  16.782  0.00  0.00    +0.000 C 
BRANCH  22  23
ATOM     23  N   UNL     1      46.720   4.348  15.802  0.00  0.00    +0.000 N 
ATOM     24  C   UNL     1      46.764   4.098  14.452  0.00  0.00    +0.000 C 
ATOM     25  O   UNL     1      47.227   3.056  13.991  0.00  0.00    +0.000 OA
ATOM     26  H   UNL     1      46.468   5.274  16.126  0.00  0.00    +0.000 HD
BRANCH  24  27
ATOM     27  C   UNL     1      46.176   5.123  13.579  0.00  0.00    +0.000 A 
ATOM     28  C   UNL     1      46.844   6.325  13.389  0.00  0.00    +0.000 A 
ATOM     29  S   UNL     1      46.054   7.388  12.317  0.00  0.00    +0.000 S 
ATOM     30  C   UNL     1      44.761   6.303  12.106  0.00  0.00    +0.000 A 
ATOM     31  N   UNL     1      43.706   6.621  11.309  0.00  0.00    +0.000 NA
ATOM     32  C   UNL     1      42.775   5.726  11.272  0.00  0.00    +0.000 A 
ATOM     33  N   UNL     1      42.808   4.539  11.956  0.00  0.00    +0.000 N 
ATOM     34  C   UNL     1      43.876   4.152  12.731  0.00  0.00    +0.000 A 
ATOM     35  O   UNL     1      43.913   3.047  13.262  0.00  0.00    +0.000 OA
ATOM     36  C   UNL     1      44.939   5.136  12.830  0.00  0.00    +0.000 A 
ATOM     37  H   UNL     1      42.052   3.875  11.870  0.00  0.00    +0.000 HD
ENDBRANCH  24  27
ENDBRANCH  22  23
ENDBRANCH   5  22
TORSDOF 8
ENDMDL
MODEL 9
REMARK VINA RESULT:    -7.167      4.504      9.578
REMARK INTER + INTRA:         -11.661
REMARK INTER:                 -10.260
REMARK INTRA:                  -1.401
REMARK UNBOUND:                -1.351
REMARK  Name = 
REMARK  8 active torsions:
REMARK  status: ('A' for Active; 'I' for Inactive)
REMARK    1  A    between atoms: C_2  and  C_27
REMARK    2  A    between atoms: N_3  and  CA_4
REMARK    3  A    between atoms: CA_4  and  C_5
REMARK    4  A    between atoms: CA_4  and  C_7
REMARK    5  A    between atoms: C_5  and  O_6
REMARK    6  A    between atoms: C_11  and  C_12
REMARK    7  A    between atoms: C_12  and  N_13
REMARK    8  A    between atoms: C_14  and  C_16
REMARK                            x       y       z     vdW  Elec       q    Type
REMARK                         _______ _______ _______ _____ _____    ______ ____
ROOT
ATOM      1  C   UNL     1      50.761   4.812  17.743  0.00  0.00    +0.000 A 
ATOM      2  C   UNL     1      51.544   3.650  17.714  0.00  0.00    +0.000 A 
ATOM      3  C   UNL     1      50.974   2.419  17.376  0.00  0.00    +0.000 A 
ATOM      4  C   UNL     1      49.614   2.329  17.077  0.00  0.00    +0.000 A 
ATOM      5  C   UNL     1      48.800   3.465  17.136  0.00  0.00    +0.000 A 
ATOM      6  C   UNL     1      49.389   4.697  17.454  0.00  0.00    +0.000 A 
ENDROOT
BRANCH   1   7
ATOM      7  CA  UNL     1      51.392   6.148  18.130  0.00  0.00    +0.000 C 
BRANCH   7  10
ATOM      8  O   UNL     1      50.468   8.544  16.921  0.00  0.00    +0.000 OA
ATOM      9  C   UNL     1      49.988   8.188  17.989  0.00  0.00    +0.000 C 
ATOM     10  N   UNL     1      50.383   7.057  18.669  0.00  0.00    +0.000 N 
ATOM     11  H   UNL     1      49.694   6.652  19.290  0.00  0.00    +0.000 HD
BRANCH   9  12
ATOM     12  C   UNL     1      48.863   8.948  18.604  0.00  0.00    +0.000 A 
ATOM     13  C   UNL     1      48.228   8.402  19.727  0.00  0.00    +0.000 A 
ATOM     14  C   UNL     1      47.187   9.096  20.350  0.00  0.00    +0.000 A 
ATOM     15  C   UNL     1      46.776  10.327  19.841  0.00  0.00    +0.000 A 
ATOM     16 CL   UNL     1      45.505  11.189  20.617  0.00  0.00    +0.000 Cl
ATOM     17  C   UNL     1      47.386  10.866  18.709  0.00  0.00    +0.000 A 
ATOM     18  C   UNL     1      48.430  10.174  18.084  0.00  0.00    +0.000 A 
ENDBRANCH   9  12
ENDBRANCH   7  10
BRANCH   7  19
ATOM     19  C   UNL     1      52.595   5.932  19.091  0.00  0.00    +0.000 C 
BRANCH  19  20
ATOM     20  O   UNL     1      52.231   5.843  20.474  0.00  0.00    +0.000 OA
ATOM     21  H   UNL     1      51.763   6.659  20.711  0.00  0.00    +0.000 HD
ENDBRANCH  19  20
ENDBRANCH   7  19
ENDBRANCH   1   7
BRANCH   5  22
ATOM     22  C   UNL     1      47.315   3.389  16.882  0.00  0.00    +0.000 C 
BRANCH  22  23
ATOM     23  N   UNL     1      46.865   4.349  15.906  0.00  0.00    +0.000 N 
ATOM     24  C   UNL     1      46.928   4.122  14.553  0.00  0.00    +0.000 C 
ATOM     25  O   UNL     1      47.311   3.051  14.083  0.00  0.00    +0.000 OA
ATOM     26  H   UNL     1      46.687   5.288  16.243  0.00  0.00    +0.000 HD
BRANCH  24  27
ATOM     27  C   UNL     1      46.460   5.212  13.686  0.00  0.00    +0.000 A 
ATOM     28  C   UNL     1      47.256   6.336  13.510  0.00  0.00    +0.000 A 
ATOM     29  S   UNL     1      46.592   7.487  12.443  0.00  0.00    +0.000 S 
ATOM     30  C   UNL     1      45.190   6.551  12.217  0.00  0.00    +0.000 A 
ATOM     31  N   UNL     1      44.181   6.988  11.417  0.00  0.00    +0.000 NA
ATOM     32  C   UNL     1      43.159   6.201  11.369  0.00  0.00    +0.000 A 
ATOM     33  N   UNL     1      43.058   5.011  12.042  0.00  0.00    +0.000 N 
ATOM     34  C   UNL     1      44.073   4.504  12.819  0.00  0.00    +0.000 A 
ATOM     35  O   UNL     1      43.986   3.397  13.340  0.00  0.00    +0.000 OA
ATOM     36  C   UNL     1      45.236   5.366  12.931  0.00  0.00    +0.000 A 
ATOM     37  H   UNL     1      42.234   4.435  11.947  0.00  0.00    +0.000 HD
ENDBRANCH  24  27
ENDBRANCH  22  23
ENDBRANCH   5  22
TORSDOF 8
ENDMDL
