MODEL 1
REMARK VINA RESULT:    -7.356      0.000      0.000
REMARK INTER + INTRA:         -11.683
REMARK INTER:                 -10.366
REMARK INTRA:                  -1.318
REMARK UNBOUND:                -1.318
REMARK  Name = 
REMARK  7 active torsions:
REMARK  status: ('A' for Active; 'I' for Inactive)
REMARK    1  A    between atoms: C_2  and  C_20
REMARK    2  A    between atoms: N_3  and  C_4
REMARK    3  A    between atoms: C_4  and  C_5
REMARK    4  A    between atoms: C_8  and  C_9
REMARK    5  A    between atoms: C_9  and  N_10
REMARK    6  A    between atoms: N_10  and  C_11
REMARK    7  A    between atoms: C_11  and  C_12
REMARK                            x       y       z     vdW  Elec       q    Type
REMARK                         _______ _______ _______ _____ _____    ______ ____
ROOT
ATOM      1  C   UNL     1      45.997   6.858  12.312  0.00  0.00    +0.000 A 
ATOM      2  C   UNL     1      46.472   6.572  11.036  0.00  0.00    +0.000 A 
ATOM      3  C   UNL     1      45.775   5.665  10.244  0.00  0.00    +0.000 A 
ATOM      4  C   UNL     1      44.626   5.039  10.734  0.00  0.00    +0.000 A 
ATOM      5  C   UNL     1      44.228   5.392  12.022  0.00  0.00    +0.000 A 
ATOM      6  N   UNL     1      44.884   6.271  12.820  0.00  0.00    +0.000 NA
ENDROOT
BRANCH   1   7
ATOM      7  C   UNL     1      46.709   7.883  13.160  0.00  0.00    +0.000 C 
BRANCH   7  10
ATOM      8  O   UNL     1      49.149   6.556  13.342  0.00  0.00    +0.000 OA
ATOM      9  C   UNL     1      48.479   6.722  14.375  0.00  0.00    +0.000 C 
ATOM     10  N   UNL     1      47.255   7.337  14.374  0.00  0.00    +0.000 N 
ATOM     11  H   UNL     1      46.918   7.748  15.238  0.00  0.00    +0.000 HD
BRANCH   9  12
ATOM     12  C   UNL     1      48.942   6.228  15.660  0.00  0.00    +0.000 A 
ATOM     13  C   UNL     1      49.971   6.830  16.367  0.00  0.00    +0.000 A 
ATOM     14  S   UNL     1      50.285   6.070  17.867  0.00  0.00    +0.000 S 
ATOM     15  C   UNL     1      49.054   4.923  17.609  0.00  0.00    +0.000 A 
ATOM     16  N   UNL     1      48.774   3.959  18.524  0.00  0.00    +0.000 NA
ATOM     17  C   UNL     1      47.805   3.173  18.194  0.00  0.00    +0.000 A 
ATOM     18  N   UNL     1      47.085   3.262  17.028  0.00  0.00    +0.000 N 
ATOM     19  C   UNL     1      47.356   4.180  16.043  0.00  0.00    +0.000 A 
ATOM     20  O   UNL     1      46.772   4.138  14.970  0.00  0.00    +0.000 OA
ATOM     21  C   UNL     1      48.424   5.102  16.391  0.00  0.00    +0.000 A 
ATOM     22  H   UNL     1      46.363   2.590  16.818  0.00  0.00    +0.000 HD
ENDBRANCH   9  12
ENDBRANCH   7  10
ENDBRANCH   1   7
BRANCH   4  23
ATOM     23  C   UNL     1      43.803   4.057   9.927  0.00  0.00    +0.000 C 
BRANCH  23  24
ATOM     24  N   UNL     1      44.444   2.739   9.824  0.00  0.00    +0.000 NA
ATOM     25  H   UNL     1      43.818   2.024  10.189  0.00  0.00    +0.000 HD
BRANCH  24  26
ATOM     26  C   UNL     1      44.877   2.389   8.460  0.00  0.00    +0.000 C 
BRANCH  26  27
ATOM     27  C   UNL     1      46.408   2.545   8.296  0.00  0.00    +0.000 C 
ATOM     28  C   UNL     1      46.793   3.726   7.390  0.00  0.00    +0.000 C 
ATOM     29  C   UNL     1      46.608   3.417   5.906  0.00  0.00    +0.000 C 
ATOM     30  C   UNL     1      47.300   2.112   5.513  0.00  0.00    +0.000 C 
ATOM     31  N   UNL     1      46.878   0.994   6.362  0.00  0.00    +0.000 NA
ATOM     32  C   UNL     1      47.118   1.271   7.782  0.00  0.00    +0.000 C 
ATOM     33  H   UNL     1      47.405   0.162   6.089  0.00  0.00    +0.000 HD
ENDBRANCH  26  27
ENDBRANCH  24  26
ENDBRANCH  23  24
ENDBRANCH   4  23
TORSDOF 7
ENDMDL
MODEL 2
REMARK VINA RESULT:    -7.269      2.518      3.463
REMARK INTER + INTRA:         -11.562
REMARK INTER:                 -10.670
REMARK INTRA:                  -0.891
REMARK UNBOUND:                -1.318
REMARK  Name = 
REMARK  7 active torsions:
REMARK  status: ('A' for Active; 'I' for Inactive)
REMARK    1  A    between atoms: C_2  and  C_20
REMARK    2  A    between atoms: N_3  and  C_4
REMARK    3  A    between atoms: C_4  and  C_5
REMARK    4  A    between atoms: C_8  and  C_9
REMARK    5  A    between atoms: C_9  and  N_10
REMARK    6  A    between atoms: N_10  and  C_11
REMARK    7  A    between atoms: C_11  and  C_12
REMARK                            x       y       z     vdW  Elec       q    Type
REMARK                         _______ _______ _______ _____ _____    ______ ____
ROOT
ATOM      1  C   UNL     1      46.691   4.720  14.558  0.00  0.00    +0.000 A 
ATOM      2  C   UNL     1      47.530   5.678  14.002  0.00  0.00    +0.000 A 
ATOM      3  C   UNL     1      47.251   6.162  12.727  0.00  0.00    +0.000 A 
ATOM      4  C   UNL     1      46.154   5.674  12.014  0.00  0.00    +0.000 A 
ATOM      5  C   UNL     1      45.371   4.717  12.656  0.00  0.00    +0.000 A 
ATOM      6  N   UNL     1      45.615   4.225  13.896  0.00  0.00    +0.000 NA
ENDROOT
BRANCH   1   7
ATOM      7  C   UNL     1      46.947   4.230  15.962  0.00  0.00    +0.000 C 
BRANCH   7  10
ATOM      8  O   UNL     1      48.004   4.818  18.469  0.00  0.00    +0.000 OA
ATOM      9  C   UNL     1      48.774   4.449  17.567  0.00  0.00    +0.000 C 
ATOM     10  N   UNL     1      48.346   4.168  16.296  0.00  0.00    +0.000 N 
ATOM     11  H   UNL     1      48.916   3.563  15.715  0.00  0.00    +0.000 HD
BRANCH   9  12
ATOM     12  C   UNL     1      50.203   4.334  17.797  0.00  0.00    +0.000 A 
ATOM     13  C   UNL     1      50.975   5.389  18.256  0.00  0.00    +0.000 A 
ATOM     14  S   UNL     1      52.618   4.969  18.480  0.00  0.00    +0.000 S 
ATOM     15  C   UNL     1      52.337   3.368  17.974  0.00  0.00    +0.000 A 
ATOM     16  N   UNL     1      53.334   2.447  17.932  0.00  0.00    +0.000 NA
ATOM     17  C   UNL     1      52.964   1.273  17.542  0.00  0.00    +0.000 A 
ATOM     18  N   UNL     1      51.682   0.933  17.190  0.00  0.00    +0.000 N 
ATOM     19  C   UNL     1      50.643   1.832  17.160  0.00  0.00    +0.000 A 
ATOM     20  O   UNL     1      49.550   1.512  16.718  0.00  0.00    +0.000 OA
ATOM     21  C   UNL     1      51.016   3.160  17.621  0.00  0.00    +0.000 A 
ATOM     22  H   UNL     1      51.469   0.005  16.858  0.00  0.00    +0.000 HD
ENDBRANCH   9  12
ENDBRANCH   7  10
ENDBRANCH   1   7
BRANCH   4  23
ATOM     23  C   UNL     1      45.773   6.165  10.632  0.00  0.00    +0.000 C 
BRANCH  23  24
ATOM     24  N   UNL     1      45.337   5.073   9.751  0.00  0.00    +0.000 NA
ATOM     25  H   UNL     1      44.365   5.215   9.485  0.00  0.00    +0.000 HD
BRANCH  24  26
ATOM     26  C   UNL     1      46.174   4.903   8.549  0.00  0.00    +0.000 C 
BRANCH  26  27
ATOM     27  C   UNL     1      45.526   3.920   7.544  0.00  0.00    +0.000 C 
ATOM     28  C   UNL     1      44.756   2.783   8.236  0.00  0.00    +0.000 C 
ATOM     29  C   UNL     1      45.676   1.698   8.789  0.00  0.00    +0.000 C 
ATOM     30  C   UNL     1      46.658   1.199   7.730  0.00  0.00    +0.000 C 
ATOM     31  N   UNL     1      47.412   2.299   7.122  0.00  0.00    +0.000 NA
ATOM     32  C   UNL     1      46.522   3.306   6.534  0.00  0.00    +0.000 C 
ATOM     33  H   UNL     1      48.014   1.916   6.391  0.00  0.00    +0.000 HD
ENDBRANCH  26  27
ENDBRANCH  24  26
ENDBRANCH  23  24
ENDBRANCH   4  23
TORSDOF 7
ENDMDL
MODEL 3
REMARK VINA RESULT:    -6.965      2.240      3.000
REMARK INTER + INTRA:         -11.133
REMARK INTER:                 -10.190
REMARK INTRA:                  -0.944
REMARK UNBOUND:                -1.318
REMARK  Name = 
REMARK  7 active torsions:
REMARK  status: ('A' for Active; 'I' for Inactive)
REMARK    1  A    between atoms: C_2  and  C_20
REMARK    2  A    between atoms: N_3  and  C_4
REMARK    3  A    between atoms: C_4  and  C_5
REMARK    4  A    between atoms: C_8  and  C_9
REMARK    5  A    between atoms: C_9  and  N_10
REMARK    6  A    between atoms: N_10  and  C_11
REMARK    7  A    between atoms: C_11  and  C_12
REMARK                            x       y       z     vdW  Elec       q    Type
REMARK                         _______ _______ _______ _____ _____    ______ ____
ROOT
ATOM      1  C   UNL     1      47.263   6.496  13.756  0.00  0.00    +0.000 A 
ATOM      2  C   UNL     1      46.305   7.037  12.906  0.00  0.00    +0.000 A 
ATOM      3  C   UNL     1      45.174   6.288  12.599  0.00  0.00    +0.000 A 
ATOM      4  C   UNL     1      45.017   5.003  13.124  0.00  0.00    +0.000 A 
ATOM      5  C   UNL     1      46.029   4.548  13.967  0.00  0.00    +0.000 A 
ATOM      6  N   UNL     1      47.144   5.253  14.287  0.00  0.00    +0.000 NA
ENDROOT
BRANCH   1   7
ATOM      7  C   UNL     1      48.466   7.321  14.144  0.00  0.00    +0.000 C 
BRANCH   7  10
ATOM      8  O   UNL     1      50.263   6.189  15.944  0.00  0.00    +0.000 OA
ATOM      9  C   UNL     1      49.456   7.039  16.358  0.00  0.00    +0.000 C 
ATOM     10  N   UNL     1      48.518   7.625  15.550  0.00  0.00    +0.000 N 
ATOM     11  H   UNL     1      48.133   8.522  15.826  0.00  0.00    +0.000 HD
BRANCH   9  12
ATOM     12  C   UNL     1      49.431   7.435  17.755  0.00  0.00    +0.000 A 
ATOM     13  C   UNL     1      50.208   8.469  18.253  0.00  0.00    +0.000 A 
ATOM     14  S   UNL     1      49.952   8.753  19.921  0.00  0.00    +0.000 S 
ATOM     15  C   UNL     1      48.797   7.506  20.015  0.00  0.00    +0.000 A 
ATOM     16  N   UNL     1      48.161   7.208  21.177  0.00  0.00    +0.000 NA
ATOM     17  C   UNL     1      47.301   6.249  21.088  0.00  0.00    +0.000 A 
ATOM     18  N   UNL     1      47.017   5.557  19.937  0.00  0.00    +0.000 N 
ATOM     19  C   UNL     1      47.664   5.775  18.745  0.00  0.00    +0.000 A 
ATOM     20  O   UNL     1      47.467   5.049  17.783  0.00  0.00    +0.000 OA
ATOM     21  C   UNL     1      48.620   6.869  18.800  0.00  0.00    +0.000 A 
ATOM     22  H   UNL     1      46.359   4.793  19.947  0.00  0.00    +0.000 HD
ENDBRANCH   9  12
ENDBRANCH   7  10
ENDBRANCH   1   7
BRANCH   4  23
ATOM     23  C   UNL     1      43.807   4.133  12.854  0.00  0.00    +0.000 C 
BRANCH  23  24
ATOM     24  N   UNL     1      44.168   2.836  12.267  0.00  0.00    +0.000 NA
ATOM     25  H   UNL     1      43.324   2.330  12.008  0.00  0.00    +0.000 HD
BRANCH  24  26
ATOM     26  C   UNL     1      45.077   2.935  11.111  0.00  0.00    +0.000 C 
BRANCH  26  27
ATOM     27  C   UNL     1      44.299   2.882   9.774  0.00  0.00    +0.000 C 
ATOM     28  C   UNL     1      44.839   1.809   8.813  0.00  0.00    +0.000 C 
ATOM     29  C   UNL     1      46.125   2.239   8.112  0.00  0.00    +0.000 C 
ATOM     30  C   UNL     1      45.976   3.611   7.455  0.00  0.00    +0.000 C 
ATOM     31  N   UNL     1      45.507   4.623   8.405  0.00  0.00    +0.000 NA
ATOM     32  C   UNL     1      44.237   4.234   9.028  0.00  0.00    +0.000 C 
ATOM     33  H   UNL     1      45.379   5.504   7.905  0.00  0.00    +0.000 HD
ENDBRANCH  26  27
ENDBRANCH  24  26
ENDBRANCH  23  24
ENDBRANCH   4  23
TORSDOF 7
ENDMDL
MODEL 4
REMARK VINA RESULT:    -6.867      2.020      2.667
REMARK INTER + INTRA:         -10.995
REMARK INTER:                  -9.967
REMARK INTRA:                  -1.028
REMARK UNBOUND:                -1.318
REMARK  Name = 
REMARK  7 active torsions:
REMARK  status: ('A' for Active; 'I' for Inactive)
REMARK    1  A    between atoms: C_2  and  C_20
REMARK    2  A    between atoms: N_3  and  C_4
REMARK    3  A    between atoms: C_4  and  C_5
REMARK    4  A    between atoms: C_8  and  C_9
REMARK    5  A    between atoms: C_9  and  N_10
REMARK    6  A    between atoms: N_10  and  C_11
REMARK    7  A    between atoms: C_11  and  C_12
REMARK                            x       y       z     vdW  Elec       q    Type
REMARK                         _______ _______ _______ _____ _____    ______ ____
ROOT
ATOM      1  C   UNL     1      45.609   7.351  12.624  0.00  0.00    +0.000 A 
ATOM      2  C   UNL     1      44.677   7.427  11.595  0.00  0.00    +0.000 A 
ATOM      3  C   UNL     1      43.878   6.321  11.325  0.00  0.00    +0.000 A 
ATOM      4  C   UNL     1      44.026   5.147  12.067  0.00  0.00    +0.000 A 
ATOM      5  C   UNL     1      44.985   5.168  13.078  0.00  0.00    +0.000 A 
ATOM      6  N   UNL     1      45.780   6.229  13.367  0.00  0.00    +0.000 NA
ENDROOT
BRANCH   1   7
ATOM      7  C   UNL     1      46.442   8.563  12.966  0.00  0.00    +0.000 C 
BRANCH   7  10
ATOM      8  O   UNL     1      48.857   9.694  13.763  0.00  0.00    +0.000 OA
ATOM      9  C   UNL     1      48.140   9.149  14.619  0.00  0.00    +0.000 C 
ATOM     10  N   UNL     1      46.952   8.541  14.311  0.00  0.00    +0.000 N 
ATOM     11  H   UNL     1      46.263   8.425  15.047  0.00  0.00    +0.000 HD
BRANCH   9  12
ATOM     12  C   UNL     1      48.547   9.084  16.011  0.00  0.00    +0.000 A 
ATOM     13  C   UNL     1      48.608  10.203  16.826  0.00  0.00    +0.000 A 
ATOM     14  S   UNL     1      49.077   9.838  18.431  0.00  0.00    +0.000 S 
ATOM     15  C   UNL     1      49.206   8.178  18.075  0.00  0.00    +0.000 A 
ATOM     16  N   UNL     1      49.566   7.273  19.021  0.00  0.00    +0.000 NA
ATOM     17  C   UNL     1      49.605   6.051  18.606  0.00  0.00    +0.000 A 
ATOM     18  N   UNL     1      49.315   5.649  17.326  0.00  0.00    +0.000 N 
ATOM     19  C   UNL     1      48.997   6.522  16.314  0.00  0.00    +0.000 A 
ATOM     20  O   UNL     1      48.872   6.130  15.164  0.00  0.00    +0.000 OA
ATOM     21  C   UNL     1      48.915   7.906  16.751  0.00  0.00    +0.000 A 
ATOM     22  H   UNL     1      49.402   4.680  17.059  0.00  0.00    +0.000 HD
ENDBRANCH   9  12
ENDBRANCH   7  10
ENDBRANCH   1   7
BRANCH   4  23
ATOM     23  C   UNL     1      43.181   3.909  11.848  0.00  0.00    +0.000 C 
BRANCH  23  24
ATOM     24  N   UNL     1      43.996   2.701  11.658  0.00  0.00    +0.000 NA
ATOM     25  H   UNL     1      43.393   1.915  11.425  0.00  0.00    +0.000 HD
BRANCH  24  26
ATOM     26  C   UNL     1      45.057   2.847  10.646  0.00  0.00    +0.000 C 
BRANCH  26  27
ATOM     27  C   UNL     1      44.494   2.691   9.212  0.00  0.00    +0.000 C 
ATOM     28  C   UNL     1      45.170   1.553   8.428  0.00  0.00    +0.000 C 
ATOM     29  C   UNL     1      46.552   1.937   7.905  0.00  0.00    +0.000 C 
ATOM     30  C   UNL     1      46.515   3.256   7.133  0.00  0.00    +0.000 C 
ATOM     31  N   UNL     1      45.910   4.333   7.922  0.00  0.00    +0.000 NA
ATOM     32  C   UNL     1      44.557   3.984   8.368  0.00  0.00    +0.000 C 
ATOM     33  H   UNL     1      45.867   5.174   7.344  0.00  0.00    +0.000 HD
ENDBRANCH  26  27
ENDBRANCH  24  26
ENDBRANCH  23  24
ENDBRANCH   4  23
TORSDOF 7
ENDMDL
MODEL 5
REMARK VINA RESULT:    -6.866      3.675      9.117
REMARK INTER + INTRA:         -10.993
REMARK INTER:                  -9.125
REMARK INTRA:                  -1.868
REMARK UNBOUND:                -1.318
REMARK  Name = 
REMARK  7 active torsions:
REMARK  status: ('A' for Active; 'I' for Inactive)
REMARK    1  A    between atoms: C_2  and  C_20
REMARK    2  A    between atoms: N_3  and  C_4
REMARK    3  A    between atoms: C_4  and  C_5
REMARK    4  A    between atoms: C_8  and  C_9
REMARK    5  A    between atoms: C_9  and  N_10
REMARK    6  A    between atoms: N_10  and  C_11
REMARK    7  A    between atoms: C_11  and  C_12
REMARK                            x       y       z     vdW  Elec       q    Type
REMARK                         _______ _______ _______ _____ _____    ______ ____
ROOT
ATOM      1  C   UNL     1      48.839   6.406  15.451  0.00  0.00    +0.000 A 
ATOM      2  C   UNL     1      50.051   6.727  16.052  0.00  0.00    +0.000 A 
ATOM      3  C   UNL     1      50.530   5.918  17.078  0.00  0.00    +0.000 A 
ATOM      4  C   UNL     1      49.791   4.812  17.507  0.00  0.00    +0.000 A 
ATOM      5  C   UNL     1      48.591   4.572  16.842  0.00  0.00    +0.000 A 
ATOM      6  N   UNL     1      48.095   5.339  15.839  0.00  0.00    +0.000 NA
ENDROOT
BRANCH   1   7
ATOM      7  C   UNL     1      48.336   7.240  14.298  0.00  0.00    +0.000 C 
BRANCH   7  10
ATOM      8  O   UNL     1      47.635   7.122  11.607  0.00  0.00    +0.000 OA
ATOM      9  C   UNL     1      46.805   6.760  12.458  0.00  0.00    +0.000 C 
ATOM     10  N   UNL     1      47.054   6.813  13.804  0.00  0.00    +0.000 N 
ATOM     11  H   UNL     1      46.518   6.210  14.419  0.00  0.00    +0.000 HD
BRANCH   9  12
ATOM     12  C   UNL     1      45.486   6.292  12.071  0.00  0.00    +0.000 A 
ATOM     13  C   UNL     1      44.523   7.131  11.532  0.00  0.00    +0.000 A 
ATOM     14  S   UNL     1      43.075   6.313  11.127  0.00  0.00    +0.000 S 
ATOM     15  C   UNL     1      43.702   4.822  11.658  0.00  0.00    +0.000 A 
ATOM     16  N   UNL     1      42.975   3.677  11.589  0.00  0.00    +0.000 NA
ATOM     17  C   UNL     1      43.590   2.624  12.014  0.00  0.00    +0.000 A 
ATOM     18  N   UNL     1      44.871   2.611  12.505  0.00  0.00    +0.000 N 
ATOM     19  C   UNL     1      45.636   3.743  12.650  0.00  0.00    +0.000 A 
ATOM     20  O   UNL     1      46.721   3.698  13.210  0.00  0.00    +0.000 OA
ATOM     21  C   UNL     1      44.987   4.945  12.154  0.00  0.00    +0.000 A 
ATOM     22  H   UNL     1      45.278   1.757  12.856  0.00  0.00    +0.000 HD
ENDBRANCH   9  12
ENDBRANCH   7  10
ENDBRANCH   1   7
BRANCH   4  23
ATOM     23  C   UNL     1      50.255   3.874  18.601  0.00  0.00    +0.000 C 
BRANCH  23  24
ATOM     24  N   UNL     1      50.156   4.479  19.937  0.00  0.00    +0.000 NA
ATOM     25  H   UNL     1      50.412   5.463  19.886  0.00  0.00    +0.000 HD
BRANCH  24  26
ATOM     26  C   UNL     1      48.833   4.328  20.566  0.00  0.00    +0.000 C 
BRANCH  26  27
ATOM     27  C   UNL     1      48.408   5.620  21.306  0.00  0.00    +0.000 C 
ATOM     28  C   UNL     1      47.184   6.296  20.668  0.00  0.00    +0.000 C 
ATOM     29  C   UNL     1      47.531   7.070  19.398  0.00  0.00    +0.000 C 
ATOM     30  C   UNL     1      48.695   8.033  19.628  0.00  0.00    +0.000 C 
ATOM     31  N   UNL     1      49.865   7.352  20.191  0.00  0.00    +0.000 NA
ATOM     32  C   UNL     1      49.539   6.665  21.445  0.00  0.00    +0.000 C 
ATOM     33  H   UNL     1      50.592   8.048  20.368  0.00  0.00    +0.000 HD
ENDBRANCH  26  27
ENDBRANCH  24  26
ENDBRANCH  23  24
ENDBRANCH   4  23
TORSDOF 7
ENDMDL
MODEL 6
REMARK VINA RESULT:    -6.840      2.803      8.442
REMARK INTER + INTRA:         -10.956
REMARK INTER:                  -9.380
REMARK INTRA:                  -1.577
REMARK UNBOUND:                -1.318
REMARK  Name = 
REMARK  7 active torsions:
REMARK  status: ('A' for Active; 'I' for Inactive)
REMARK    1  A    between atoms: C_2  and  C_20
REMARK    2  A    between atoms: N_3  and  C_4
REMARK    3  A    between atoms: C_4  and  C_5
REMARK    4  A    between atoms: C_8  and  C_9
REMARK    5  A    between atoms: C_9  and  N_10
REMARK    6  A    between atoms: N_10  and  C_11
REMARK    7  A    between atoms: C_11  and  C_12
REMARK                            x       y       z     vdW  Elec       q    Type
REMARK                         _______ _______ _______ _____ _____    ______ ____
ROOT
ATOM      1  C   UNL     1      48.282   7.744  13.661  0.00  0.00    +0.000 A 
ATOM      2  C   UNL     1      47.805   8.738  14.508  0.00  0.00    +0.000 A 
ATOM      3  C   UNL     1      48.352   8.859  15.782  0.00  0.00    +0.000 A 
ATOM      4  C   UNL     1      49.352   7.980  16.205  0.00  0.00    +0.000 A 
ATOM      5  C   UNL     1      49.765   7.019  15.285  0.00  0.00    +0.000 A 
ATOM      6  N   UNL     1      49.253   6.874  14.037  0.00  0.00    +0.000 NA
ENDROOT
BRANCH   1   7
ATOM      7  C   UNL     1      47.740   7.638  12.257  0.00  0.00    +0.000 C 
BRANCH   7  10
ATOM      8  O   UNL     1      44.965   7.426  12.283  0.00  0.00    +0.000 OA
ATOM      9  C   UNL     1      45.639   6.416  12.024  0.00  0.00    +0.000 C 
ATOM     10  N   UNL     1      47.009   6.421  12.019  0.00  0.00    +0.000 N 
ATOM     11  H   UNL     1      47.494   5.707  11.486  0.00  0.00    +0.000 HD
BRANCH   9  12
ATOM     12  C   UNL     1      45.006   5.138  11.751  0.00  0.00    +0.000 A 
ATOM     13  C   UNL     1      44.306   4.428  12.713  0.00  0.00    +0.000 A 
ATOM     14  S   UNL     1      43.627   2.977  12.113  0.00  0.00    +0.000 S 
ATOM     15  C   UNL     1      44.249   3.264  10.554  0.00  0.00    +0.000 A 
ATOM     16  N   UNL     1      44.031   2.401   9.529  0.00  0.00    +0.000 NA
ATOM     17  C   UNL     1      44.553   2.762   8.404  0.00  0.00    +0.000 A 
ATOM     18  N   UNL     1      45.276   3.912   8.209  0.00  0.00    +0.000 N 
ATOM     19  C   UNL     1      45.575   4.796   9.218  0.00  0.00    +0.000 A 
ATOM     20  O   UNL     1      46.328   5.738   9.022  0.00  0.00    +0.000 OA
ATOM     21  C   UNL     1      44.979   4.437  10.495  0.00  0.00    +0.000 A 
ATOM     22  H   UNL     1      45.687   4.114   7.311  0.00  0.00    +0.000 HD
ENDBRANCH   9  12
ENDBRANCH   7  10
ENDBRANCH   1   7
BRANCH   4  23
ATOM     23  C   UNL     1      50.010   8.060  17.567  0.00  0.00    +0.000 C 
BRANCH  23  24
ATOM     24  N   UNL     1      49.291   7.280  18.584  0.00  0.00    +0.000 NA
ATOM     25  H   UNL     1      48.298   7.257  18.358  0.00  0.00    +0.000 HD
BRANCH  24  26
ATOM     26  C   UNL     1      49.805   5.910  18.761  0.00  0.00    +0.000 C 
BRANCH  26  27
ATOM     27  C   UNL     1      48.660   4.911  19.056  0.00  0.00    +0.000 C 
ATOM     28  C   UNL     1      48.974   3.486  18.571  0.00  0.00    +0.000 C 
ATOM     29  C   UNL     1      48.802   3.324  17.063  0.00  0.00    +0.000 C 
ATOM     30  C   UNL     1      47.437   3.828  16.595  0.00  0.00    +0.000 C 
ATOM     31  N   UNL     1      47.186   5.205  17.029  0.00  0.00    +0.000 NA
ATOM     32  C   UNL     1      47.288   5.340  18.486  0.00  0.00    +0.000 C 
ATOM     33  H   UNL     1      46.246   5.473  16.733  0.00  0.00    +0.000 HD
ENDBRANCH  26  27
ENDBRANCH  24  26
ENDBRANCH  23  24
ENDBRANCH   4  23
TORSDOF 7
ENDMDL
MODEL 7
REMARK VINA RESULT:    -6.802      2.077      2.465
REMARK INTER + INTRA:         -10.903
REMARK INTER:                  -9.895
REMARK INTRA:                  -1.008
REMARK UNBOUND:                -1.318
REMARK  Name = 
REMARK  7 active torsions:
REMARK  status: ('A' for Active; 'I' for Inactive)
REMARK    1  A    between atoms: C_2  and  C_20
REMARK    2  A    between atoms: N_3  and  C_4
REMARK    3  A    between atoms: C_4  and  C_5
REMARK    4  A    between atoms: C_8  and  C_9
REMARK    5  A    between atoms: C_9  and  N_10
REMARK    6  A    between atoms: N_10  and  C_11
REMARK    7  A    between atoms: C_11  and  C_12
REMARK                            x       y       z     vdW  Elec       q    Type
REMARK                         _______ _______ _______ _____ _____    ______ ____
ROOT
ATOM      1  C   UNL     1      46.810   6.038  12.721  0.00  0.00    +0.000 A 
ATOM      2  C   UNL     1      46.560   6.509  11.437  0.00  0.00    +0.000 A 
ATOM      3  C   UNL     1      45.675   5.810  10.622  0.00  0.00    +0.000 A 
ATOM      4  C   UNL     1      45.064   4.642  11.085  0.00  0.00    +0.000 A 
ATOM      5  C   UNL     1      45.376   4.251  12.385  0.00  0.00    +0.000 A 
ATOM      6  N   UNL     1      46.234   4.909  13.205  0.00  0.00    +0.000 NA
ENDROOT
BRANCH   1   7
ATOM      7  C   UNL     1      47.722   6.817  13.636  0.00  0.00    +0.000 C 
BRANCH   7  10
ATOM      8  O   UNL     1      49.947   6.586  15.292  0.00  0.00    +0.000 OA
ATOM      9  C   UNL     1      48.827   6.305  15.752  0.00  0.00    +0.000 C 
ATOM     10  N   UNL     1      47.683   6.361  15.001  0.00  0.00    +0.000 N 
ATOM     11  H   UNL     1      46.794   6.463  15.479  0.00  0.00    +0.000 HD
BRANCH   9  12
ATOM     12  C   UNL     1      48.668   5.852  17.123  0.00  0.00    +0.000 A 
ATOM     13  C   UNL     1      48.877   4.537  17.505  0.00  0.00    +0.000 A 
ATOM     14  S   UNL     1      48.662   4.286  19.184  0.00  0.00    +0.000 S 
ATOM     15  C   UNL     1      48.289   5.927  19.439  0.00  0.00    +0.000 A 
ATOM     16  N   UNL     1      48.003   6.409  20.676  0.00  0.00    +0.000 NA
ATOM     17  C   UNL     1      47.756   7.676  20.713  0.00  0.00    +0.000 A 
ATOM     18  N   UNL     1      47.770   8.509  19.622  0.00  0.00    +0.000 N 
ATOM     19  C   UNL     1      47.998   8.072  18.340  0.00  0.00    +0.000 A 
ATOM     20  O   UNL     1      47.874   8.827  17.389  0.00  0.00    +0.000 OA
ATOM     21  C   UNL     1      48.309   6.653  18.262  0.00  0.00    +0.000 A 
ATOM     22  H   UNL     1      47.530   9.484  19.718  0.00  0.00    +0.000 HD
ENDBRANCH   9  12
ENDBRANCH   7  10
ENDBRANCH   1   7
BRANCH   4  23
ATOM     23  C   UNL     1      44.075   3.838  10.266  0.00  0.00    +0.000 C 
BRANCH  23  24
ATOM     24  N   UNL     1      44.080   4.221   8.848  0.00  0.00    +0.000 NA
ATOM     25  H   UNL     1      44.581   5.100   8.732  0.00  0.00    +0.000 HD
BRANCH  24  26
ATOM     26  C   UNL     1      44.640   3.194   7.952  0.00  0.00    +0.000 C 
BRANCH  26  27
ATOM     27  C   UNL     1      46.168   3.046   8.148  0.00  0.00    +0.000 C 
ATOM     28  C   UNL     1      46.979   3.974   7.228  0.00  0.00    +0.000 C 
ATOM     29  C   UNL     1      47.056   3.462   5.792  0.00  0.00    +0.000 C 
ATOM     30  C   UNL     1      47.525   2.008   5.738  0.00  0.00    +0.000 C 
ATOM     31  N   UNL     1      46.704   1.138   6.586  0.00  0.00    +0.000 NA
ATOM     32  C   UNL     1      46.687   1.599   7.978  0.00  0.00    +0.000 C 
ATOM     33  H   UNL     1      47.089   0.192   6.551  0.00  0.00    +0.000 HD
ENDBRANCH  26  27
ENDBRANCH  24  26
ENDBRANCH  23  24
ENDBRANCH   4  23
TORSDOF 7
ENDMDL
MODEL 8
REMARK VINA RESULT:    -6.784      4.050      9.757
REMARK INTER + INTRA:         -10.878
REMARK INTER:                  -9.226
REMARK INTRA:                  -1.652
REMARK UNBOUND:                -1.318
REMARK  Name = 
REMARK  7 active torsions:
REMARK  status: ('A' for Active; 'I' for Inactive)
REMARK    1  A    between atoms: C_2  and  C_20
REMARK    2  A    between atoms: N_3  and  C_4
REMARK    3  A    between atoms: C_4  and  C_5
REMARK    4  A    between atoms: C_8  and  C_9
REMARK    5  A    between atoms: C_9  and  N_10
REMARK    6  A    between atoms: N_10  and  C_11
REMARK    7  A    between atoms: C_11  and  C_12
REMARK                            x       y       z     vdW  Elec       q    Type
REMARK                         _______ _______ _______ _____ _____    ______ ____
ROOT
ATOM      1  C   UNL     1      48.765   3.844  16.835  0.00  0.00    +0.000 A 
ATOM      2  C   UNL     1      49.521   2.802  17.360  0.00  0.00    +0.000 A 
ATOM      3  C   UNL     1      50.833   3.050  17.751  0.00  0.00    +0.000 A 
ATOM      4  C   UNL     1      51.385   4.325  17.599  0.00  0.00    +0.000 A 
ATOM      5  C   UNL     1      50.548   5.303  17.066  0.00  0.00    +0.000 A 
ATOM      6  N   UNL     1      49.266   5.095  16.675  0.00  0.00    +0.000 NA
ENDROOT
BRANCH   1   7
ATOM      7  C   UNL     1      47.323   3.604  16.462  0.00  0.00    +0.000 C 
BRANCH   7  10
ATOM      8  O   UNL     1      47.001   3.213  13.725  0.00  0.00    +0.000 OA
ATOM      9  C   UNL     1      46.651   4.297  14.220  0.00  0.00    +0.000 C 
ATOM     10  N   UNL     1      46.800   4.587  15.550  0.00  0.00    +0.000 N 
ATOM     11  H   UNL     1      46.211   5.304  15.959  0.00  0.00    +0.000 HD
BRANCH   9  12
ATOM     12  C   UNL     1      46.093   5.355  13.396  0.00  0.00    +0.000 A 
ATOM     13  C   UNL     1      46.800   6.502  13.071  0.00  0.00    +0.000 A 
ATOM     14  S   UNL     1      45.923   7.563  12.055  0.00  0.00    +0.000 S 
ATOM     15  C   UNL     1      44.582   6.515  12.022  0.00  0.00    +0.000 A 
ATOM     16  N   UNL     1      43.460   6.813  11.317  0.00  0.00    +0.000 NA
ATOM     17  C   UNL     1      42.535   5.914  11.376  0.00  0.00    +0.000 A 
ATOM     18  N   UNL     1      42.629   4.738  12.078  0.00  0.00    +0.000 N 
ATOM     19  C   UNL     1      43.714   4.406  12.853  0.00  0.00    +0.000 A 
ATOM     20  O   UNL     1      43.697   3.410  13.560  0.00  0.00    +0.000 OA
ATOM     21  C   UNL     1      44.789   5.382  12.788  0.00  0.00    +0.000 A 
ATOM     22  H   UNL     1      41.852   4.096  12.111  0.00  0.00    +0.000 HD
ENDBRANCH   9  12
ENDBRANCH   7  10
ENDBRANCH   1   7
BRANCH   4  23
ATOM     23  C   UNL     1      52.796   4.678  18.019  0.00  0.00    +0.000 C 
BRANCH  23  24
ATOM     24  N   UNL     1      52.829   5.506  19.232  0.00  0.00    +0.000 NA
ATOM     25  H   UNL     1      52.152   6.262  19.149  0.00  0.00    +0.000 HD
BRANCH  24  26
ATOM     26  C   UNL     1      52.600   4.753  20.478  0.00  0.00    +0.000 C 
BRANCH  26  27
ATOM     27  C   UNL     1      51.747   5.566  21.481  0.00  0.00    +0.000 C 
ATOM     28  C   UNL     1      50.381   4.919  21.762  0.00  0.00    +0.000 C 
ATOM     29  C   UNL     1      49.376   5.149  20.636  0.00  0.00    +0.000 C 
ATOM     30  C   UNL     1      49.273   6.628  20.267  0.00  0.00    +0.000 C 
ATOM     31  N   UNL     1      50.584   7.206  19.957  0.00  0.00    +0.000 NA
ATOM     32  C   UNL     1      51.526   7.040  21.069  0.00  0.00    +0.000 C 
ATOM     33  H   UNL     1      50.464   8.202  19.766  0.00  0.00    +0.000 HD
ENDBRANCH  26  27
ENDBRANCH  24  26
ENDBRANCH  23  24
ENDBRANCH   4  23
TORSDOF 7
ENDMDL
MODEL 9
REMARK VINA RESULT:    -6.650      3.262      5.281
REMARK INTER + INTRA:         -10.689
REMARK INTER:                  -9.475
REMARK INTRA:                  -1.214
REMARK UNBOUND:                -1.318
REMARK  Name = 
REMARK  7 active torsions:
REMARK  status: ('A' for Active; 'I' for Inactive)
REMARK    1  A    between atoms: C_2  and  C_20
REMARK    2  A    between atoms: N_3  and  C_4
REMARK    3  A    between atoms: C_4  and  C_5
REMARK    4  A    between atoms: C_8  and  C_9
REMARK    5  A    between atoms: C_9  and  N_10
REMARK    6  A    between atoms: N_10  and  C_11
REMARK    7  A    between atoms: C_11  and  C_12
REMARK                            x       y       z     vdW  Elec       q    Type
REMARK                         _______ _______ _______ _____ _____    ______ ____
ROOT
ATOM      1  C   UNL     1      48.072   5.290  15.612  0.00  0.00    +0.000 A 
ATOM      2  C   UNL     1      48.645   6.491  15.206  0.00  0.00    +0.000 A 
ATOM      3  C   UNL     1      48.332   6.998  13.949  0.00  0.00    +0.000 A 
ATOM      4  C   UNL     1      47.469   6.297  13.102  0.00  0.00    +0.000 A 
ATOM      5  C   UNL     1      46.944   5.106  13.598  0.00  0.00    +0.000 A 
ATOM      6  N   UNL     1      47.228   4.584  14.818  0.00  0.00    +0.000 NA
ENDROOT
BRANCH   1   7
ATOM      7  C   UNL     1      48.356   4.759  16.995  0.00  0.00    +0.000 C 
BRANCH   7  10
ATOM      8  O   UNL     1      49.657   4.681  19.454  0.00  0.00    +0.000 OA
ATOM      9  C   UNL     1      50.279   4.333  18.437  0.00  0.00    +0.000 C 
ATOM     10  N   UNL     1      49.728   4.368  17.183  0.00  0.00    +0.000 N 
ATOM     11  H   UNL     1      50.125   3.774  16.463  0.00  0.00    +0.000 HD
BRANCH   9  12
ATOM     12  C   UNL     1      51.665   3.903  18.512  0.00  0.00    +0.000 A 
ATOM     13  C   UNL     1      52.661   4.683  19.076  0.00  0.00    +0.000 A 
ATOM     14  S   UNL     1      54.192   3.918  19.072  0.00  0.00    +0.000 S 
ATOM     15  C   UNL     1      53.559   2.528  18.321  0.00  0.00    +0.000 A 
ATOM     16  N   UNL     1      54.341   1.458  18.027  0.00  0.00    +0.000 NA
ATOM     17  C   UNL     1      53.716   0.473  17.473  0.00  0.00    +0.000 A 
ATOM     18  N   UNL     1      52.374   0.460  17.185  0.00  0.00    +0.000 N 
ATOM     19  C   UNL     1      51.543   1.531  17.409  0.00  0.00    +0.000 A 
ATOM     20  O   UNL     1      50.385   1.518  17.019  0.00  0.00    +0.000 OA
ATOM     21  C   UNL     1      52.206   2.649  18.059  0.00  0.00    +0.000 A 
ATOM     22  H   UNL     1      51.957  -0.330  16.717  0.00  0.00    +0.000 HD
ENDBRANCH   9  12
ENDBRANCH   7  10
ENDBRANCH   1   7
BRANCH   4  23
ATOM     23  C   UNL     1      47.065   6.793  11.729  0.00  0.00    +0.000 C 
BRANCH  23  24
ATOM     24  N   UNL     1      45.946   6.026  11.164  0.00  0.00    +0.000 NA
ATOM     25  H   UNL     1      45.942   5.087  11.558  0.00  0.00    +0.000 HD
BRANCH  24  26
ATOM     26  C   UNL     1      44.630   6.662  11.350  0.00  0.00    +0.000 C 
BRANCH  26  27
ATOM     27  C   UNL     1      43.478   5.692  10.994  0.00  0.00    +0.000 C 
ATOM     28  C   UNL     1      42.625   5.308  12.214  0.00  0.00    +0.000 C 
ATOM     29  C   UNL     1      43.301   4.268  13.104  0.00  0.00    +0.000 C 
ATOM     30  C   UNL     1      43.771   3.058  12.297  0.00  0.00    +0.000 C 
ATOM     31  N   UNL     1      44.622   3.450  11.170  0.00  0.00    +0.000 NA
ATOM     32  C   UNL     1      43.942   4.400  10.283  0.00  0.00    +0.000 C 
ATOM     33  H   UNL     1      44.866   2.612  10.640  0.00  0.00    +0.000 HD
ENDBRANCH  26  27
ENDBRANCH  24  26
ENDBRANCH  23  24
ENDBRANCH   4  23
TORSDOF 7
ENDMDL
