MODEL 1
REMARK VINA RESULT:    -8.118      0.000      0.000
REMARK INTER + INTRA:         -10.819
REMARK INTER:                 -10.016
REMARK INTRA:                  -0.803
REMARK UNBOUND:                -0.803
REMARK  Name = 
REMARK  4 active torsions:
REMARK  status: ('A' for Active; 'I' for Inactive)
REMARK    1  A    between atoms: C_4  and  C_5
REMARK    2  A    between atoms: C_9  and  C_10
REMARK    3  A    between atoms: C_10  and  C_11
REMARK    4  A    between atoms: C_11  and  C_12
REMARK                            x       y       z     vdW  Elec       q    Type
REMARK                         _______ _______ _______ _____ _____    ______ ____
ROOT
ATOM      1  C   UNL     1      44.903   3.249   9.466  0.00  0.00    +0.000 A 
ATOM      2  C   UNL     1      44.047   2.418  10.187  0.00  0.00    +0.000 A 
ATOM      3  N   UNL     1      43.274   2.810  11.231  0.00  0.00    +0.000 NA
ATOM      4  C   UNL     1      43.353   4.107  11.594  0.00  0.00    +0.000 A 
ATOM      5  C   UNL     1      44.155   5.047  10.958  0.00  0.00    +0.000 A 
ATOM      6  C   UNL     1      44.937   4.587   9.890  0.00  0.00    +0.000 A 
ENDROOT
BRANCH   1  10
ATOM      7  C   UNL     1      47.355   1.887   6.189  0.00  0.00    +0.000 A 
ATOM      8  C   UNL     1      46.866   3.189   6.201  0.00  0.00    +0.000 A 
ATOM      9  C   UNL     1      46.063   3.630   7.258  0.00  0.00    +0.000 A 
ATOM     10  C   UNL     1      45.718   2.778   8.324  0.00  0.00    +0.000 A 
ATOM     11  C   UNL     1      46.209   1.457   8.270  0.00  0.00    +0.000 A 
ATOM     12  C   UNL     1      47.027   1.019   7.223  0.00  0.00    +0.000 A 
ENDBRANCH   1  10
BRANCH   5  13
ATOM     13  C   UNL     1      44.209   6.468  11.463  0.00  0.00    +0.000 C 
BRANCH  13  14
ATOM     14  C   UNL     1      44.893   6.639  12.827  0.00  0.00    +0.000 C 
BRANCH  14  15
ATOM     15  C   UNL     1      46.385   6.781  12.705  0.00  0.00    +0.000 A 
ATOM     16  C   UNL     1      46.960   7.872  12.053  0.00  0.00    +0.000 A 
ATOM     17  C   UNL     1      48.346   7.961  11.959  0.00  0.00    +0.000 A 
ATOM     18  C   UNL     1      49.109   6.956  12.528  0.00  0.00    +0.000 A 
ATOM     19  N   UNL     1      48.589   5.890  13.173  0.00  0.00    +0.000 NA
ATOM     20  C   UNL     1      47.241   5.828  13.247  0.00  0.00    +0.000 A 
ENDBRANCH  14  15
ENDBRANCH  13  14
ENDBRANCH   5  13
TORSDOF 4
ENDMDL
MODEL 2
REMARK VINA RESULT:    -7.963      1.918      6.402
REMARK INTER + INTRA:         -10.628
REMARK INTER:                  -9.944
REMARK INTRA:                  -0.684
REMARK UNBOUND:                -0.803
REMARK  Name = 
REMARK  4 active torsions:
REMARK  status: ('A' for Active; 'I' for Inactive)
REMARK    1  A    between atoms: C_4  and  C_5
REMARK    2  A    between atoms: C_9  and  C_10
REMARK    3  A    between atoms: C_10  and  C_11
REMARK    4  A    between atoms: C_11  and  C_12
REMARK                            x       y       z     vdW  Elec       q    Type
REMARK                         _______ _______ _______ _____ _____    ______ ____
ROOT
ATOM      1  C   UNL     1      45.742   5.812  12.057  0.00  0.00    +0.000 A 
ATOM      2  C   UNL     1      45.356   5.105  13.196  0.00  0.00    +0.000 A 
ATOM      3  N   UNL     1      44.714   3.910  13.193  0.00  0.00    +0.000 NA
ATOM      4  C   UNL     1      44.429   3.375  11.988  0.00  0.00    +0.000 A 
ATOM      5  C   UNL     1      44.765   3.963  10.774  0.00  0.00    +0.000 A 
ATOM      6  C   UNL     1      45.420   5.200  10.835  0.00  0.00    +0.000 A 
ENDROOT
BRANCH   1  10
ATOM      7  C   UNL     1      47.779   9.614  12.131  0.00  0.00    +0.000 A 
ATOM      8  C   UNL     1      48.475   8.455  11.805  0.00  0.00    +0.000 A 
ATOM      9  C   UNL     1      47.819   7.219  11.790  0.00  0.00    +0.000 A 
ATOM     10  C   UNL     1      46.453   7.109  12.111  0.00  0.00    +0.000 A 
ATOM     11  C   UNL     1      45.781   8.299  12.461  0.00  0.00    +0.000 A 
ATOM     12  C   UNL     1      46.431   9.537  12.459  0.00  0.00    +0.000 A 
ENDBRANCH   1  10
BRANCH   5  13
ATOM     13  C   UNL     1      44.365   3.309   9.475  0.00  0.00    +0.000 C 
BRANCH  13  14
ATOM     14  C   UNL     1      45.112   2.005   9.156  0.00  0.00    +0.000 C 
BRANCH  14  15
ATOM     15  C   UNL     1      46.031   2.146   7.976  0.00  0.00    +0.000 A 
ATOM     16  C   UNL     1      46.021   3.291   7.179  0.00  0.00    +0.000 A 
ATOM     17  C   UNL     1      46.887   3.378   6.092  0.00  0.00    +0.000 A 
ATOM     18  C   UNL     1      47.739   2.315   5.846  0.00  0.00    +0.000 A 
ATOM     19  N   UNL     1      47.784   1.196   6.598  0.00  0.00    +0.000 NA
ATOM     20  C   UNL     1      46.932   1.137   7.645  0.00  0.00    +0.000 A 
ENDBRANCH  14  15
ENDBRANCH  13  14
ENDBRANCH   5  13
TORSDOF 4
ENDMDL
MODEL 3
REMARK VINA RESULT:    -7.790      1.084      1.339
REMARK INTER + INTRA:         -10.415
REMARK INTER:                  -9.697
REMARK INTRA:                  -0.718
REMARK UNBOUND:                -0.803
REMARK  Name = 
REMARK  4 active torsions:
REMARK  status: ('A' for Active; 'I' for Inactive)
REMARK    1  A    between atoms: C_4  and  C_5
REMARK    2  A    between atoms: C_9  and  C_10
REMARK    3  A    between atoms: C_10  and  C_11
REMARK    4  A    between atoms: C_11  and  C_12
REMARK                            x       y       z     vdW  Elec       q    Type
REMARK                         _______ _______ _______ _____ _____    ______ ____
ROOT
ATOM      1  C   UNL     1      44.876   3.291   9.487  0.00  0.00    +0.000 A 
ATOM      2  C   UNL     1      44.026   2.459  10.216  0.00  0.00    +0.000 A 
ATOM      3  N   UNL     1      43.251   2.854  11.257  0.00  0.00    +0.000 NA
ATOM      4  C   UNL     1      43.319   4.156  11.608  0.00  0.00    +0.000 A 
ATOM      5  C   UNL     1      44.114   5.096  10.963  0.00  0.00    +0.000 A 
ATOM      6  C   UNL     1      44.899   4.633   9.899  0.00  0.00    +0.000 A 
ENDROOT
BRANCH   1  10
ATOM      7  C   UNL     1      47.336   1.917   6.221  0.00  0.00    +0.000 A 
ATOM      8  C   UNL     1      46.842   3.217   6.225  0.00  0.00    +0.000 A 
ATOM      9  C   UNL     1      46.036   3.662   7.278  0.00  0.00    +0.000 A 
ATOM     10  C   UNL     1      45.694   2.815   8.349  0.00  0.00    +0.000 A 
ATOM     11  C   UNL     1      46.190   1.496   8.304  0.00  0.00    +0.000 A 
ATOM     12  C   UNL     1      47.011   1.055   7.261  0.00  0.00    +0.000 A 
ENDBRANCH   1  10
BRANCH   5  13
ATOM     13  C   UNL     1      44.157   6.522  11.455  0.00  0.00    +0.000 C 
BRANCH  13  14
ATOM     14  C   UNL     1      45.038   6.748  12.692  0.00  0.00    +0.000 C 
BRANCH  14  15
ATOM     15  C   UNL     1      46.267   7.555  12.380  0.00  0.00    +0.000 A 
ATOM     16  C   UNL     1      47.438   6.949  11.928  0.00  0.00    +0.000 A 
ATOM     17  C   UNL     1      48.556   7.733  11.655  0.00  0.00    +0.000 A 
ATOM     18  C   UNL     1      48.457   9.102  11.838  0.00  0.00    +0.000 A 
ATOM     19  N   UNL     1      47.339   9.725  12.266  0.00  0.00    +0.000 NA
ATOM     20  C   UNL     1      46.271   8.939  12.525  0.00  0.00    +0.000 A 
ENDBRANCH  14  15
ENDBRANCH  13  14
ENDBRANCH   5  13
TORSDOF 4
ENDMDL
MODEL 4
REMARK VINA RESULT:    -6.684      2.664      3.211
REMARK INTER + INTRA:          -9.051
REMARK INTER:                  -8.458
REMARK INTRA:                  -0.593
REMARK UNBOUND:                -0.803
REMARK  Name = 
REMARK  4 active torsions:
REMARK  status: ('A' for Active; 'I' for Inactive)
REMARK    1  A    between atoms: C_4  and  C_5
REMARK    2  A    between atoms: C_9  and  C_10
REMARK    3  A    between atoms: C_10  and  C_11
REMARK    4  A    between atoms: C_11  and  C_12
REMARK                            x       y       z     vdW  Elec       q    Type
REMARK                         _______ _______ _______ _____ _____    ______ ____
ROOT
ATOM      1  C   UNL     1      45.107   4.301   9.467  0.00  0.00    +0.000 A 
ATOM      2  C   UNL     1      43.755   4.258   9.807  0.00  0.00    +0.000 A 
ATOM      3  N   UNL     1      43.143   5.095  10.683  0.00  0.00    +0.000 NA
ATOM      4  C   UNL     1      43.915   6.035  11.266  0.00  0.00    +0.000 A 
ATOM      5  C   UNL     1      45.271   6.199  11.012  0.00  0.00    +0.000 A 
ATOM      6  C   UNL     1      45.853   5.304  10.106  0.00  0.00    +0.000 A 
ENDROOT
BRANCH   1  10
ATOM      7  C   UNL     1      46.991   1.594   6.687  0.00  0.00    +0.000 A 
ATOM      8  C   UNL     1      46.948   2.957   6.414  0.00  0.00    +0.000 A 
ATOM      9  C   UNL     1      46.329   3.836   7.310  0.00  0.00    +0.000 A 
ATOM     10  C   UNL     1      45.728   3.373   8.495  0.00  0.00    +0.000 A 
ATOM     11  C   UNL     1      45.767   1.983   8.731  0.00  0.00    +0.000 A 
ATOM     12  C   UNL     1      46.401   1.106   7.846  0.00  0.00    +0.000 A 
ENDBRANCH   1  10
BRANCH   5  13
ATOM     13  C   UNL     1      46.062   7.254  11.748  0.00  0.00    +0.000 C 
BRANCH  13  14
ATOM     14  C   UNL     1      45.210   8.285  12.502  0.00  0.00    +0.000 C 
BRANCH  14  15
ATOM     15  C   UNL     1      45.060   9.572  11.740  0.00  0.00    +0.000 A 
ATOM     16  C   UNL     1      46.030  10.571  11.804  0.00  0.00    +0.000 A 
ATOM     17  C   UNL     1      45.849  11.750  11.085  0.00  0.00    +0.000 A 
ATOM     18  C   UNL     1      44.703  11.883  10.320  0.00  0.00    +0.000 A 
ATOM     19  N   UNL     1      43.746  10.935  10.227  0.00  0.00    +0.000 NA
ATOM     20  C   UNL     1      43.947   9.803  10.937  0.00  0.00    +0.000 A 
ENDBRANCH  14  15
ENDBRANCH  13  14
ENDBRANCH   5  13
TORSDOF 4
ENDMDL
MODEL 5
REMARK VINA RESULT:    -5.843      2.760      4.856
REMARK INTER + INTRA:          -8.012
REMARK INTER:                  -7.300
REMARK INTRA:                  -0.713
REMARK UNBOUND:                -0.803
REMARK  Name = 
REMARK  4 active torsions:
REMARK  status: ('A' for Active; 'I' for Inactive)
REMARK    1  A    between atoms: C_4  and  C_5
REMARK    2  A    between atoms: C_9  and  C_10
REMARK    3  A    between atoms: C_10  and  C_11
REMARK    4  A    between atoms: C_11  and  C_12
REMARK                            x       y       z     vdW  Elec       q    Type
REMARK                         _______ _______ _______ _____ _____    ______ ____
ROOT
ATOM      1  C   UNL     1      45.834   6.084  11.707  0.00  0.00    +0.000 A 
ATOM      2  C   UNL     1      45.168   7.303  11.841  0.00  0.00    +0.000 A 
ATOM      3  N   UNL     1      45.574   8.332  12.626  0.00  0.00    +0.000 NA
ATOM      4  C   UNL     1      46.711   8.150  13.329  0.00  0.00    +0.000 A 
ATOM      5  C   UNL     1      47.480   6.993  13.282  0.00  0.00    +0.000 A 
ATOM      6  C   UNL     1      47.011   5.960  12.462  0.00  0.00    +0.000 A 
ENDROOT
BRANCH   1  10
ATOM      7  C   UNL     1      44.370   2.954   9.125  0.00  0.00    +0.000 A 
ATOM      8  C   UNL     1      44.235   2.842  10.505  0.00  0.00    +0.000 A 
ATOM      9  C   UNL     1      44.718   3.851  11.345  0.00  0.00    +0.000 A 
ATOM     10  C   UNL     1      45.357   4.993  10.827  0.00  0.00    +0.000 A 
ATOM     11  C   UNL     1      45.500   5.066   9.426  0.00  0.00    +0.000 A 
ATOM     12  C   UNL     1      45.002   4.067   8.584  0.00  0.00    +0.000 A 
ENDBRANCH   1  10
BRANCH   5  13
ATOM     13  C   UNL     1      48.715   6.866  14.140  0.00  0.00    +0.000 C 
BRANCH  13  14
ATOM     14  C   UNL     1      48.454   6.906  15.652  0.00  0.00    +0.000 C 
BRANCH  14  15
ATOM     15  C   UNL     1      48.525   5.543  16.282  0.00  0.00    +0.000 A 
ATOM     16  C   UNL     1      47.590   4.554  15.980  0.00  0.00    +0.000 A 
ATOM     17  C   UNL     1      47.690   3.306  16.590  0.00  0.00    +0.000 A 
ATOM     18  C   UNL     1      48.730   3.092  17.478  0.00  0.00    +0.000 A 
ATOM     19  N   UNL     1      49.658   4.021  17.790  0.00  0.00    +0.000 NA
ATOM     20  C   UNL     1      49.535   5.223  17.185  0.00  0.00    +0.000 A 
ENDBRANCH  14  15
ENDBRANCH  13  14
ENDBRANCH   5  13
TORSDOF 4
ENDMDL
MODEL 6
REMARK VINA RESULT:    -5.818      3.352      5.935
REMARK INTER + INTRA:          -7.982
REMARK INTER:                  -7.214
REMARK INTRA:                  -0.768
REMARK UNBOUND:                -0.803
REMARK  Name = 
REMARK  4 active torsions:
REMARK  status: ('A' for Active; 'I' for Inactive)
REMARK    1  A    between atoms: C_4  and  C_5
REMARK    2  A    between atoms: C_9  and  C_10
REMARK    3  A    between atoms: C_10  and  C_11
REMARK    4  A    between atoms: C_11  and  C_12
REMARK                            x       y       z     vdW  Elec       q    Type
REMARK                         _______ _______ _______ _____ _____    ______ ____
ROOT
ATOM      1  C   UNL     1      46.879   6.037  12.592  0.00  0.00    +0.000 A 
ATOM      2  C   UNL     1      47.463   7.113  11.923  0.00  0.00    +0.000 A 
ATOM      3  N   UNL     1      48.414   7.930  12.441  0.00  0.00    +0.000 NA
ATOM      4  C   UNL     1      48.815   7.675  13.703  0.00  0.00    +0.000 A 
ATOM      5  C   UNL     1      48.327   6.631  14.481  0.00  0.00    +0.000 A 
ATOM      6  C   UNL     1      47.342   5.822  13.900  0.00  0.00    +0.000 A 
ENDROOT
BRANCH   1  10
ATOM      7  C   UNL     1      43.823   3.557  10.826  0.00  0.00    +0.000 A 
ATOM      8  C   UNL     1      44.268   3.303  12.119  0.00  0.00    +0.000 A 
ATOM      9  C   UNL     1      45.266   4.100  12.691  0.00  0.00    +0.000 A 
ATOM     10  C   UNL     1      45.852   5.164  11.980  0.00  0.00    +0.000 A 
ATOM     11  C   UNL     1      45.397   5.381  10.663  0.00  0.00    +0.000 A 
ATOM     12  C   UNL     1      44.386   4.596  10.097  0.00  0.00    +0.000 A 
ENDBRANCH   1  10
BRANCH   5  13
ATOM     13  C   UNL     1      48.806   6.451  15.900  0.00  0.00    +0.000 C 
BRANCH  13  14
ATOM     14  C   UNL     1      48.111   5.321  16.674  0.00  0.00    +0.000 C 
BRANCH  14  15
ATOM     15  C   UNL     1      48.981   4.103  16.813  0.00  0.00    +0.000 A 
ATOM     16  C   UNL     1      50.182   4.145  17.519  0.00  0.00    +0.000 A 
ATOM     17  C   UNL     1      50.960   2.994  17.620  0.00  0.00    +0.000 A 
ATOM     18  C   UNL     1      50.501   1.838  17.012  0.00  0.00    +0.000 A 
ATOM     19  N   UNL     1      49.341   1.756  16.328  0.00  0.00    +0.000 NA
ATOM     20  C   UNL     1      48.608   2.888  16.245  0.00  0.00    +0.000 A 
ENDBRANCH  14  15
ENDBRANCH  13  14
ENDBRANCH   5  13
TORSDOF 4
ENDMDL
MODEL 7
REMARK VINA RESULT:    -5.709      3.758      5.812
REMARK INTER + INTRA:          -7.847
REMARK INTER:                  -7.206
REMARK INTRA:                  -0.641
REMARK UNBOUND:                -0.803
REMARK  Name = 
REMARK  4 active torsions:
REMARK  status: ('A' for Active; 'I' for Inactive)
REMARK    1  A    between atoms: C_4  and  C_5
REMARK    2  A    between atoms: C_9  and  C_10
REMARK    3  A    between atoms: C_10  and  C_11
REMARK    4  A    between atoms: C_11  and  C_12
REMARK                            x       y       z     vdW  Elec       q    Type
REMARK                         _______ _______ _______ _____ _____    ______ ____
ROOT
ATOM      1  C   UNL     1      45.527   6.438  11.469  0.00  0.00    +0.000 A 
ATOM      2  C   UNL     1      46.528   6.430  12.441  0.00  0.00    +0.000 A 
ATOM      3  N   UNL     1      46.881   7.493  13.206  0.00  0.00    +0.000 NA
ATOM      4  C   UNL     1      46.207   8.643  12.999  0.00  0.00    +0.000 A 
ATOM      5  C   UNL     1      45.181   8.790  12.073  0.00  0.00    +0.000 A 
ATOM      6  C   UNL     1      44.862   7.663  11.305  0.00  0.00    +0.000 A 
ENDROOT
BRANCH   1  10
ATOM      7  C   UNL     1      44.551   2.921   9.170  0.00  0.00    +0.000 A 
ATOM      8  C   UNL     1      45.282   3.953   8.591  0.00  0.00    +0.000 A 
ATOM      9  C   UNL     1      45.591   5.099   9.332  0.00  0.00    +0.000 A 
ATOM     10  C   UNL     1      45.169   5.247  10.666  0.00  0.00    +0.000 A 
ATOM     11  C   UNL     1      44.409   4.194  11.217  0.00  0.00    +0.000 A 
ATOM     12  C   UNL     1      44.114   3.040  10.484  0.00  0.00    +0.000 A 
ENDBRANCH   1  10
BRANCH   5  13
ATOM     13  C   UNL     1      44.514  10.130  11.882  0.00  0.00    +0.000 C 
BRANCH  13  14
ATOM     14  C   UNL     1      44.156  10.468  10.428  0.00  0.00    +0.000 C 
BRANCH  14  15
ATOM     15  C   UNL     1      42.700  10.803  10.259  0.00  0.00    +0.000 A 
ATOM     16  C   UNL     1      42.290  11.906   9.513  0.00  0.00    +0.000 A 
ATOM     17  C   UNL     1      40.931  12.183   9.386  0.00  0.00    +0.000 A 
ATOM     18  C   UNL     1      40.029  11.336  10.009  0.00  0.00    +0.000 A 
ATOM     19  N   UNL     1      40.387  10.255  10.732  0.00  0.00    +0.000 NA
ATOM     20  C   UNL     1      41.712  10.012  10.840  0.00  0.00    +0.000 A 
ENDBRANCH  14  15
ENDBRANCH  13  14
ENDBRANCH   5  13
TORSDOF 4
ENDMDL
MODEL 8
REMARK VINA RESULT:    -5.704      4.218      6.351
REMARK INTER + INTRA:          -7.841
REMARK INTER:                  -7.276
REMARK INTRA:                  -0.565
REMARK UNBOUND:                -0.803
REMARK  Name = 
REMARK  4 active torsions:
REMARK  status: ('A' for Active; 'I' for Inactive)
REMARK    1  A    between atoms: C_4  and  C_5
REMARK    2  A    between atoms: C_9  and  C_10
REMARK    3  A    between atoms: C_10  and  C_11
REMARK    4  A    between atoms: C_11  and  C_12
REMARK                            x       y       z     vdW  Elec       q    Type
REMARK                         _______ _______ _______ _____ _____    ______ ____
ROOT
ATOM      1  C   UNL     1      46.780   5.120  13.554  0.00  0.00    +0.000 A 
ATOM      2  C   UNL     1      47.678   6.185  13.518  0.00  0.00    +0.000 A 
ATOM      3  N   UNL     1      48.516   6.535  14.526  0.00  0.00    +0.000 NA
ATOM      4  C   UNL     1      48.464   5.787  15.648  0.00  0.00    +0.000 A 
ATOM      5  C   UNL     1      47.626   4.691  15.817  0.00  0.00    +0.000 A 
ATOM      6  C   UNL     1      46.777   4.379  14.748  0.00  0.00    +0.000 A 
ENDROOT
BRANCH   1  10
ATOM      7  C   UNL     1      44.261   4.044  10.222  0.00  0.00    +0.000 A 
ATOM      8  C   UNL     1      44.924   5.267  10.230  0.00  0.00    +0.000 A 
ATOM      9  C   UNL     1      45.734   5.622  11.314  0.00  0.00    +0.000 A 
ATOM     10  C   UNL     1      45.892   4.769  12.423  0.00  0.00    +0.000 A 
ATOM     11  C   UNL     1      45.188   3.548  12.395  0.00  0.00    +0.000 A 
ATOM     12  C   UNL     1      44.392   3.184  11.304  0.00  0.00    +0.000 A 
ENDBRANCH   1  10
BRANCH   5  13
ATOM     13  C   UNL     1      47.608   3.942  17.126  0.00  0.00    +0.000 C 
BRANCH  13  14
ATOM     14  C   UNL     1      48.758   4.289  18.082  0.00  0.00    +0.000 C 
BRANCH  14  15
ATOM     15  C   UNL     1      49.963   3.415  17.869  0.00  0.00    +0.000 A 
ATOM     16  C   UNL     1      51.241   3.840  18.227  0.00  0.00    +0.000 A 
ATOM     17  C   UNL     1      52.330   3.000  18.007  0.00  0.00    +0.000 A 
ATOM     18  C   UNL     1      52.097   1.758  17.442  0.00  0.00    +0.000 A 
ATOM     19  N   UNL     1      50.874   1.309  17.090  0.00  0.00    +0.000 NA
ATOM     20  C   UNL     1      49.836   2.145  17.312  0.00  0.00    +0.000 A 
ENDBRANCH  14  15
ENDBRANCH  13  14
ENDBRANCH   5  13
TORSDOF 4
ENDMDL
MODEL 9
REMARK VINA RESULT:    -5.564      3.196      7.167
REMARK INTER + INTRA:          -7.669
REMARK INTER:                  -6.964
REMARK INTRA:                  -0.705
REMARK UNBOUND:                -0.803
REMARK  Name = 
REMARK  4 active torsions:
REMARK  status: ('A' for Active; 'I' for Inactive)
REMARK    1  A    between atoms: C_4  and  C_5
REMARK    2  A    between atoms: C_9  and  C_10
REMARK    3  A    between atoms: C_10  and  C_11
REMARK    4  A    between atoms: C_11  and  C_12
REMARK                            x       y       z     vdW  Elec       q    Type
REMARK                         _______ _______ _______ _____ _____    ______ ____
ROOT
ATOM      1  C   UNL     1      44.706   9.383  11.455  0.00  0.00    +0.000 A 
ATOM      2  C   UNL     1      45.772   9.906  12.186  0.00  0.00    +0.000 A 
ATOM      3  N   UNL     1      46.714   9.169  12.828  0.00  0.00    +0.000 NA
ATOM      4  C   UNL     1      46.596   7.827  12.748  0.00  0.00    +0.000 A 
ATOM      5  C   UNL     1      45.591   7.173  12.045  0.00  0.00    +0.000 A 
ATOM      6  C   UNL     1      44.642   7.982  11.407  0.00  0.00    +0.000 A 
ENDROOT
BRANCH   1  10
ATOM      7  C   UNL     1      41.741  11.776   9.432  0.00  0.00    +0.000 A 
ATOM      8  C   UNL     1      42.784  11.202   8.713  0.00  0.00    +0.000 A 
ATOM      9  C   UNL     1      43.752  10.434   9.369  0.00  0.00    +0.000 A 
ATOM     10  C   UNL     1      43.708  10.229  10.761  0.00  0.00    +0.000 A 
ATOM     11  C   UNL     1      42.652  10.844  11.464  0.00  0.00    +0.000 A 
ATOM     12  C   UNL     1      41.674  11.597  10.808  0.00  0.00    +0.000 A 
ENDBRANCH   1  10
BRANCH   5  13
ATOM     13  C   UNL     1      45.517   5.666  12.049  0.00  0.00    +0.000 C 
BRANCH  13  14
ATOM     14  C   UNL     1      44.327   5.079  11.276  0.00  0.00    +0.000 C 
BRANCH  14  15
ATOM     15  C   UNL     1      44.761   4.207  10.132  0.00  0.00    +0.000 A 
ATOM     16  C   UNL     1      45.489   4.723   9.061  0.00  0.00    +0.000 A 
ATOM     17  C   UNL     1      45.867   3.880   8.019  0.00  0.00    +0.000 A 
ATOM     18  C   UNL     1      45.507   2.546   8.091  0.00  0.00    +0.000 A 
ATOM     19  N   UNL     1      44.810   2.008   9.114  0.00  0.00    +0.000 NA
ATOM     20  C   UNL     1      44.455   2.849  10.110  0.00  0.00    +0.000 A 
ENDBRANCH  14  15
ENDBRANCH  13  14
ENDBRANCH   5  13
TORSDOF 4
ENDMDL
