MODEL 1
REMARK VINA RESULT:    -7.860      0.000      0.000
REMARK INTER + INTRA:         -11.342
REMARK INTER:                 -10.387
REMARK INTRA:                  -0.955
REMARK UNBOUND:                -0.955
REMARK  Name = 
REMARK  6 active torsions:
REMARK  status: ('A' for Active; 'I' for Inactive)
REMARK    1  A    between atoms: C_2  and  C_19
REMARK    2  A    between atoms: N_3  and  C_4
REMARK    3  A    between atoms: C_4  and  C_5
REMARK    4  A    between atoms: C_8  and  C_9
REMARK    5  A    between atoms: C_9  and  O_10
REMARK    6  A    between atoms: C_9  and  C_11
REMARK                            x       y       z     vdW  Elec       q    Type
REMARK                         _______ _______ _______ _____ _____    ______ ____
ROOT
ATOM      1  C   UNL     1      47.949   7.512  14.132  0.00  0.00    +0.000 C 
ENDROOT
BRANCH   1   2
ATOM      2  C   UNL     1      47.039   6.726  13.220  0.00  0.00    +0.000 A 
ATOM      3  C   UNL     1      46.346   7.362  12.183  0.00  0.00    +0.000 A 
ATOM      4  C   UNL     1      45.466   6.643  11.366  0.00  0.00    +0.000 A 
ATOM      5  C   UNL     1      45.240   5.276  11.585  0.00  0.00    +0.000 A 
ATOM      6  C   UNL     1      45.910   4.648  12.648  0.00  0.00    +0.000 A 
ATOM      7  C   UNL     1      46.797   5.364  13.455  0.00  0.00    +0.000 A 
BRANCH   5   8
ATOM      8  C   UNL     1      44.288   4.495  10.694  0.00  0.00    +0.000 C 
BRANCH   8   9
ATOM      9  C   UNL     1      44.976   3.807   9.547  0.00  0.00    +0.000 A 
ATOM     10  C   UNL     1      45.113   2.432   9.496  0.00  0.00    +0.000 A 
ATOM     11  N   UNL     1      45.776   1.769   8.520  0.00  0.00    +0.000 NA
ATOM     12  C   UNL     1      46.300   2.543   7.559  0.00  0.00    +0.000 A 
ATOM     13  N   UNL     1      46.209   3.875   7.480  0.00  0.00    +0.000 NA
ATOM     14  C   UNL     1      45.540   4.480   8.483  0.00  0.00    +0.000 A 
ENDBRANCH   8   9
BRANCH   8  15
ATOM     15  O   UNL     1      43.271   5.368  10.195  0.00  0.00    +0.000 OA
ATOM     16  H   UNL     1      42.897   5.859  10.947  0.00  0.00    +0.000 HD
ENDBRANCH   8  15
ENDBRANCH   5   8
ENDBRANCH   1   2
BRANCH   1  19
ATOM     17  O   UNL     1      48.476   8.196  16.873  0.00  0.00    +0.000 OA
ATOM     18  C   UNL     1      48.727   7.080  16.442  0.00  0.00    +0.000 C 
ATOM     19  N   UNL     1      48.426   6.644  15.174  0.00  0.00    +0.000 N 
ATOM     20  H   UNL     1      48.843   5.784  14.859  0.00  0.00    +0.000 HD
BRANCH  18  21
ATOM     21  C   UNL     1      49.571   6.110  17.133  0.00  0.00    +0.000 A 
ATOM     22  C   UNL     1      50.801   6.440  17.675  0.00  0.00    +0.000 A 
ATOM     23  S   UNL     1      51.782   5.051  17.909  0.00  0.00    +0.000 S 
ATOM     24  C   UNL     1      50.529   4.008  17.405  0.00  0.00    +0.000 A 
ATOM     25  N   UNL     1      50.720   2.677  17.204  0.00  0.00    +0.000 NA
ATOM     26  C   UNL     1      49.653   2.035  16.852  0.00  0.00    +0.000 A 
ATOM     27  N   UNL     1      48.401   2.589  16.739  0.00  0.00    +0.000 N 
ATOM     28  C   UNL     1      48.154   3.924  16.954  0.00  0.00    +0.000 A 
ATOM     29  O   UNL     1      47.021   4.389  16.924  0.00  0.00    +0.000 OA
ATOM     30  C   UNL     1      49.351   4.697  17.215  0.00  0.00    +0.000 A 
ATOM     31  H   UNL     1      47.595   2.015  16.538  0.00  0.00    +0.000 HD
ENDBRANCH  18  21
ENDBRANCH   1  19
TORSDOF 6
ENDMDL
MODEL 2
REMARK VINA RESULT:    -7.647      2.765      8.236
REMARK INTER + INTRA:         -11.060
REMARK INTER:                 -10.123
REMARK INTRA:                  -0.937
REMARK UNBOUND:                -0.955
REMARK  Name = 
REMARK  6 active torsions:
REMARK  status: ('A' for Active; 'I' for Inactive)
REMARK    1  A    between atoms: C_2  and  C_19
REMARK    2  A    between atoms: N_3  and  C_4
REMARK    3  A    between atoms: C_4  and  C_5
REMARK    4  A    between atoms: C_8  and  C_9
REMARK    5  A    between atoms: C_9  and  O_10
REMARK    6  A    between atoms: C_9  and  C_11
REMARK                            x       y       z     vdW  Elec       q    Type
REMARK                         _______ _______ _______ _____ _____    ______ ____
ROOT
ATOM      1  C   UNL     1      47.267   6.726  12.741  0.00  0.00    +0.000 C 
ENDROOT
BRANCH   1   2
ATOM      2  C   UNL     1      47.588   6.070  14.062  0.00  0.00    +0.000 A 
ATOM      3  C   UNL     1      48.543   6.627  14.921  0.00  0.00    +0.000 A 
ATOM      4  C   UNL     1      48.875   5.995  16.124  0.00  0.00    +0.000 A 
ATOM      5  C   UNL     1      48.279   4.776  16.482  0.00  0.00    +0.000 A 
ATOM      6  C   UNL     1      47.347   4.202  15.602  0.00  0.00    +0.000 A 
ATOM      7  C   UNL     1      47.007   4.840  14.407  0.00  0.00    +0.000 A 
BRANCH   5   8
ATOM      8  C   UNL     1      48.637   4.093  17.792  0.00  0.00    +0.000 C 
BRANCH   8   9
ATOM      9  C   UNL     1      49.930   3.327  17.729  0.00  0.00    +0.000 A 
ATOM     10  C   UNL     1      49.995   2.046  17.212  0.00  0.00    +0.000 A 
ATOM     11  N   UNL     1      51.119   1.292  17.188  0.00  0.00    +0.000 NA
ATOM     12  C   UNL     1      52.211   1.879  17.698  0.00  0.00    +0.000 A 
ATOM     13  N   UNL     1      52.282   3.117  18.197  0.00  0.00    +0.000 NA
ATOM     14  C   UNL     1      51.131   3.819  18.197  0.00  0.00    +0.000 A 
ENDBRANCH   8   9
BRANCH   8  15
ATOM     15  O   UNL     1      47.575   3.220  18.186  0.00  0.00    +0.000 OA
ATOM     16  H   UNL     1      46.746   3.560  17.807  0.00  0.00    +0.000 HD
ENDBRANCH   8  15
ENDBRANCH   5   8
ENDBRANCH   1   2
BRANCH   1  19
ATOM     17  O   UNL     1      44.789   7.278  11.394  0.00  0.00    +0.000 OA
ATOM     18  C   UNL     1      45.262   6.151  11.408  0.00  0.00    +0.000 C 
ATOM     19  N   UNL     1      46.481   5.819  11.950  0.00  0.00    +0.000 N 
ATOM     20  H   UNL     1      46.688   4.844  12.081  0.00  0.00    +0.000 HD
BRANCH  18  21
ATOM     21  C   UNL     1      44.517   4.950  11.040  0.00  0.00    +0.000 A 
ATOM     22  C   UNL     1      43.509   4.425  11.829  0.00  0.00    +0.000 A 
ATOM     23  S   UNL     1      43.212   2.775  11.460  0.00  0.00    +0.000 S 
ATOM     24  C   UNL     1      44.338   2.798  10.178  0.00  0.00    +0.000 A 
ATOM     25  N   UNL     1      44.715   1.673   9.514  0.00  0.00    +0.000 NA
ATOM     26  C   UNL     1      45.554   1.881   8.551  0.00  0.00    +0.000 A 
ATOM     27  N   UNL     1      46.005   3.116   8.152  0.00  0.00    +0.000 N 
ATOM     28  C   UNL     1      45.635   4.283   8.776  0.00  0.00    +0.000 A 
ATOM     29  O   UNL     1      45.985   5.382   8.363  0.00  0.00    +0.000 OA
ATOM     30  C   UNL     1      44.805   4.073   9.945  0.00  0.00    +0.000 A 
ATOM     31  H   UNL     1      46.598   3.215   7.341  0.00  0.00    +0.000 HD
ENDBRANCH  18  21
ENDBRANCH   1  19
TORSDOF 6
ENDMDL
MODEL 3
REMARK VINA RESULT:    -7.293      2.754      4.585
REMARK INTER + INTRA:         -10.593
REMARK INTER:                  -9.614
REMARK INTRA:                  -0.978
REMARK UNBOUND:                -0.955
REMARK  Name = 
REMARK  6 active torsions:
REMARK  status: ('A' for Active; 'I' for Inactive)
REMARK    1  A    between atoms: C_2  and  C_19
REMARK    2  A    between atoms: N_3  and  C_4
REMARK    3  A    between atoms: C_4  and  C_5
REMARK    4  A    between atoms: C_8  and  C_9
REMARK    5  A    between atoms: C_9  and  O_10
REMARK    6  A    between atoms: C_9  and  C_11
REMARK                            x       y       z     vdW  Elec       q    Type
REMARK                         _______ _______ _______ _____ _____    ______ ____
ROOT
ATOM      1  C   UNL     1      47.080   5.345  14.678  0.00  0.00    +0.000 C 
ENDROOT
BRANCH   1   2
ATOM      2  C   UNL     1      46.340   4.910  13.436  0.00  0.00    +0.000 A 
ATOM      3  C   UNL     1      45.981   3.570  13.253  0.00  0.00    +0.000 A 
ATOM      4  C   UNL     1      45.337   3.158  12.081  0.00  0.00    +0.000 A 
ATOM      5  C   UNL     1      45.060   4.074  11.055  0.00  0.00    +0.000 A 
ATOM      6  C   UNL     1      45.451   5.411  11.228  0.00  0.00    +0.000 A 
ATOM      7  C   UNL     1      46.084   5.824  12.403  0.00  0.00    +0.000 A 
BRANCH   5   8
ATOM      8  C   UNL     1      44.355   3.625   9.785  0.00  0.00    +0.000 C 
BRANCH   8   9
ATOM      9  C   UNL     1      45.280   2.990   8.784  0.00  0.00    +0.000 A 
ATOM     10  C   UNL     1      45.528   1.630   8.779  0.00  0.00    +0.000 A 
ATOM     11  N   UNL     1      46.397   1.017   7.942  0.00  0.00    +0.000 NA
ATOM     12  C   UNL     1      47.018   1.828   7.072  0.00  0.00    +0.000 A 
ATOM     13  N   UNL     1      46.840   3.148   6.957  0.00  0.00    +0.000 NA
ATOM     14  C   UNL     1      45.965   3.702   7.820  0.00  0.00    +0.000 A 
ENDBRANCH   8   9
BRANCH   8  15
ATOM     15  O   UNL     1      43.686   4.739   9.188  0.00  0.00    +0.000 OA
ATOM     16  H   UNL     1      43.978   5.548   9.642  0.00  0.00    +0.000 HD
ENDBRANCH   8  15
ENDBRANCH   5   8
ENDBRANCH   1   2
BRANCH   1  19
ATOM     17  O   UNL     1      49.648   6.140  15.694  0.00  0.00    +0.000 OA
ATOM     18  C   UNL     1      48.988   6.891  14.990  0.00  0.00    +0.000 C 
ATOM     19  N   UNL     1      47.795   6.559  14.392  0.00  0.00    +0.000 N 
ATOM     20  H   UNL     1      47.243   7.300  13.997  0.00  0.00    +0.000 HD
BRANCH  18  21
ATOM     21  C   UNL     1      49.255   8.319  14.846  0.00  0.00    +0.000 A 
ATOM     22  C   UNL     1      49.476   9.151  15.930  0.00  0.00    +0.000 A 
ATOM     23  S   UNL     1      49.207  10.798  15.527  0.00  0.00    +0.000 S 
ATOM     24  C   UNL     1      48.916  10.412  13.890  0.00  0.00    +0.000 A 
ATOM     25  N   UNL     1      48.465  11.326  12.991  0.00  0.00    +0.000 NA
ATOM     26  C   UNL     1      48.330  10.866  11.789  0.00  0.00    +0.000 A 
ATOM     27  N   UNL     1      48.660   9.593  11.391  0.00  0.00    +0.000 N 
ATOM     28  C   UNL     1      49.141   8.641  12.257  0.00  0.00    +0.000 A 
ATOM     29  O   UNL     1      49.502   7.535  11.874  0.00  0.00    +0.000 OA
ATOM     30  C   UNL     1      49.174   9.082  13.637  0.00  0.00    +0.000 A 
ATOM     31  H   UNL     1      48.605   9.322  10.419  0.00  0.00    +0.000 HD
ENDBRANCH  18  21
ENDBRANCH   1  19
TORSDOF 6
ENDMDL
MODEL 4
REMARK VINA RESULT:    -7.199      2.049      2.269
REMARK INTER + INTRA:         -10.468
REMARK INTER:                  -9.536
REMARK INTRA:                  -0.932
REMARK UNBOUND:                -0.955
REMARK  Name = 
REMARK  6 active torsions:
REMARK  status: ('A' for Active; 'I' for Inactive)
REMARK    1  A    between atoms: C_2  and  C_19
REMARK    2  A    between atoms: N_3  and  C_4
REMARK    3  A    between atoms: C_4  and  C_5
REMARK    4  A    between atoms: C_8  and  C_9
REMARK    5  A    between atoms: C_9  and  O_10
REMARK    6  A    between atoms: C_9  and  C_11
REMARK                            x       y       z     vdW  Elec       q    Type
REMARK                         _______ _______ _______ _____ _____    ______ ____
ROOT
ATOM      1  C   UNL     1      48.895   6.941  14.272  0.00  0.00    +0.000 C 
ENDROOT
BRANCH   1   2
ATOM      2  C   UNL     1      47.793   6.366  13.414  0.00  0.00    +0.000 A 
ATOM      3  C   UNL     1      47.403   7.005  12.231  0.00  0.00    +0.000 A 
ATOM      4  C   UNL     1      46.351   6.499  11.460  0.00  0.00    +0.000 A 
ATOM      5  C   UNL     1      45.648   5.355  11.869  0.00  0.00    +0.000 A 
ATOM      6  C   UNL     1      46.020   4.736  13.074  0.00  0.00    +0.000 A 
ATOM      7  C   UNL     1      47.078   5.236  13.837  0.00  0.00    +0.000 A 
BRANCH   5   8
ATOM      8  C   UNL     1      44.509   4.804  11.028  0.00  0.00    +0.000 C 
BRANCH   8   9
ATOM      9  C   UNL     1      44.977   4.015   9.836  0.00  0.00    +0.000 A 
ATOM     10  C   UNL     1      44.909   2.634   9.801  0.00  0.00    +0.000 A 
ATOM     11  N   UNL     1      45.373   1.875   8.781  0.00  0.00    +0.000 NA
ATOM     12  C   UNL     1      45.908   2.559   7.759  0.00  0.00    +0.000 A 
ATOM     13  N   UNL     1      46.002   3.889   7.661  0.00  0.00    +0.000 NA
ATOM     14  C   UNL     1      45.527   4.592   8.709  0.00  0.00    +0.000 A 
ENDBRANCH   8   9
BRANCH   8  15
ATOM     15  O   UNL     1      43.665   5.876  10.598  0.00  0.00    +0.000 OA
ATOM     16  H   UNL     1      44.226   6.649  10.418  0.00  0.00    +0.000 HD
ENDBRANCH   8  15
ENDBRANCH   5   8
ENDBRANCH   1   2
BRANCH   1  19
ATOM     17  O   UNL     1      50.344   7.863  16.576  0.00  0.00    +0.000 OA
ATOM     18  C   UNL     1      49.160   7.566  16.652  0.00  0.00    +0.000 C 
ATOM     19  N   UNL     1      48.373   7.203  15.585  0.00  0.00    +0.000 N 
ATOM     20  H   UNL     1      47.474   6.797  15.779  0.00  0.00    +0.000 HD
BRANCH  18  21
ATOM     21  C   UNL     1      48.453   7.349  17.911  0.00  0.00    +0.000 A 
ATOM     22  C   UNL     1      47.863   8.378  18.624  0.00  0.00    +0.000 A 
ATOM     23  S   UNL     1      47.615   7.945  20.267  0.00  0.00    +0.000 S 
ATOM     24  C   UNL     1      48.180   6.358  19.997  0.00  0.00    +0.000 A 
ATOM     25  N   UNL     1      48.395   5.475  21.008  0.00  0.00    +0.000 NA
ATOM     26  C   UNL     1      48.795   4.308  20.617  0.00  0.00    +0.000 A 
ATOM     27  N   UNL     1      48.944   3.924  19.307  0.00  0.00    +0.000 N 
ATOM     28  C   UNL     1      48.718   4.773  18.250  0.00  0.00    +0.000 A 
ATOM     29  O   UNL     1      48.781   4.396  17.086  0.00  0.00    +0.000 OA
ATOM     30  C   UNL     1      48.402   6.127  18.657  0.00  0.00    +0.000 A 
ATOM     31  H   UNL     1      49.183   2.972  19.068  0.00  0.00    +0.000 HD
ENDBRANCH  18  21
ENDBRANCH   1  19
TORSDOF 6
ENDMDL
MODEL 5
REMARK VINA RESULT:    -7.124      3.546      5.659
REMARK INTER + INTRA:         -10.370
REMARK INTER:                  -9.357
REMARK INTRA:                  -1.013
REMARK UNBOUND:                -0.955
REMARK  Name = 
REMARK  6 active torsions:
REMARK  status: ('A' for Active; 'I' for Inactive)
REMARK    1  A    between atoms: C_2  and  C_19
REMARK    2  A    between atoms: N_3  and  C_4
REMARK    3  A    between atoms: C_4  and  C_5
REMARK    4  A    between atoms: C_8  and  C_9
REMARK    5  A    between atoms: C_9  and  O_10
REMARK    6  A    between atoms: C_9  and  C_11
REMARK                            x       y       z     vdW  Elec       q    Type
REMARK                         _______ _______ _______ _____ _____    ______ ____
ROOT
ATOM      1  C   UNL     1      47.516   6.338  13.943  0.00  0.00    +0.000 C 
ENDROOT
BRANCH   1   2
ATOM      2  C   UNL     1      46.679   5.661  12.884  0.00  0.00    +0.000 A 
ATOM      3  C   UNL     1      46.094   4.413  13.128  0.00  0.00    +0.000 A 
ATOM      4  C   UNL     1      45.358   3.764  12.131  0.00  0.00    +0.000 A 
ATOM      5  C   UNL     1      45.213   4.337  10.858  0.00  0.00    +0.000 A 
ATOM      6  C   UNL     1      45.830   5.573  10.606  0.00  0.00    +0.000 A 
ATOM      7  C   UNL     1      46.555   6.226  11.606  0.00  0.00    +0.000 A 
BRANCH   5   8
ATOM      8  C   UNL     1      44.408   3.633   9.777  0.00  0.00    +0.000 C 
BRANCH   8   9
ATOM      9  C   UNL     1      45.265   2.920   8.767  0.00  0.00    +0.000 A 
ATOM     10  C   UNL     1      45.518   1.564   8.851  0.00  0.00    +0.000 A 
ATOM     11  N   UNL     1      46.330   0.887   8.006  0.00  0.00    +0.000 NA
ATOM     12  C   UNL     1      46.885   1.627   7.035  0.00  0.00    +0.000 A 
ATOM     13  N   UNL     1      46.694   2.934   6.830  0.00  0.00    +0.000 NA
ATOM     14  C   UNL     1      45.879   3.555   7.706  0.00  0.00    +0.000 A 
ENDBRANCH   8   9
BRANCH   8  15
ATOM     15  O   UNL     1      43.562   4.577   9.116  0.00  0.00    +0.000 OA
ATOM     16  H   UNL     1      43.517   5.380   9.662  0.00  0.00    +0.000 HD
ENDBRANCH   8  15
ENDBRANCH   5   8
ENDBRANCH   1   2
BRANCH   1  19
ATOM     17  O   UNL     1      47.902   8.844  15.295  0.00  0.00    +0.000 OA
ATOM     18  C   UNL     1      48.138   8.728  14.100  0.00  0.00    +0.000 C 
ATOM     19  N   UNL     1      48.065   7.549  13.398  0.00  0.00    +0.000 N 
ATOM     20  H   UNL     1      48.090   7.596  12.394  0.00  0.00    +0.000 HD
BRANCH  18  21
ATOM     21  C   UNL     1      48.328   9.857  13.194  0.00  0.00    +0.000 A 
ATOM     22  C   UNL     1      49.555  10.470  13.009  0.00  0.00    +0.000 A 
ATOM     23  S   UNL     1      49.381  12.050  12.361  0.00  0.00    +0.000 S 
ATOM     24  C   UNL     1      47.691  11.869  12.218  0.00  0.00    +0.000 A 
ATOM     25  N   UNL     1      46.870  12.899  11.880  0.00  0.00    +0.000 NA
ATOM     26  C   UNL     1      45.621  12.574  11.788  0.00  0.00    +0.000 A 
ATOM     27  N   UNL     1      45.124  11.304  11.946  0.00  0.00    +0.000 N 
ATOM     28  C   UNL     1      45.915  10.227  12.266  0.00  0.00    +0.000 A 
ATOM     29  O   UNL     1      45.470   9.087  12.330  0.00  0.00    +0.000 OA
ATOM     30  C   UNL     1      47.298  10.582  12.511  0.00  0.00    +0.000 A 
ATOM     31  H   UNL     1      44.147  11.104  11.783  0.00  0.00    +0.000 HD
ENDBRANCH  18  21
ENDBRANCH   1  19
TORSDOF 6
ENDMDL
MODEL 6
REMARK VINA RESULT:    -7.025      2.981      4.145
REMARK INTER + INTRA:         -10.238
REMARK INTER:                  -9.329
REMARK INTRA:                  -0.910
REMARK UNBOUND:                -0.955
REMARK  Name = 
REMARK  6 active torsions:
REMARK  status: ('A' for Active; 'I' for Inactive)
REMARK    1  A    between atoms: C_2  and  C_19
REMARK    2  A    between atoms: N_3  and  C_4
REMARK    3  A    between atoms: C_4  and  C_5
REMARK    4  A    between atoms: C_8  and  C_9
REMARK    5  A    between atoms: C_9  and  O_10
REMARK    6  A    between atoms: C_9  and  C_11
REMARK                            x       y       z     vdW  Elec       q    Type
REMARK                         _______ _______ _______ _____ _____    ______ ____
ROOT
ATOM      1  C   UNL     1      47.098   5.473  14.441  0.00  0.00    +0.000 C 
ENDROOT
BRANCH   1   2
ATOM      2  C   UNL     1      46.427   4.976  13.183  0.00  0.00    +0.000 A 
ATOM      3  C   UNL     1      46.142   5.855  12.132  0.00  0.00    +0.000 A 
ATOM      4  C   UNL     1      45.478   5.406  10.986  0.00  0.00    +0.000 A 
ATOM      5  C   UNL     1      45.062   4.070  10.876  0.00  0.00    +0.000 A 
ATOM      6  C   UNL     1      45.320   3.198  11.946  0.00  0.00    +0.000 A 
ATOM      7  C   UNL     1      45.992   3.646  13.085  0.00  0.00    +0.000 A 
BRANCH   5   8
ATOM      8  C   UNL     1      44.345   3.581   9.627  0.00  0.00    +0.000 C 
BRANCH   8   9
ATOM      9  C   UNL     1      45.262   2.918   8.636  0.00  0.00    +0.000 A 
ATOM     10  C   UNL     1      45.603   1.582   8.736  0.00  0.00    +0.000 A 
ATOM     11  N   UNL     1      46.470   0.954   7.908  0.00  0.00    +0.000 NA
ATOM     12  C   UNL     1      46.991   1.720   6.939  0.00  0.00    +0.000 A 
ATOM     13  N   UNL     1      46.718   3.011   6.720  0.00  0.00    +0.000 NA
ATOM     14  C   UNL     1      45.850   3.583   7.579  0.00  0.00    +0.000 A 
ENDBRANCH   8   9
BRANCH   8  15
ATOM     15  O   UNL     1      43.667   4.674   9.003  0.00  0.00    +0.000 OA
ATOM     16  H   UNL     1      42.712   4.489   9.020  0.00  0.00    +0.000 HD
ENDBRANCH   8  15
ENDBRANCH   5   8
ENDBRANCH   1   2
BRANCH   1  19
ATOM     17  O   UNL     1      49.470   6.812  13.526  0.00  0.00    +0.000 OA
ATOM     18  C   UNL     1      48.513   7.443  13.952  0.00  0.00    +0.000 C 
ATOM     19  N   UNL     1      47.312   6.889  14.326  0.00  0.00    +0.000 N 
ATOM     20  H   UNL     1      46.667   7.464  14.839  0.00  0.00    +0.000 HD
BRANCH  18  21
ATOM     21  C   UNL     1      48.570   8.853  14.329  0.00  0.00    +0.000 A 
ATOM     22  C   UNL     1      48.426   9.879  13.411  0.00  0.00    +0.000 A 
ATOM     23  S   UNL     1      49.076  11.353  14.005  0.00  0.00    +0.000 S 
ATOM     24  C   UNL     1      49.437  10.653  15.518  0.00  0.00    +0.000 A 
ATOM     25  N   UNL     1      50.157  11.302  16.471  0.00  0.00    +0.000 NA
ATOM     26  C   UNL     1      50.308  10.633  17.569  0.00  0.00    +0.000 A 
ATOM     27  N   UNL     1      49.757   9.400  17.823  0.00  0.00    +0.000 N 
ATOM     28  C   UNL     1      49.003   8.716  16.901  0.00  0.00    +0.000 A 
ATOM     29  O   UNL     1      48.455   7.653  17.167  0.00  0.00    +0.000 OA
ATOM     30  C   UNL     1      48.929   9.376  15.613  0.00  0.00    +0.000 A 
ATOM     31  H   UNL     1      49.848   8.968  18.731  0.00  0.00    +0.000 HD
ENDBRANCH  18  21
ENDBRANCH   1  19
TORSDOF 6
ENDMDL
MODEL 7
REMARK VINA RESULT:    -6.695      3.300      8.917
REMARK INTER + INTRA:          -9.803
REMARK INTER:                  -9.044
REMARK INTRA:                  -0.758
REMARK UNBOUND:                -0.955
REMARK  Name = 
REMARK  6 active torsions:
REMARK  status: ('A' for Active; 'I' for Inactive)
REMARK    1  A    between atoms: C_2  and  C_19
REMARK    2  A    between atoms: N_3  and  C_4
REMARK    3  A    between atoms: C_4  and  C_5
REMARK    4  A    between atoms: C_8  and  C_9
REMARK    5  A    between atoms: C_9  and  O_10
REMARK    6  A    between atoms: C_9  and  C_11
REMARK                            x       y       z     vdW  Elec       q    Type
REMARK                         _______ _______ _______ _____ _____    ______ ____
ROOT
ATOM      1  C   UNL     1      47.067   3.713  17.092  0.00  0.00    +0.000 C 
ENDROOT
BRANCH   1   2
ATOM      2  C   UNL     1      48.546   3.943  17.287  0.00  0.00    +0.000 A 
ATOM      3  C   UNL     1      49.081   5.234  17.223  0.00  0.00    +0.000 A 
ATOM      4  C   UNL     1      50.458   5.443  17.357  0.00  0.00    +0.000 A 
ATOM      5  C   UNL     1      51.334   4.361  17.532  0.00  0.00    +0.000 A 
ATOM      6  C   UNL     1      50.797   3.063  17.561  0.00  0.00    +0.000 A 
ATOM      7  C   UNL     1      49.421   2.857  17.438  0.00  0.00    +0.000 A 
BRANCH   5   8
ATOM      8  C   UNL     1      52.829   4.590  17.682  0.00  0.00    +0.000 C 
BRANCH   8   9
ATOM      9  C   UNL     1      53.560   3.399  18.239  0.00  0.00    +0.000 A 
ATOM     10  C   UNL     1      53.586   3.126  19.594  0.00  0.00    +0.000 A 
ATOM     11  N   UNL     1      54.278   2.105  20.151  0.00  0.00    +0.000 NA
ATOM     12  C   UNL     1      54.952   1.333  19.286  0.00  0.00    +0.000 A 
ATOM     13  N   UNL     1      54.979   1.475  17.957  0.00  0.00    +0.000 NA
ATOM     14  C   UNL     1      54.274   2.511  17.460  0.00  0.00    +0.000 A 
ENDBRANCH   8   9
BRANCH   8  15
ATOM     15  O   UNL     1      53.059   5.732  18.512  0.00  0.00    +0.000 OA
ATOM     16  H   UNL     1      53.366   5.420  19.380  0.00  0.00    +0.000 HD
ENDBRANCH   8  15
ENDBRANCH   5   8
ENDBRANCH   1   2
BRANCH   1  19
ATOM     17  O   UNL     1      47.532   2.802  14.406  0.00  0.00    +0.000 OA
ATOM     18  C   UNL     1      46.993   3.878  14.623  0.00  0.00    +0.000 C 
ATOM     19  N   UNL     1      46.654   4.347  15.870  0.00  0.00    +0.000 N 
ATOM     20  H   UNL     1      46.394   5.315  15.955  0.00  0.00    +0.000 HD
BRANCH  18  21
ATOM     21  C   UNL     1      46.816   4.919  13.615  0.00  0.00    +0.000 A 
ATOM     22  C   UNL     1      47.669   6.003  13.503  0.00  0.00    +0.000 A 
ATOM     23  S   UNL     1      46.933   7.300  12.652  0.00  0.00    +0.000 S 
ATOM     24  C   UNL     1      45.534   6.376  12.334  0.00  0.00    +0.000 A 
ATOM     25  N   UNL     1      44.415   6.910  11.779  0.00  0.00    +0.000 NA
ATOM     26  C   UNL     1      43.462   6.057  11.581  0.00  0.00    +0.000 A 
ATOM     27  N   UNL     1      43.546   4.709  11.833  0.00  0.00    +0.000 N 
ATOM     28  C   UNL     1      44.664   4.119  12.372  0.00  0.00    +0.000 A 
ATOM     29  O   UNL     1      44.752   2.906  12.521  0.00  0.00    +0.000 OA
ATOM     30  C   UNL     1      45.698   5.067  12.733  0.00  0.00    +0.000 A 
ATOM     31  H   UNL     1      42.792   4.086  11.581  0.00  0.00    +0.000 HD
ENDBRANCH  18  21
ENDBRANCH   1  19
TORSDOF 6
ENDMDL
MODEL 8
REMARK VINA RESULT:    -6.570      4.218      9.345
REMARK INTER + INTRA:          -9.637
REMARK INTER:                  -8.820
REMARK INTRA:                  -0.818
REMARK UNBOUND:                -0.955
REMARK  Name = 
REMARK  6 active torsions:
REMARK  status: ('A' for Active; 'I' for Inactive)
REMARK    1  A    between atoms: C_2  and  C_19
REMARK    2  A    between atoms: N_3  and  C_4
REMARK    3  A    between atoms: C_4  and  C_5
REMARK    4  A    between atoms: C_8  and  C_9
REMARK    5  A    between atoms: C_9  and  O_10
REMARK    6  A    between atoms: C_9  and  C_11
REMARK                            x       y       z     vdW  Elec       q    Type
REMARK                         _______ _______ _______ _____ _____    ______ ____
ROOT
ATOM      1  C   UNL     1      47.421   4.149  16.687  0.00  0.00    +0.000 C 
ENDROOT
BRANCH   1   2
ATOM      2  C   UNL     1      47.724   5.296  17.620  0.00  0.00    +0.000 A 
ATOM      3  C   UNL     1      48.785   6.170  17.355  0.00  0.00    +0.000 A 
ATOM      4  C   UNL     1      49.096   7.205  18.244  0.00  0.00    +0.000 A 
ATOM      5  C   UNL     1      48.367   7.373  19.431  0.00  0.00    +0.000 A 
ATOM      6  C   UNL     1      47.325   6.474  19.711  0.00  0.00    +0.000 A 
ATOM      7  C   UNL     1      47.009   5.448  18.818  0.00  0.00    +0.000 A 
BRANCH   5   8
ATOM      8  C   UNL     1      48.702   8.502  20.394  0.00  0.00    +0.000 C 
BRANCH   8   9
ATOM      9  C   UNL     1      47.525   9.380  20.713  0.00  0.00    +0.000 A 
ATOM     10  C   UNL     1      46.922   9.370  21.957  0.00  0.00    +0.000 A 
ATOM     11  N   UNL     1      45.824  10.093  22.278  0.00  0.00    +0.000 NA
ATOM     12  C   UNL     1      45.341  10.864  21.291  0.00  0.00    +0.000 A 
ATOM     13  N   UNL     1      45.852  10.984  20.061  0.00  0.00    +0.000 NA
ATOM     14  C   UNL     1      46.943  10.236  19.800  0.00  0.00    +0.000 A 
ENDBRANCH   8   9
BRANCH   8  15
ATOM     15  O   UNL     1      49.765   9.292  19.855  0.00  0.00    +0.000 OA
ATOM     16  H   UNL     1      49.806  10.127  20.353  0.00  0.00    +0.000 HD
ENDBRANCH   8  15
ENDBRANCH   5   8
ENDBRANCH   1   2
BRANCH   1  19
ATOM     17  O   UNL     1      47.415   3.144  13.995  0.00  0.00    +0.000 OA
ATOM     18  C   UNL     1      46.786   4.148  14.295  0.00  0.00    +0.000 C 
ATOM     19  N   UNL     1      46.664   4.644  15.571  0.00  0.00    +0.000 N 
ATOM     20  H   UNL     1      46.291   5.571  15.682  0.00  0.00    +0.000 HD
BRANCH  18  21
ATOM     21  C   UNL     1      46.244   5.091  13.321  0.00  0.00    +0.000 A 
ATOM     22  C   UNL     1      46.809   6.333  13.088  0.00  0.00    +0.000 A 
ATOM     23  S   UNL     1      45.692   7.407  12.349  0.00  0.00    +0.000 S 
ATOM     24  C   UNL     1      44.504   6.187  12.234  0.00  0.00    +0.000 A 
ATOM     25  N   UNL     1      43.228   6.443  11.843  0.00  0.00    +0.000 NA
ATOM     26  C   UNL     1      42.471   5.394  11.784  0.00  0.00    +0.000 A 
ATOM     27  N   UNL     1      42.888   4.107  12.023  0.00  0.00    +0.000 N 
ATOM     28  C   UNL     1      44.173   3.797  12.398  0.00  0.00    +0.000 A 
ATOM     29  O   UNL     1      44.549   2.638  12.534  0.00  0.00    +0.000 OA
ATOM     30  C   UNL     1      45.009   4.960  12.607  0.00  0.00    +0.000 A 
ATOM     31  H   UNL     1      42.265   3.325  11.881  0.00  0.00    +0.000 HD
ENDBRANCH  18  21
ENDBRANCH   1  19
TORSDOF 6
ENDMDL
MODEL 9
REMARK VINA RESULT:    -6.048      1.997      2.321
REMARK INTER + INTRA:          -8.948
REMARK INTER:                  -8.443
REMARK INTRA:                  -0.505
REMARK UNBOUND:                -0.955
REMARK  Name = 
REMARK  6 active torsions:
REMARK  status: ('A' for Active; 'I' for Inactive)
REMARK    1  A    between atoms: C_2  and  C_19
REMARK    2  A    between atoms: N_3  and  C_4
REMARK    3  A    between atoms: C_4  and  C_5
REMARK    4  A    between atoms: C_8  and  C_9
REMARK    5  A    between atoms: C_9  and  O_10
REMARK    6  A    between atoms: C_9  and  C_11
REMARK                            x       y       z     vdW  Elec       q    Type
REMARK                         _______ _______ _______ _____ _____    ______ ____
ROOT
ATOM      1  C   UNL     1      48.948   7.721  14.104  0.00  0.00    +0.000 C 
ENDROOT
BRANCH   1   2
ATOM      2  C   UNL     1      47.787   7.107  13.359  0.00  0.00    +0.000 A 
ATOM      3  C   UNL     1      46.909   7.908  12.620  0.00  0.00    +0.000 A 
ATOM      4  C   UNL     1      45.806   7.346  11.968  0.00  0.00    +0.000 A 
ATOM      5  C   UNL     1      45.542   5.971  12.063  0.00  0.00    +0.000 A 
ATOM      6  C   UNL     1      46.405   5.175  12.833  0.00  0.00    +0.000 A 
ATOM      7  C   UNL     1      47.512   5.736  13.474  0.00  0.00    +0.000 A 
BRANCH   5   8
ATOM      8  C   UNL     1      44.346   5.361  11.349  0.00  0.00    +0.000 C 
BRANCH   8   9
ATOM      9  C   UNL     1      44.725   4.544  10.145  0.00  0.00    +0.000 A 
ATOM     10  C   UNL     1      44.348   3.221  10.011  0.00  0.00    +0.000 A 
ATOM     11  N   UNL     1      44.714   2.425   8.979  0.00  0.00    +0.000 NA
ATOM     12  C   UNL     1      45.478   3.015   8.048  0.00  0.00    +0.000 A 
ATOM     13  N   UNL     1      45.881   4.291   8.048  0.00  0.00    +0.000 NA
ATOM     14  C   UNL     1      45.488   5.032   9.103  0.00  0.00    +0.000 A 
ENDBRANCH   8   9
BRANCH   8  15
ATOM     15  O   UNL     1      43.435   6.395  10.967  0.00  0.00    +0.000 OA
ATOM     16  H   UNL     1      42.539   6.120  11.223  0.00  0.00    +0.000 HD
ENDBRANCH   8  15
ENDBRANCH   5   8
ENDBRANCH   1   2
BRANCH   1  19
ATOM     17  O   UNL     1      48.409   8.719  16.744  0.00  0.00    +0.000 OA
ATOM     18  C   UNL     1      48.910   7.616  16.576  0.00  0.00    +0.000 C 
ATOM     19  N   UNL     1      49.118   7.028  15.351  0.00  0.00    +0.000 N 
ATOM     20  H   UNL     1      49.706   6.213  15.314  0.00  0.00    +0.000 HD
BRANCH  18  21
ATOM     21  C   UNL     1      49.555   6.845  17.635  0.00  0.00    +0.000 A 
ATOM     22  C   UNL     1      50.734   6.147  17.439  0.00  0.00    +0.000 A 
ATOM     23  S   UNL     1      50.950   4.926  18.626  0.00  0.00    +0.000 S 
ATOM     24  C   UNL     1      49.541   5.405  19.461  0.00  0.00    +0.000 A 
ATOM     25  N   UNL     1      49.025   4.692  20.496  0.00  0.00    +0.000 NA
ATOM     26  C   UNL     1      47.971   5.219  21.031  0.00  0.00    +0.000 A 
ATOM     27  N   UNL     1      47.420   6.423  20.664  0.00  0.00    +0.000 N 
ATOM     28  C   UNL     1      47.919   7.190  19.640  0.00  0.00    +0.000 A 
ATOM     29  O   UNL     1      47.463   8.297  19.374  0.00  0.00    +0.000 OA
ATOM     30  C   UNL     1      49.015   6.563  18.931  0.00  0.00    +0.000 A 
ATOM     31  H   UNL     1      46.643   6.815  21.177  0.00  0.00    +0.000 HD
ENDBRANCH  18  21
ENDBRANCH   1  19
TORSDOF 6
ENDMDL
