MODEL 1
REMARK VINA RESULT:    -7.919      0.000      0.000
REMARK INTER + INTRA:         -12.153
REMARK INTER:                 -11.159
REMARK INTRA:                  -0.994
REMARK UNBOUND:                -0.994
REMARK  Name = 
REMARK  7 active torsions:
REMARK  status: ('A' for Active; 'I' for Inactive)
REMARK    1  A    between atoms: C_2  and  C_4
REMARK    2  A    between atoms: C_8  and  S_9
REMARK    3  A    between atoms: S_9  and  C_10
REMARK    4  A    between atoms: C_10  and  C_11
REMARK    5  A    between atoms: C_16  and  C_17
REMARK    6  A    between atoms: C_22  and  O_23
REMARK    7  A    between atoms: O_23  and  C_24
REMARK                            x       y       z     vdW  Elec       q    Type
REMARK                         _______ _______ _______ _____ _____    ______ ____
ROOT
ATOM      1  C   UNL     1      45.134   4.828  12.445  0.00  0.00    +0.000 A 
ATOM      2  C   UNL     1      45.654   4.030  13.466  0.00  0.00    +0.000 A 
ATOM      3  C   UNL     1      46.828   4.399  14.107  0.00  0.00    +0.000 A 
ATOM      4  F   UNL     1      47.289   3.640  15.111  0.00  0.00    +0.000 F 
ATOM      5  C   UNL     1      47.523   5.551  13.746  0.00  0.00    +0.000 A 
ATOM      6  C   UNL     1      47.085   6.363  12.690  0.00  0.00    +0.000 A 
ATOM      7  C   UNL     1      45.888   5.957  12.042  0.00  0.00    +0.000 A 
ENDROOT
BRANCH   6   8
ATOM      8  C   UNL     1      47.787   7.636  12.318  0.00  0.00    +0.000 A 
ATOM      9  C   UNL     1      49.163   7.582  11.988  0.00  0.00    +0.000 A 
ATOM     10  C   UNL     1      49.884   8.709  11.585  0.00  0.00    +0.000 A 
ATOM     11  C   UNL     1      49.240   9.927  11.457  0.00  0.00    +0.000 A 
ATOM     12  C   UNL     1      47.886  10.024  11.767  0.00  0.00    +0.000 A 
ATOM     13  C   UNL     1      47.164   8.910  12.234  0.00  0.00    +0.000 A 
BRANCH  13  14
ATOM     14  O   UNL     1      45.844   9.010  12.605  0.00  0.00    +0.000 OA
BRANCH  14  15
ATOM     15  C   UNL     1      44.945   9.583  11.661  0.00  0.00    +0.000 C 
ATOM     16  F   UNL     1      44.012  10.311  12.333  0.00  0.00    +0.000 F 
ENDBRANCH  14  15
ENDBRANCH  13  14
ENDBRANCH   6   8
BRANCH   1  17
ATOM     17  C   UNL     1      43.833   4.507  11.730  0.00  0.00    +0.000 C 
BRANCH  17  18
ATOM     18  S   UNL     1      43.782   2.833  10.980  0.00  0.00    +0.000 S 
BRANCH  18  23
ATOM     19  C   UNL     1      46.371   2.206   7.895  0.00  0.00    +0.000 A 
ATOM     20  C   UNL     1      46.523   3.490   7.361  0.00  0.00    +0.000 A 
ATOM     21  C   UNL     1      45.835   4.561   7.933  0.00  0.00    +0.000 A 
ATOM     22  C   UNL     1      44.994   4.351   9.027  0.00  0.00    +0.000 A 
ATOM     23  C   UNL     1      44.816   3.065   9.551  0.00  0.00    +0.000 A 
ATOM     24  C   UNL     1      45.517   1.996   8.985  0.00  0.00    +0.000 A 
BRANCH  19  26
ATOM     25  N   UNL     1      46.649  -0.209   7.720  0.00  0.00    +0.000 N 
ATOM     26  C   UNL     1      47.079   1.029   7.332  0.00  0.00    +0.000 C 
ATOM     27  O   UNL     1      47.988   1.157   6.522  0.00  0.00    +0.000 OA
ATOM     28  H   UNL     1      47.062  -0.995   7.231  0.00  0.00    +0.000 HD
ATOM     29  H   UNL     1      45.757  -0.355   8.167  0.00  0.00    +0.000 HD
ENDBRANCH  19  26
ENDBRANCH  18  23
ENDBRANCH  17  18
ENDBRANCH   1  17
TORSDOF 7
ENDMDL
MODEL 2
REMARK VINA RESULT:    -7.722      3.611      7.229
REMARK INTER + INTRA:         -11.877
REMARK INTER:                 -10.143
REMARK INTRA:                  -1.734
REMARK UNBOUND:                -0.994
REMARK  Name = 
REMARK  7 active torsions:
REMARK  status: ('A' for Active; 'I' for Inactive)
REMARK    1  A    between atoms: C_2  and  C_4
REMARK    2  A    between atoms: C_8  and  S_9
REMARK    3  A    between atoms: S_9  and  C_10
REMARK    4  A    between atoms: C_10  and  C_11
REMARK    5  A    between atoms: C_16  and  C_17
REMARK    6  A    between atoms: C_22  and  O_23
REMARK    7  A    between atoms: O_23  and  C_24
REMARK                            x       y       z     vdW  Elec       q    Type
REMARK                         _______ _______ _______ _____ _____    ______ ____
ROOT
ATOM      1  C   UNL     1      47.780   7.638  12.589  0.00  0.00    +0.000 A 
ATOM      2  C   UNL     1      46.907   8.683  12.899  0.00  0.00    +0.000 A 
ATOM      3  C   UNL     1      45.574   8.609  12.523  0.00  0.00    +0.000 A 
ATOM      4  F   UNL     1      44.744   9.605  12.864  0.00  0.00    +0.000 F 
ATOM      5  C   UNL     1      45.075   7.515  11.820  0.00  0.00    +0.000 A 
ATOM      6  C   UNL     1      45.913   6.462  11.427  0.00  0.00    +0.000 A 
ATOM      7  C   UNL     1      47.276   6.566  11.814  0.00  0.00    +0.000 A 
ENDROOT
BRANCH   6   8
ATOM      8  C   UNL     1      45.389   5.248  10.716  0.00  0.00    +0.000 A 
ATOM      9  C   UNL     1      45.498   5.187   9.306  0.00  0.00    +0.000 A 
ATOM     10  C   UNL     1      45.080   4.077   8.567  0.00  0.00    +0.000 A 
ATOM     11  C   UNL     1      44.576   2.967   9.221  0.00  0.00    +0.000 A 
ATOM     12  C   UNL     1      44.454   2.983  10.608  0.00  0.00    +0.000 A 
ATOM     13  C   UNL     1      44.813   4.119  11.357  0.00  0.00    +0.000 A 
BRANCH  13  14
ATOM     14  O   UNL     1      44.637   4.169  12.720  0.00  0.00    +0.000 OA
BRANCH  14  15
ATOM     15  C   UNL     1      43.298   4.234  13.200  0.00  0.00    +0.000 C 
ATOM     16  F   UNL     1      42.674   5.289  12.611  0.00  0.00    +0.000 F 
ENDBRANCH  14  15
ENDBRANCH  13  14
ENDBRANCH   6   8
BRANCH   1  17
ATOM     17  C   UNL     1      49.241   7.634  13.006  0.00  0.00    +0.000 C 
BRANCH  17  18
ATOM     18  S   UNL     1      49.551   8.365  14.660  0.00  0.00    +0.000 S 
BRANCH  18  23
ATOM     19  C   UNL     1      48.300   4.912  16.428  0.00  0.00    +0.000 A 
ATOM     20  C   UNL     1      49.261   4.717  17.425  0.00  0.00    +0.000 A 
ATOM     21  C   UNL     1      50.304   5.634  17.568  0.00  0.00    +0.000 A 
ATOM     22  C   UNL     1      50.391   6.735  16.715  0.00  0.00    +0.000 A 
ATOM     23  C   UNL     1      49.448   6.924  15.698  0.00  0.00    +0.000 A 
ATOM     24  C   UNL     1      48.397   6.012  15.565  0.00  0.00    +0.000 A 
BRANCH  19  26
ATOM     25  N   UNL     1      46.805   3.686  14.944  0.00  0.00    +0.000 N 
ATOM     26  C   UNL     1      47.167   3.974  16.230  0.00  0.00    +0.000 C 
ATOM     27  O   UNL     1      46.601   3.447  17.179  0.00  0.00    +0.000 OA
ATOM     28  H   UNL     1      46.115   2.952  14.831  0.00  0.00    +0.000 HD
ATOM     29  H   UNL     1      47.402   3.890  14.157  0.00  0.00    +0.000 HD
ENDBRANCH  19  26
ENDBRANCH  18  23
ENDBRANCH  17  18
ENDBRANCH   1  17
TORSDOF 7
ENDMDL
MODEL 3
REMARK VINA RESULT:    -7.152      3.833      7.503
REMARK INTER + INTRA:         -11.074
REMARK INTER:                  -9.797
REMARK INTRA:                  -1.276
REMARK UNBOUND:                -0.994
REMARK  Name = 
REMARK  7 active torsions:
REMARK  status: ('A' for Active; 'I' for Inactive)
REMARK    1  A    between atoms: C_2  and  C_4
REMARK    2  A    between atoms: C_8  and  S_9
REMARK    3  A    between atoms: S_9  and  C_10
REMARK    4  A    between atoms: C_10  and  C_11
REMARK    5  A    between atoms: C_16  and  C_17
REMARK    6  A    between atoms: C_22  and  O_23
REMARK    7  A    between atoms: O_23  and  C_24
REMARK                            x       y       z     vdW  Elec       q    Type
REMARK                         _______ _______ _______ _____ _____    ______ ____
ROOT
ATOM      1  C   UNL     1      47.870   7.684  12.740  0.00  0.00    +0.000 A 
ATOM      2  C   UNL     1      47.226   8.908  12.543  0.00  0.00    +0.000 A 
ATOM      3  C   UNL     1      45.913   8.938  12.096  0.00  0.00    +0.000 A 
ATOM      4  F   UNL     1      45.302  10.122  11.951  0.00  0.00    +0.000 F 
ATOM      5  C   UNL     1      45.211   7.768  11.817  0.00  0.00    +0.000 A 
ATOM      6  C   UNL     1      45.820   6.511  11.938  0.00  0.00    +0.000 A 
ATOM      7  C   UNL     1      47.168   6.506  12.386  0.00  0.00    +0.000 A 
ENDROOT
BRANCH   6   8
ATOM      8  C   UNL     1      45.069   5.234  11.694  0.00  0.00    +0.000 A 
ATOM      9  C   UNL     1      44.391   4.626  12.778  0.00  0.00    +0.000 A 
ATOM     10  C   UNL     1      43.630   3.464  12.633  0.00  0.00    +0.000 A 
ATOM     11  C   UNL     1      43.485   2.890  11.382  0.00  0.00    +0.000 A 
ATOM     12  C   UNL     1      44.130   3.457  10.286  0.00  0.00    +0.000 A 
ATOM     13  C   UNL     1      44.951   4.592  10.432  0.00  0.00    +0.000 A 
BRANCH  13  14
ATOM     14  O   UNL     1      45.645   5.121   9.370  0.00  0.00    +0.000 OA
BRANCH  14  15
ATOM     15  C   UNL     1      45.843   4.279   8.239  0.00  0.00    +0.000 C 
ATOM     16  F   UNL     1      47.013   4.626   7.636  0.00  0.00    +0.000 F 
ENDBRANCH  14  15
ENDBRANCH  13  14
ENDBRANCH   6   8
BRANCH   1  17
ATOM     17  C   UNL     1      49.290   7.575  13.268  0.00  0.00    +0.000 C 
BRANCH  17  18
ATOM     18  S   UNL     1      49.531   8.308  14.933  0.00  0.00    +0.000 S 
BRANCH  18  23
ATOM     19  C   UNL     1      48.345   4.796  16.627  0.00  0.00    +0.000 A 
ATOM     20  C   UNL     1      49.257   4.642  17.676  0.00  0.00    +0.000 A 
ATOM     21  C   UNL     1      50.246   5.606  17.877  0.00  0.00    +0.000 A 
ATOM     22  C   UNL     1      50.330   6.713  17.031  0.00  0.00    +0.000 A 
ATOM     23  C   UNL     1      49.437   6.861  15.962  0.00  0.00    +0.000 A 
ATOM     24  C   UNL     1      48.439   5.901  15.771  0.00  0.00    +0.000 A 
BRANCH  19  26
ATOM     25  N   UNL     1      46.983   3.518  15.061  0.00  0.00    +0.000 N 
ATOM     26  C   UNL     1      47.270   3.807  16.365  0.00  0.00    +0.000 C 
ATOM     27  O   UNL     1      46.686   3.241  17.281  0.00  0.00    +0.000 OA
ATOM     28  H   UNL     1      46.336   2.753  14.908  0.00  0.00    +0.000 HD
ATOM     29  H   UNL     1      47.606   3.759  14.305  0.00  0.00    +0.000 HD
ENDBRANCH  19  26
ENDBRANCH  18  23
ENDBRANCH  17  18
ENDBRANCH   1  17
TORSDOF 7
ENDMDL
MODEL 4
REMARK VINA RESULT:    -7.046      4.209      7.597
REMARK INTER + INTRA:         -10.924
REMARK INTER:                  -9.609
REMARK INTRA:                  -1.315
REMARK UNBOUND:                -0.994
REMARK  Name = 
REMARK  7 active torsions:
REMARK  status: ('A' for Active; 'I' for Inactive)
REMARK    1  A    between atoms: C_2  and  C_4
REMARK    2  A    between atoms: C_8  and  S_9
REMARK    3  A    between atoms: S_9  and  C_10
REMARK    4  A    between atoms: C_10  and  C_11
REMARK    5  A    between atoms: C_16  and  C_17
REMARK    6  A    between atoms: C_22  and  O_23
REMARK    7  A    between atoms: O_23  and  C_24
REMARK                            x       y       z     vdW  Elec       q    Type
REMARK                         _______ _______ _______ _____ _____    ______ ____
ROOT
ATOM      1  C   UNL     1      47.536   7.449  12.894  0.00  0.00    +0.000 A 
ATOM      2  C   UNL     1      46.725   8.580  13.020  0.00  0.00    +0.000 A 
ATOM      3  C   UNL     1      45.491   8.623  12.388  0.00  0.00    +0.000 A 
ATOM      4  F   UNL     1      44.712   9.700  12.554  0.00  0.00    +0.000 F 
ATOM      5  C   UNL     1      45.035   7.564  11.606  0.00  0.00    +0.000 A 
ATOM      6  C   UNL     1      45.827   6.427  11.393  0.00  0.00    +0.000 A 
ATOM      7  C   UNL     1      47.091   6.411  12.040  0.00  0.00    +0.000 A 
ENDROOT
BRANCH   6   8
ATOM      8  C   UNL     1      45.337   5.251  10.598  0.00  0.00    +0.000 A 
ATOM      9  C   UNL     1      45.656   5.181   9.221  0.00  0.00    +0.000 A 
ATOM     10  C   UNL     1      45.281   4.102   8.416  0.00  0.00    +0.000 A 
ATOM     11  C   UNL     1      44.609   3.029   8.975  0.00  0.00    +0.000 A 
ATOM     12  C   UNL     1      44.279   3.054  10.328  0.00  0.00    +0.000 A 
ATOM     13  C   UNL     1      44.595   4.164  11.134  0.00  0.00    +0.000 A 
BRANCH  13  14
ATOM     14  O   UNL     1      44.216   4.227  12.454  0.00  0.00    +0.000 OA
BRANCH  14  15
ATOM     15  C   UNL     1      42.877   4.625  12.728  0.00  0.00    +0.000 C 
ATOM     16  F   UNL     1      42.409   5.340  11.670  0.00  0.00    +0.000 F 
ENDBRANCH  14  15
ENDBRANCH  13  14
ENDBRANCH   6   8
BRANCH   1  17
ATOM     17  C   UNL     1      48.879   7.317  13.592  0.00  0.00    +0.000 C 
BRANCH  17  18
ATOM     18  S   UNL     1      48.845   7.752  15.374  0.00  0.00    +0.000 S 
BRANCH  18  23
ATOM     19  C   UNL     1      49.640   4.402  17.556  0.00  0.00    +0.000 A 
ATOM     20  C   UNL     1      48.594   3.548  17.192  0.00  0.00    +0.000 A 
ATOM     21  C   UNL     1      47.633   3.984  16.279  0.00  0.00    +0.000 A 
ATOM     22  C   UNL     1      47.710   5.269  15.740  0.00  0.00    +0.000 A 
ATOM     23  C   UNL     1      48.738   6.140  16.119  0.00  0.00    +0.000 A 
ATOM     24  C   UNL     1      49.708   5.696  17.023  0.00  0.00    +0.000 A 
BRANCH  19  26
ATOM     25  N   UNL     1      51.468   2.918  18.185  0.00  0.00    +0.000 N 
ATOM     26  C   UNL     1      50.694   3.994  18.518  0.00  0.00    +0.000 C 
ATOM     27  O   UNL     1      50.890   4.617  19.554  0.00  0.00    +0.000 OA
ATOM     28  H   UNL     1      52.258   2.734  18.793  0.00  0.00    +0.000 HD
ATOM     29  H   UNL     1      51.509   2.553  17.246  0.00  0.00    +0.000 HD
ENDBRANCH  19  26
ENDBRANCH  18  23
ENDBRANCH  17  18
ENDBRANCH   1  17
TORSDOF 7
ENDMDL
MODEL 5
REMARK VINA RESULT:    -6.781      4.185      7.024
REMARK INTER + INTRA:         -10.551
REMARK INTER:                  -9.261
REMARK INTRA:                  -1.289
REMARK UNBOUND:                -0.994
REMARK  Name = 
REMARK  7 active torsions:
REMARK  status: ('A' for Active; 'I' for Inactive)
REMARK    1  A    between atoms: C_2  and  C_4
REMARK    2  A    between atoms: C_8  and  S_9
REMARK    3  A    between atoms: S_9  and  C_10
REMARK    4  A    between atoms: C_10  and  C_11
REMARK    5  A    between atoms: C_16  and  C_17
REMARK    6  A    between atoms: C_22  and  O_23
REMARK    7  A    between atoms: O_23  and  C_24
REMARK                            x       y       z     vdW  Elec       q    Type
REMARK                         _______ _______ _______ _____ _____    ______ ____
ROOT
ATOM      1  C   UNL     1      45.410   8.601  12.221  0.00  0.00    +0.000 A 
ATOM      2  C   UNL     1      46.457   8.422  13.127  0.00  0.00    +0.000 A 
ATOM      3  C   UNL     1      47.124   7.207  13.186  0.00  0.00    +0.000 A 
ATOM      4  F   UNL     1      48.152   7.068  14.035  0.00  0.00    +0.000 F 
ATOM      5  C   UNL     1      46.765   6.138  12.368  0.00  0.00    +0.000 A 
ATOM      6  C   UNL     1      45.685   6.235  11.480  0.00  0.00    +0.000 A 
ATOM      7  C   UNL     1      45.011   7.485  11.446  0.00  0.00    +0.000 A 
ENDROOT
BRANCH   6   8
ATOM      8  C   UNL     1      45.312   5.117  10.551  0.00  0.00    +0.000 A 
ATOM      9  C   UNL     1      45.759   5.169   9.209  0.00  0.00    +0.000 A 
ATOM     10  C   UNL     1      45.499   4.150   8.289  0.00  0.00    +0.000 A 
ATOM     11  C   UNL     1      44.815   3.017   8.695  0.00  0.00    +0.000 A 
ATOM     12  C   UNL     1      44.360   2.922  10.007  0.00  0.00    +0.000 A 
ATOM     13  C   UNL     1      44.561   3.970  10.926  0.00  0.00    +0.000 A 
BRANCH  13  14
ATOM     14  O   UNL     1      44.059   3.913  12.205  0.00  0.00    +0.000 OA
BRANCH  14  15
ATOM     15  C   UNL     1      42.827   4.582  12.449  0.00  0.00    +0.000 C 
ATOM     16  F   UNL     1      43.039   5.566  13.365  0.00  0.00    +0.000 F 
ENDBRANCH  14  15
ENDBRANCH  13  14
ENDBRANCH   6   8
BRANCH   1  17
ATOM     17  C   UNL     1      44.665   9.916  12.073  0.00  0.00    +0.000 C 
BRANCH  17  18
ATOM     18  S   UNL     1      43.452   9.942  10.697  0.00  0.00    +0.000 S 
BRANCH  18  23
ATOM     19  C   UNL     1      44.711  11.690   7.236  0.00  0.00    +0.000 A 
ATOM     20  C   UNL     1      45.706  12.566   7.684  0.00  0.00    +0.000 A 
ATOM     21  C   UNL     1      46.001  12.636   9.046  0.00  0.00    +0.000 A 
ATOM     22  C   UNL     1      45.303  11.843   9.957  0.00  0.00    +0.000 A 
ATOM     23  C   UNL     1      44.288  10.983   9.521  0.00  0.00    +0.000 A 
ATOM     24  C   UNL     1      44.003  10.904   8.155  0.00  0.00    +0.000 A 
BRANCH  19  26
ATOM     25  N   UNL     1      43.490  10.570   5.449  0.00  0.00    +0.000 N 
ATOM     26  C   UNL     1      44.355  11.568   5.801  0.00  0.00    +0.000 C 
ATOM     27  O   UNL     1      44.786  12.353   4.966  0.00  0.00    +0.000 OA
ATOM     28  H   UNL     1      43.165  10.582   4.489  0.00  0.00    +0.000 HD
ATOM     29  H   UNL     1      42.923  10.083   6.126  0.00  0.00    +0.000 HD
ENDBRANCH  19  26
ENDBRANCH  18  23
ENDBRANCH  17  18
ENDBRANCH   1  17
TORSDOF 7
ENDMDL
MODEL 6
REMARK VINA RESULT:    -6.708      3.387      5.373
REMARK INTER + INTRA:         -10.448
REMARK INTER:                  -9.088
REMARK INTRA:                  -1.360
REMARK UNBOUND:                -0.994
REMARK  Name = 
REMARK  7 active torsions:
REMARK  status: ('A' for Active; 'I' for Inactive)
REMARK    1  A    between atoms: C_2  and  C_4
REMARK    2  A    between atoms: C_8  and  S_9
REMARK    3  A    between atoms: S_9  and  C_10
REMARK    4  A    between atoms: C_10  and  C_11
REMARK    5  A    between atoms: C_16  and  C_17
REMARK    6  A    between atoms: C_22  and  O_23
REMARK    7  A    between atoms: O_23  and  C_24
REMARK                            x       y       z     vdW  Elec       q    Type
REMARK                         _______ _______ _______ _____ _____    ______ ____
ROOT
ATOM      1  C   UNL     1      48.339   7.249  12.687  0.00  0.00    +0.000 A 
ATOM      2  C   UNL     1      49.609   7.712  12.335  0.00  0.00    +0.000 A 
ATOM      3  C   UNL     1      50.572   7.911  13.314  0.00  0.00    +0.000 A 
ATOM      4  F   UNL     1      51.796   8.319  12.951  0.00  0.00    +0.000 F 
ATOM      5  C   UNL     1      50.302   7.675  14.660  0.00  0.00    +0.000 A 
ATOM      6  C   UNL     1      49.030   7.265  15.084  0.00  0.00    +0.000 A 
ATOM      7  C   UNL     1      48.058   7.080  14.065  0.00  0.00    +0.000 A 
ENDROOT
BRANCH   6   8
ATOM      8  C   UNL     1      48.730   6.953  16.521  0.00  0.00    +0.000 A 
ATOM      9  C   UNL     1      48.637   8.023  17.444  0.00  0.00    +0.000 A 
ATOM     10  C   UNL     1      48.316   7.829  18.790  0.00  0.00    +0.000 A 
ATOM     11  C   UNL     1      48.034   6.555  19.252  0.00  0.00    +0.000 A 
ATOM     12  C   UNL     1      48.109   5.474  18.378  0.00  0.00    +0.000 A 
ATOM     13  C   UNL     1      48.493   5.649  17.035  0.00  0.00    +0.000 A 
BRANCH  13  14
ATOM     14  O   UNL     1      48.633   4.582  16.180  0.00  0.00    +0.000 OA
BRANCH  14  15
ATOM     15  C   UNL     1      47.496   3.747  15.990  0.00  0.00    +0.000 C 
ATOM     16  F   UNL     1      46.621   4.383  15.164  0.00  0.00    +0.000 F 
ENDBRANCH  14  15
ENDBRANCH  13  14
ENDBRANCH   6   8
BRANCH   1  17
ATOM     17  C   UNL     1      47.252   6.969  11.664  0.00  0.00    +0.000 C 
BRANCH  17  18
ATOM     18  S   UNL     1      45.546   7.206  12.297  0.00  0.00    +0.000 S 
BRANCH  18  23
ATOM     19  C   UNL     1      44.377   3.709  10.560  0.00  0.00    +0.000 A 
ATOM     20  C   UNL     1      43.641   3.096  11.579  0.00  0.00    +0.000 A 
ATOM     21  C   UNL     1      43.495   3.740  12.809  0.00  0.00    +0.000 A 
ATOM     22  C   UNL     1      44.088   4.985  13.023  0.00  0.00    +0.000 A 
ATOM     23  C   UNL     1      44.848   5.594  12.018  0.00  0.00    +0.000 A 
ATOM     24  C   UNL     1      44.981   4.954  10.782  0.00  0.00    +0.000 A 
BRANCH  19  26
ATOM     25  N   UNL     1      44.704   1.717   9.196  0.00  0.00    +0.000 N 
ATOM     26  C   UNL     1      44.564   3.076   9.232  0.00  0.00    +0.000 C 
ATOM     27  O   UNL     1      44.554   3.738   8.201  0.00  0.00    +0.000 OA
ATOM     28  H   UNL     1      44.706   1.296   8.274  0.00  0.00    +0.000 HD
ATOM     29  H   UNL     1      44.460   1.128   9.977  0.00  0.00    +0.000 HD
ENDBRANCH  19  26
ENDBRANCH  18  23
ENDBRANCH  17  18
ENDBRANCH   1  17
TORSDOF 7
ENDMDL
MODEL 7
REMARK VINA RESULT:    -6.674      4.627      7.841
REMARK INTER + INTRA:         -10.399
REMARK INTER:                  -9.000
REMARK INTRA:                  -1.398
REMARK UNBOUND:                -0.994
REMARK  Name = 
REMARK  7 active torsions:
REMARK  status: ('A' for Active; 'I' for Inactive)
REMARK    1  A    between atoms: C_2  and  C_4
REMARK    2  A    between atoms: C_8  and  S_9
REMARK    3  A    between atoms: S_9  and  C_10
REMARK    4  A    between atoms: C_10  and  C_11
REMARK    5  A    between atoms: C_16  and  C_17
REMARK    6  A    between atoms: C_22  and  O_23
REMARK    7  A    between atoms: O_23  and  C_24
REMARK                            x       y       z     vdW  Elec       q    Type
REMARK                         _______ _______ _______ _____ _____    ______ ____
ROOT
ATOM      1  C   UNL     1      48.265   8.323  13.977  0.00  0.00    +0.000 A 
ATOM      2  C   UNL     1      49.160   8.281  12.905  0.00  0.00    +0.000 A 
ATOM      3  C   UNL     1      48.820   7.602  11.744  0.00  0.00    +0.000 A 
ATOM      4  F   UNL     1      49.676   7.606  10.713  0.00  0.00    +0.000 F 
ATOM      5  C   UNL     1      47.603   6.936  11.618  0.00  0.00    +0.000 A 
ATOM      6  C   UNL     1      46.688   6.892  12.679  0.00  0.00    +0.000 A 
ATOM      7  C   UNL     1      47.063   7.585  13.861  0.00  0.00    +0.000 A 
ENDROOT
BRANCH   6   8
ATOM      8  C   UNL     1      45.348   6.227  12.550  0.00  0.00    +0.000 A 
ATOM      9  C   UNL     1      44.404   6.770  11.646  0.00  0.00    +0.000 A 
ATOM     10  C   UNL     1      43.151   6.190  11.428  0.00  0.00    +0.000 A 
ATOM     11  C   UNL     1      42.816   5.016  12.078  0.00  0.00    +0.000 A 
ATOM     12  C   UNL     1      43.717   4.444  12.973  0.00  0.00    +0.000 A 
ATOM     13  C   UNL     1      44.955   5.054  13.249  0.00  0.00    +0.000 A 
BRANCH  13  14
ATOM     14  O   UNL     1      45.824   4.533  14.178  0.00  0.00    +0.000 OA
BRANCH  14  15
ATOM     15  C   UNL     1      46.767   3.570  13.719  0.00  0.00    +0.000 C 
ATOM     16  F   UNL     1      46.238   2.919  12.648  0.00  0.00    +0.000 F 
ENDBRANCH  14  15
ENDBRANCH  13  14
ENDBRANCH   6   8
BRANCH   1  17
ATOM     17  C   UNL     1      48.553   9.082  15.260  0.00  0.00    +0.000 C 
BRANCH  17  18
ATOM     18  S   UNL     1      49.829   8.303  16.324  0.00  0.00    +0.000 S 
BRANCH  18  23
ATOM     19  C   UNL     1      47.771   5.161  17.907  0.00  0.00    +0.000 A 
ATOM     20  C   UNL     1      47.138   5.740  19.013  0.00  0.00    +0.000 A 
ATOM     21  C   UNL     1      47.335   7.094  19.290  0.00  0.00    +0.000 A 
ATOM     22  C   UNL     1      48.164   7.864  18.474  0.00  0.00    +0.000 A 
ATOM     23  C   UNL     1      48.822   7.287  17.381  0.00  0.00    +0.000 A 
ATOM     24  C   UNL     1      48.613   5.934  17.097  0.00  0.00    +0.000 A 
BRANCH  19  26
ATOM     25  N   UNL     1      48.694   2.920  17.659  0.00  0.00    +0.000 N 
ATOM     26  C   UNL     1      47.598   3.730  17.560  0.00  0.00    +0.000 C 
ATOM     27  O   UNL     1      46.507   3.278  17.233  0.00  0.00    +0.000 OA
ATOM     28  H   UNL     1      48.526   1.928  17.538  0.00  0.00    +0.000 HD
ATOM     29  H   UNL     1      49.523   3.193  18.165  0.00  0.00    +0.000 HD
ENDBRANCH  19  26
ENDBRANCH  18  23
ENDBRANCH  17  18
ENDBRANCH   1  17
TORSDOF 7
ENDMDL
MODEL 8
REMARK VINA RESULT:    -6.592      4.659      7.053
REMARK INTER + INTRA:         -10.284
REMARK INTER:                  -8.582
REMARK INTRA:                  -1.702
REMARK UNBOUND:                -0.994
REMARK  Name = 
REMARK  7 active torsions:
REMARK  status: ('A' for Active; 'I' for Inactive)
REMARK    1  A    between atoms: C_2  and  C_4
REMARK    2  A    between atoms: C_8  and  S_9
REMARK    3  A    between atoms: S_9  and  C_10
REMARK    4  A    between atoms: C_10  and  C_11
REMARK    5  A    between atoms: C_16  and  C_17
REMARK    6  A    between atoms: C_22  and  O_23
REMARK    7  A    between atoms: O_23  and  C_24
REMARK                            x       y       z     vdW  Elec       q    Type
REMARK                         _______ _______ _______ _____ _____    ______ ____
ROOT
ATOM      1  C   UNL     1      49.238   8.158  15.788  0.00  0.00    +0.000 A 
ATOM      2  C   UNL     1      48.441   8.629  16.834  0.00  0.00    +0.000 A 
ATOM      3  C   UNL     1      48.351   7.909  18.017  0.00  0.00    +0.000 A 
ATOM      4  F   UNL     1      47.612   8.397  19.022  0.00  0.00    +0.000 F 
ATOM      5  C   UNL     1      49.030   6.705  18.191  0.00  0.00    +0.000 A 
ATOM      6  C   UNL     1      49.799   6.151  17.158  0.00  0.00    +0.000 A 
ATOM      7  C   UNL     1      49.866   6.900  15.953  0.00  0.00    +0.000 A 
ENDROOT
BRANCH   6   8
ATOM      8  C   UNL     1      50.582   4.883  17.338  0.00  0.00    +0.000 A 
ATOM      9  C   UNL     1      51.931   4.970  17.757  0.00  0.00    +0.000 A 
ATOM     10  C   UNL     1      52.720   3.841  17.995  0.00  0.00    +0.000 A 
ATOM     11  C   UNL     1      52.168   2.579  17.863  0.00  0.00    +0.000 A 
ATOM     12  C   UNL     1      50.843   2.446  17.457  0.00  0.00    +0.000 A 
ATOM     13  C   UNL     1      50.058   3.574  17.153  0.00  0.00    +0.000 A 
BRANCH  13  14
ATOM     14  O   UNL     1      48.769   3.453  16.690  0.00  0.00    +0.000 OA
BRANCH  14  15
ATOM     15  C   UNL     1      47.769   3.097  17.638  0.00  0.00    +0.000 C 
ATOM     16  F   UNL     1      46.913   4.144  17.783  0.00  0.00    +0.000 F 
ENDBRANCH  14  15
ENDBRANCH  13  14
ENDBRANCH   6   8
BRANCH   1  17
ATOM     17  C   UNL     1      49.415   8.915  14.484  0.00  0.00    +0.000 C 
BRANCH  17  18
ATOM     18  S   UNL     1      49.499   7.841  12.998  0.00  0.00    +0.000 S 
BRANCH  18  23
ATOM     19  C   UNL     1      46.486   5.102  13.165  0.00  0.00    +0.000 A 
ATOM     20  C   UNL     1      45.347   5.893  12.981  0.00  0.00    +0.000 A 
ATOM     21  C   UNL     1      45.484   7.271  12.807  0.00  0.00    +0.000 A 
ATOM     22  C   UNL     1      46.750   7.857  12.825  0.00  0.00    +0.000 A 
ATOM     23  C   UNL     1      47.893   7.077  13.035  0.00  0.00    +0.000 A 
ATOM     24  C   UNL     1      47.755   5.695  13.195  0.00  0.00    +0.000 A 
BRANCH  19  26
ATOM     25  N   UNL     1      45.409   2.968  12.689  0.00  0.00    +0.000 N 
ATOM     26  C   UNL     1      46.404   3.633  13.351  0.00  0.00    +0.000 C 
ATOM     27  O   UNL     1      47.217   3.029  14.039  0.00  0.00    +0.000 OA
ATOM     28  H   UNL     1      45.447   1.956  12.731  0.00  0.00    +0.000 HD
ATOM     29  H   UNL     1      44.898   3.384  11.926  0.00  0.00    +0.000 HD
ENDBRANCH  19  26
ENDBRANCH  18  23
ENDBRANCH  17  18
ENDBRANCH   1  17
TORSDOF 7
ENDMDL
MODEL 9
REMARK VINA RESULT:    -6.407      3.947      6.055
REMARK INTER + INTRA:         -10.023
REMARK INTER:                  -8.406
REMARK INTRA:                  -1.617
REMARK UNBOUND:                -0.994
REMARK  Name = 
REMARK  7 active torsions:
REMARK  status: ('A' for Active; 'I' for Inactive)
REMARK    1  A    between atoms: C_2  and  C_4
REMARK    2  A    between atoms: C_8  and  S_9
REMARK    3  A    between atoms: S_9  and  C_10
REMARK    4  A    between atoms: C_10  and  C_11
REMARK    5  A    between atoms: C_16  and  C_17
REMARK    6  A    between atoms: C_22  and  O_23
REMARK    7  A    between atoms: O_23  and  C_24
REMARK                            x       y       z     vdW  Elec       q    Type
REMARK                         _______ _______ _______ _____ _____    ______ ____
ROOT
ATOM      1  C   UNL     1      48.253   8.237  14.520  0.00  0.00    +0.000 A 
ATOM      2  C   UNL     1      48.036   9.326  15.367  0.00  0.00    +0.000 A 
ATOM      3  C   UNL     1      48.384   9.244  16.708  0.00  0.00    +0.000 A 
ATOM      4  F   UNL     1      48.203  10.313  17.495  0.00  0.00    +0.000 F 
ATOM      5  C   UNL     1      48.938   8.085  17.247  0.00  0.00    +0.000 A 
ATOM      6  C   UNL     1      49.127   6.938  16.462  0.00  0.00    +0.000 A 
ATOM      7  C   UNL     1      48.752   7.043  15.097  0.00  0.00    +0.000 A 
ENDROOT
BRANCH   6   8
ATOM      8  C   UNL     1      49.770   5.696  17.007  0.00  0.00    +0.000 A 
ATOM      9  C   UNL     1      51.180   5.586  16.964  0.00  0.00    +0.000 A 
ATOM     10  C   UNL     1      51.865   4.487  17.490  0.00  0.00    +0.000 A 
ATOM     11  C   UNL     1      51.161   3.476  18.118  0.00  0.00    +0.000 A 
ATOM     12  C   UNL     1      49.772   3.545  18.187  0.00  0.00    +0.000 A 
ATOM     13  C   UNL     1      49.067   4.616  17.605  0.00  0.00    +0.000 A 
BRANCH  13  14
ATOM     14  O   UNL     1      47.692   4.662  17.611  0.00  0.00    +0.000 OA
BRANCH  14  15
ATOM     15  C   UNL     1      47.009   3.780  16.725  0.00  0.00    +0.000 C 
ATOM     16  F   UNL     1      47.659   3.773  15.530  0.00  0.00    +0.000 F 
ENDBRANCH  14  15
ENDBRANCH  13  14
ENDBRANCH   6   8
BRANCH   1  17
ATOM     17  C   UNL     1      47.936   8.272  13.036  0.00  0.00    +0.000 C 
BRANCH  17  18
ATOM     18  S   UNL     1      46.143   8.352  12.653  0.00  0.00    +0.000 S 
BRANCH  18  23
ATOM     19  C   UNL     1      45.328   4.913  10.623  0.00  0.00    +0.000 A 
ATOM     20  C   UNL     1      45.156   3.985  11.656  0.00  0.00    +0.000 A 
ATOM     21  C   UNL     1      45.291   4.396  12.983  0.00  0.00    +0.000 A 
ATOM     22  C   UNL     1      45.602   5.724  13.277  0.00  0.00    +0.000 A 
ATOM     23  C   UNL     1      45.801   6.654  12.249  0.00  0.00    +0.000 A 
ATOM     24  C   UNL     1      45.653   6.243  10.921  0.00  0.00    +0.000 A 
BRANCH  19  26
ATOM     25  N   UNL     1      44.162   3.707   8.855  0.00  0.00    +0.000 N 
ATOM     26  C   UNL     1      45.194   4.536   9.194  0.00  0.00    +0.000 C 
ATOM     27  O   UNL     1      45.953   4.980   8.342  0.00  0.00    +0.000 OA
ATOM     28  H   UNL     1      44.016   3.564   7.863  0.00  0.00    +0.000 HD
ATOM     29  H   UNL     1      43.381   3.539   9.470  0.00  0.00    +0.000 HD
ENDBRANCH  19  26
ENDBRANCH  18  23
ENDBRANCH  17  18
ENDBRANCH   1  17
TORSDOF 7
ENDMDL
