MODEL 1
REMARK VINA RESULT:    -7.945      0.000      0.000
REMARK INTER + INTRA:         -11.133
REMARK INTER:                 -10.267
REMARK INTRA:                  -0.866
REMARK UNBOUND:                -0.866
REMARK  Name = 
REMARK  7 active torsions:
REMARK  status: ('A' for Active; 'I' for Inactive)
REMARK    1  A    between atoms: C_1  and  C_2
REMARK    2  A    between atoms: C_2  and  C_3
REMARK    3  A    between atoms: C_2  and  C_4
REMARK    4  A    between atoms: C_2  and  C_15
REMARK    5  A    between atoms: C_5  and  C_6
REMARK    6  A    between atoms: C_10  and  C_11
REMARK    7  A    between atoms: C_19  and  C_20
REMARK                            x       y       z     vdW  Elec       q    Type
REMARK                         _______ _______ _______ _____ _____    ______ ____
ROOT
ATOM      1  C   UNL     1      43.451   2.207  11.429  0.00  0.00    +0.000 C 
ATOM      2  C   UNL     1      44.156   3.579  11.303  0.00  0.00    +0.000 C 
ATOM      3  C   UNL     1      43.073   4.679  11.404  0.00  0.00    +0.000 C 
ENDROOT
BRANCH   2   4
ATOM      4  C   UNL     1      44.872   3.564   9.936  0.00  0.00    +0.000 A 
ATOM      5  C   UNL     1      45.189   4.762   9.266  0.00  0.00    +0.000 A 
ATOM      6  C   UNL     1      45.955   4.765   8.097  0.00  0.00    +0.000 A 
ATOM      7  C   UNL     1      46.452   3.570   7.588  0.00  0.00    +0.000 A 
ATOM      8  C   UNL     1      46.174   2.366   8.239  0.00  0.00    +0.000 A 
ATOM      9  C   UNL     1      45.363   2.364   9.384  0.00  0.00    +0.000 A 
BRANCH   8  10
ATOM     10  C   UNL     1      46.797   1.121   7.715  0.00  0.00    +0.000 C 
ATOM     11  N   UNL     1      47.833   1.260   6.832  0.00  0.00    +0.000 N 
ATOM     12  O   UNL     1      46.370   0.011   8.010  0.00  0.00    +0.000 OA
ATOM     13  H   UNL     1      48.046   2.135   6.377  0.00  0.00    +0.000 HD
ATOM     14  H   UNL     1      48.146   0.412   6.379  0.00  0.00    +0.000 HD
ENDBRANCH   8  10
ENDBRANCH   2   4
BRANCH   2  15
ATOM     15  C   UNL     1      45.125   3.859  12.455  0.00  0.00    +0.000 C 
ATOM     16  C   UNL     1      45.849   4.978  12.640  0.00  0.00    +0.000 C 
BRANCH  16  17
ATOM     17  C   UNL     1      46.777   5.213  13.755  0.00  0.00    +0.000 A 
ATOM     18  C   UNL     1      47.637   6.318  13.798  0.00  0.00    +0.000 A 
ATOM     19  C   UNL     1      48.484   6.520  14.888  0.00  0.00    +0.000 A 
ATOM     20  C   UNL     1      48.461   5.633  15.962  0.00  0.00    +0.000 A 
ATOM     21  C   UNL     1      47.578   4.547  15.956  0.00  0.00    +0.000 A 
ATOM     22  C   UNL     1      46.750   4.331  14.847  0.00  0.00    +0.000 A 
BRANCH  21  23
ATOM     23  C   UNL     1      47.559   3.653  17.142  0.00  0.00    +0.000 C 
ATOM     24  N   UNL     1      48.707   3.542  17.875  0.00  0.00    +0.000 N 
ATOM     25  O   UNL     1      46.566   2.995  17.434  0.00  0.00    +0.000 OA
ATOM     26  H   UNL     1      49.603   3.860  17.533  0.00  0.00    +0.000 HD
ATOM     27  H   UNL     1      48.706   2.829  18.591  0.00  0.00    +0.000 HD
ENDBRANCH  21  23
ENDBRANCH  16  17
ENDBRANCH   2  15
TORSDOF 5
ENDMDL
MODEL 2
REMARK VINA RESULT:    -7.167      3.338      8.179
REMARK INTER + INTRA:         -10.128
REMARK INTER:                  -9.284
REMARK INTRA:                  -0.844
REMARK UNBOUND:                -0.866
REMARK  Name = 
REMARK  7 active torsions:
REMARK  status: ('A' for Active; 'I' for Inactive)
REMARK    1  A    between atoms: C_1  and  C_2
REMARK    2  A    between atoms: C_2  and  C_3
REMARK    3  A    between atoms: C_2  and  C_4
REMARK    4  A    between atoms: C_2  and  C_15
REMARK    5  A    between atoms: C_5  and  C_6
REMARK    6  A    between atoms: C_10  and  C_11
REMARK    7  A    between atoms: C_19  and  C_20
REMARK                            x       y       z     vdW  Elec       q    Type
REMARK                         _______ _______ _______ _____ _____    ______ ____
ROOT
ATOM      1  C   UNL     1      47.723   5.050  18.542  0.00  0.00    +0.000 C 
ATOM      2  C   UNL     1      48.131   4.189  17.322  0.00  0.00    +0.000 C 
ATOM      3  C   UNL     1      47.360   2.850  17.408  0.00  0.00    +0.000 C 
ENDROOT
BRANCH   2   4
ATOM      4  C   UNL     1      49.660   4.010  17.422  0.00  0.00    +0.000 A 
ATOM      5  C   UNL     1      50.501   5.093  17.748  0.00  0.00    +0.000 A 
ATOM      6  C   UNL     1      51.869   4.913  17.972  0.00  0.00    +0.000 A 
ATOM      7  C   UNL     1      52.423   3.639  17.912  0.00  0.00    +0.000 A 
ATOM      8  C   UNL     1      51.614   2.541  17.613  0.00  0.00    +0.000 A 
ATOM      9  C   UNL     1      50.251   2.734  17.338  0.00  0.00    +0.000 A 
BRANCH   8  10
ATOM     10  C   UNL     1      52.224   1.185  17.645  0.00  0.00    +0.000 C 
ATOM     11  N   UNL     1      51.480   0.174  18.189  0.00  0.00    +0.000 N 
ATOM     12  O   UNL     1      53.368   0.982  17.258  0.00  0.00    +0.000 OA
ATOM     13  H   UNL     1      50.651   0.343  18.739  0.00  0.00    +0.000 HD
ATOM     14  H   UNL     1      51.963  -0.703  18.333  0.00  0.00    +0.000 HD
ENDBRANCH   8  10
ENDBRANCH   2   4
BRANCH   2  15
ATOM     15  C   UNL     1      47.711   4.810  15.987  0.00  0.00    +0.000 C 
ATOM     16  C   UNL     1      46.972   4.226  15.027  0.00  0.00    +0.000 C 
BRANCH  16  17
ATOM     17  C   UNL     1      46.593   4.848  13.751  0.00  0.00    +0.000 A 
ATOM     18  C   UNL     1      47.266   5.959  13.226  0.00  0.00    +0.000 A 
ATOM     19  C   UNL     1      46.892   6.503  11.998  0.00  0.00    +0.000 A 
ATOM     20  C   UNL     1      45.858   5.924  11.264  0.00  0.00    +0.000 A 
ATOM     21  C   UNL     1      45.203   4.788  11.752  0.00  0.00    +0.000 A 
ATOM     22  C   UNL     1      45.562   4.262  13.000  0.00  0.00    +0.000 A 
BRANCH  21  23
ATOM     23  C   UNL     1      44.137   4.181  10.916  0.00  0.00    +0.000 C 
ATOM     24  N   UNL     1      43.942   4.690   9.662  0.00  0.00    +0.000 N 
ATOM     25  O   UNL     1      43.416   3.286  11.344  0.00  0.00    +0.000 OA
ATOM     26  H   UNL     1      44.333   5.575   9.369  0.00  0.00    +0.000 HD
ATOM     27  H   UNL     1      43.128   4.352   9.169  0.00  0.00    +0.000 HD
ENDBRANCH  21  23
ENDBRANCH  16  17
ENDBRANCH   2  15
TORSDOF 5
ENDMDL
MODEL 3
REMARK VINA RESULT:    -7.097      3.007      7.471
REMARK INTER + INTRA:         -10.038
REMARK INTER:                  -9.110
REMARK INTRA:                  -0.928
REMARK UNBOUND:                -0.866
REMARK  Name = 
REMARK  7 active torsions:
REMARK  status: ('A' for Active; 'I' for Inactive)
REMARK    1  A    between atoms: C_1  and  C_2
REMARK    2  A    between atoms: C_2  and  C_3
REMARK    3  A    between atoms: C_2  and  C_4
REMARK    4  A    between atoms: C_2  and  C_15
REMARK    5  A    between atoms: C_5  and  C_6
REMARK    6  A    between atoms: C_10  and  C_11
REMARK    7  A    between atoms: C_19  and  C_20
REMARK                            x       y       z     vdW  Elec       q    Type
REMARK                         _______ _______ _______ _____ _____    ______ ____
ROOT
ATOM      1  C   UNL     1      43.114   6.542  11.030  0.00  0.00    +0.000 C 
ATOM      2  C   UNL     1      44.291   5.822  11.732  0.00  0.00    +0.000 C 
ATOM      3  C   UNL     1      43.778   5.291  13.092  0.00  0.00    +0.000 C 
ENDROOT
BRANCH   2   4
ATOM      4  C   UNL     1      45.407   6.877  11.880  0.00  0.00    +0.000 A 
ATOM      5  C   UNL     1      45.114   8.255  11.856  0.00  0.00    +0.000 A 
ATOM      6  C   UNL     1      46.094   9.215  12.124  0.00  0.00    +0.000 A 
ATOM      7  C   UNL     1      47.385   8.817  12.457  0.00  0.00    +0.000 A 
ATOM      8  C   UNL     1      47.704   7.458  12.510  0.00  0.00    +0.000 A 
ATOM      9  C   UNL     1      46.728   6.501  12.191  0.00  0.00    +0.000 A 
BRANCH   8  10
ATOM     10  C   UNL     1      49.068   7.071  12.956  0.00  0.00    +0.000 C 
ATOM     11  N   UNL     1      50.078   7.154  12.035  0.00  0.00    +0.000 N 
ATOM     12  O   UNL     1      49.282   6.638  14.081  0.00  0.00    +0.000 OA
ATOM     13  H   UNL     1      49.905   7.261  11.046  0.00  0.00    +0.000 HD
ATOM     14  H   UNL     1      50.963   6.752  12.311  0.00  0.00    +0.000 HD
ENDBRANCH   8  10
ENDBRANCH   2   4
BRANCH   2  15
ATOM     15  C   UNL     1      44.770   4.582  10.970  0.00  0.00    +0.000 C 
ATOM     16  C   UNL     1      44.988   4.489   9.646  0.00  0.00    +0.000 C 
BRANCH  16  17
ATOM     17  C   UNL     1      45.443   3.280   8.945  0.00  0.00    +0.000 A 
ATOM     18  C   UNL     1      44.992   1.998   9.286  0.00  0.00    +0.000 A 
ATOM     19  C   UNL     1      45.427   0.878   8.576  0.00  0.00    +0.000 A 
ATOM     20  C   UNL     1      46.296   1.031   7.498  0.00  0.00    +0.000 A 
ATOM     21  C   UNL     1      46.723   2.307   7.116  0.00  0.00    +0.000 A 
ATOM     22  C   UNL     1      46.307   3.427   7.848  0.00  0.00    +0.000 A 
BRANCH  21  23
ATOM     23  C   UNL     1      47.614   2.423   5.934  0.00  0.00    +0.000 C 
ATOM     24  N   UNL     1      47.353   3.418   5.033  0.00  0.00    +0.000 N 
ATOM     25  O   UNL     1      48.527   1.628   5.737  0.00  0.00    +0.000 OA
ATOM     26  H   UNL     1      46.478   3.925   5.023  0.00  0.00    +0.000 HD
ATOM     27  H   UNL     1      47.887   3.390   4.177  0.00  0.00    +0.000 HD
ENDBRANCH  21  23
ENDBRANCH  16  17
ENDBRANCH   2  15
TORSDOF 5
ENDMDL
MODEL 4
REMARK VINA RESULT:    -6.982      1.882      2.359
REMARK INTER + INTRA:          -9.889
REMARK INTER:                  -9.007
REMARK INTRA:                  -0.882
REMARK UNBOUND:                -0.866
REMARK  Name = 
REMARK  7 active torsions:
REMARK  status: ('A' for Active; 'I' for Inactive)
REMARK    1  A    between atoms: C_1  and  C_2
REMARK    2  A    between atoms: C_2  and  C_3
REMARK    3  A    between atoms: C_2  and  C_4
REMARK    4  A    between atoms: C_2  and  C_15
REMARK    5  A    between atoms: C_5  and  C_6
REMARK    6  A    between atoms: C_10  and  C_11
REMARK    7  A    between atoms: C_19  and  C_20
REMARK                            x       y       z     vdW  Elec       q    Type
REMARK                         _______ _______ _______ _____ _____    ______ ____
ROOT
ATOM      1  C   UNL     1      43.519   2.057  11.379  0.00  0.00    +0.000 C 
ATOM      2  C   UNL     1      44.188   3.447  11.263  0.00  0.00    +0.000 C 
ATOM      3  C   UNL     1      43.080   4.520  11.386  0.00  0.00    +0.000 C 
ENDROOT
BRANCH   2   4
ATOM      4  C   UNL     1      44.892   3.465   9.889  0.00  0.00    +0.000 A 
ATOM      5  C   UNL     1      45.184   4.679   9.236  0.00  0.00    +0.000 A 
ATOM      6  C   UNL     1      45.939   4.712   8.060  0.00  0.00    +0.000 A 
ATOM      7  C   UNL     1      46.450   3.534   7.527  0.00  0.00    +0.000 A 
ATOM      8  C   UNL     1      46.198   2.315   8.162  0.00  0.00    +0.000 A 
ATOM      9  C   UNL     1      45.397   2.283   9.314  0.00  0.00    +0.000 A 
BRANCH   8  10
ATOM     10  C   UNL     1      46.836   1.089   7.613  0.00  0.00    +0.000 C 
ATOM     11  N   UNL     1      47.782   1.255   6.639  0.00  0.00    +0.000 N 
ATOM     12  O   UNL     1      46.495  -0.032   7.970  0.00  0.00    +0.000 OA
ATOM     13  H   UNL     1      47.909   2.127   6.146  0.00  0.00    +0.000 HD
ATOM     14  H   UNL     1      48.097   0.412   6.179  0.00  0.00    +0.000 HD
ENDBRANCH   8  10
ENDBRANCH   2   4
BRANCH   2  15
ATOM     15  C   UNL     1      45.161   3.739  12.409  0.00  0.00    +0.000 C 
ATOM     16  C   UNL     1      45.700   4.932  12.721  0.00  0.00    +0.000 C 
BRANCH  16  17
ATOM     17  C   UNL     1      46.637   5.177  13.825  0.00  0.00    +0.000 A 
ATOM     18  C   UNL     1      46.710   4.344  14.949  0.00  0.00    +0.000 A 
ATOM     19  C   UNL     1      47.633   4.596  15.964  0.00  0.00    +0.000 A 
ATOM     20  C   UNL     1      48.516   5.669  15.853  0.00  0.00    +0.000 A 
ATOM     21  C   UNL     1      48.486   6.486  14.717  0.00  0.00    +0.000 A 
ATOM     22  C   UNL     1      47.538   6.248  13.714  0.00  0.00    +0.000 A 
BRANCH  21  23
ATOM     23  C   UNL     1      49.474   7.591  14.623  0.00  0.00    +0.000 C 
ATOM     24  N   UNL     1      49.799   8.256  15.773  0.00  0.00    +0.000 N 
ATOM     25  O   UNL     1      49.952   7.936  13.548  0.00  0.00    +0.000 OA
ATOM     26  H   UNL     1      49.253   8.175  16.620  0.00  0.00    +0.000 HD
ATOM     27  H   UNL     1      50.366   9.084  15.660  0.00  0.00    +0.000 HD
ENDBRANCH  21  23
ENDBRANCH  16  17
ENDBRANCH   2  15
TORSDOF 5
ENDMDL
MODEL 5
REMARK VINA RESULT:    -6.968      2.609      3.971
REMARK INTER + INTRA:          -9.870
REMARK INTER:                  -8.922
REMARK INTRA:                  -0.948
REMARK UNBOUND:                -0.866
REMARK  Name = 
REMARK  7 active torsions:
REMARK  status: ('A' for Active; 'I' for Inactive)
REMARK    1  A    between atoms: C_1  and  C_2
REMARK    2  A    between atoms: C_2  and  C_3
REMARK    3  A    between atoms: C_2  and  C_4
REMARK    4  A    between atoms: C_2  and  C_15
REMARK    5  A    between atoms: C_5  and  C_6
REMARK    6  A    between atoms: C_10  and  C_11
REMARK    7  A    between atoms: C_19  and  C_20
REMARK                            x       y       z     vdW  Elec       q    Type
REMARK                         _______ _______ _______ _____ _____    ______ ____
ROOT
ATOM      1  C   UNL     1      46.053   8.282  12.610  0.00  0.00    +0.000 C 
ATOM      2  C   UNL     1      46.907   7.032  12.288  0.00  0.00    +0.000 C 
ATOM      3  C   UNL     1      48.145   7.497  11.486  0.00  0.00    +0.000 C 
ENDROOT
BRANCH   2   4
ATOM      4  C   UNL     1      45.989   6.087  11.484  0.00  0.00    +0.000 A 
ATOM      5  C   UNL     1      46.130   5.948  10.089  0.00  0.00    +0.000 A 
ATOM      6  C   UNL     1      45.397   4.997   9.372  0.00  0.00    +0.000 A 
ATOM      7  C   UNL     1      44.530   4.138  10.040  0.00  0.00    +0.000 A 
ATOM      8  C   UNL     1      44.383   4.235  11.425  0.00  0.00    +0.000 A 
ATOM      9  C   UNL     1      45.083   5.225  12.133  0.00  0.00    +0.000 A 
BRANCH   8  10
ATOM     10  C   UNL     1      43.516   3.242  12.114  0.00  0.00    +0.000 C 
ATOM     11  N   UNL     1      43.398   3.347  13.473  0.00  0.00    +0.000 N 
ATOM     12  O   UNL     1      42.972   2.329  11.506  0.00  0.00    +0.000 OA
ATOM     13  H   UNL     1      44.017   3.916  14.031  0.00  0.00    +0.000 HD
ATOM     14  H   UNL     1      42.925   2.582  13.937  0.00  0.00    +0.000 HD
ENDBRANCH   8  10
ENDBRANCH   2   4
BRANCH   2  15
ATOM     15  C   UNL     1      47.470   6.355  13.542  0.00  0.00    +0.000 C 
ATOM     16  C   UNL     1      48.333   6.891  14.423  0.00  0.00    +0.000 C 
BRANCH  16  17
ATOM     17  C   UNL     1      48.861   6.211  15.614  0.00  0.00    +0.000 A 
ATOM     18  C   UNL     1      50.055   6.599  16.235  0.00  0.00    +0.000 A 
ATOM     19  C   UNL     1      50.508   5.944  17.381  0.00  0.00    +0.000 A 
ATOM     20  C   UNL     1      49.755   4.911  17.937  0.00  0.00    +0.000 A 
ATOM     21  C   UNL     1      48.538   4.539  17.355  0.00  0.00    +0.000 A 
ATOM     22  C   UNL     1      48.101   5.179  16.188  0.00  0.00    +0.000 A 
BRANCH  21  23
ATOM     23  C   UNL     1      47.751   3.462  18.007  0.00  0.00    +0.000 C 
ATOM     24  N   UNL     1      48.159   3.029  19.238  0.00  0.00    +0.000 N 
ATOM     25  O   UNL     1      46.793   2.938  17.448  0.00  0.00    +0.000 OA
ATOM     26  H   UNL     1      49.071   3.249  19.616  0.00  0.00    +0.000 HD
ATOM     27  H   UNL     1      47.691   2.209  19.596  0.00  0.00    +0.000 HD
ENDBRANCH  21  23
ENDBRANCH  16  17
ENDBRANCH   2  15
TORSDOF 5
ENDMDL
MODEL 6
REMARK VINA RESULT:    -6.732      2.628      7.507
REMARK INTER + INTRA:          -9.566
REMARK INTER:                  -8.586
REMARK INTRA:                  -0.980
REMARK UNBOUND:                -0.866
REMARK  Name = 
REMARK  7 active torsions:
REMARK  status: ('A' for Active; 'I' for Inactive)
REMARK    1  A    between atoms: C_1  and  C_2
REMARK    2  A    between atoms: C_2  and  C_3
REMARK    3  A    between atoms: C_2  and  C_4
REMARK    4  A    between atoms: C_2  and  C_15
REMARK    5  A    between atoms: C_5  and  C_6
REMARK    6  A    between atoms: C_10  and  C_11
REMARK    7  A    between atoms: C_19  and  C_20
REMARK                            x       y       z     vdW  Elec       q    Type
REMARK                         _______ _______ _______ _____ _____    ______ ____
ROOT
ATOM      1  C   UNL     1      49.895   8.053  11.910  0.00  0.00    +0.000 C 
ATOM      2  C   UNL     1      48.479   7.937  12.525  0.00  0.00    +0.000 C 
ATOM      3  C   UNL     1      47.695   9.219  12.154  0.00  0.00    +0.000 C 
ENDROOT
BRANCH   2   4
ATOM      4  C   UNL     1      48.689   7.780  14.046  0.00  0.00    +0.000 A 
ATOM      5  C   UNL     1      48.860   8.905  14.878  0.00  0.00    +0.000 A 
ATOM      6  C   UNL     1      48.915   8.782  16.269  0.00  0.00    +0.000 A 
ATOM      7  C   UNL     1      48.766   7.533  16.865  0.00  0.00    +0.000 A 
ATOM      8  C   UNL     1      48.574   6.401  16.070  0.00  0.00    +0.000 A 
ATOM      9  C   UNL     1      48.570   6.524  14.672  0.00  0.00    +0.000 A 
BRANCH   8  10
ATOM     10  C   UNL     1      48.330   5.099  16.745  0.00  0.00    +0.000 C 
ATOM     11  N   UNL     1      47.201   4.991  17.511  0.00  0.00    +0.000 N 
ATOM     12  O   UNL     1      49.128   4.173  16.673  0.00  0.00    +0.000 OA
ATOM     13  H   UNL     1      46.659   5.792  17.797  0.00  0.00    +0.000 HD
ATOM     14  H   UNL     1      47.127   4.154  18.075  0.00  0.00    +0.000 HD
ENDBRANCH   8  10
ENDBRANCH   2   4
BRANCH   2  15
ATOM     15  C   UNL     1      47.665   6.782  11.936  0.00  0.00    +0.000 C 
ATOM     16  C   UNL     1      46.575   6.885  11.155  0.00  0.00    +0.000 C 
BRANCH  16  17
ATOM     17  C   UNL     1      45.811   5.753  10.611  0.00  0.00    +0.000 A 
ATOM     18  C   UNL     1      45.875   5.381   9.262  0.00  0.00    +0.000 A 
ATOM     19  C   UNL     1      45.154   4.284   8.791  0.00  0.00    +0.000 A 
ATOM     20  C   UNL     1      44.383   3.527   9.671  0.00  0.00    +0.000 A 
ATOM     21  C   UNL     1      44.341   3.858  11.029  0.00  0.00    +0.000 A 
ATOM     22  C   UNL     1      45.042   4.978  11.494  0.00  0.00    +0.000 A 
BRANCH  21  23
ATOM     23  C   UNL     1      43.539   2.997  11.935  0.00  0.00    +0.000 C 
ATOM     24  N   UNL     1      43.606   3.247  13.278  0.00  0.00    +0.000 N 
ATOM     25  O   UNL     1      42.876   2.058  11.509  0.00  0.00    +0.000 OA
ATOM     26  H   UNL     1      44.321   3.834  13.686  0.00  0.00    +0.000 HD
ATOM     27  H   UNL     1      43.161   2.567  13.877  0.00  0.00    +0.000 HD
ENDBRANCH  21  23
ENDBRANCH  16  17
ENDBRANCH   2  15
TORSDOF 5
ENDMDL
MODEL 7
REMARK VINA RESULT:    -6.726      3.857      7.906
REMARK INTER + INTRA:          -9.558
REMARK INTER:                  -8.653
REMARK INTRA:                  -0.905
REMARK UNBOUND:                -0.866
REMARK  Name = 
REMARK  7 active torsions:
REMARK  status: ('A' for Active; 'I' for Inactive)
REMARK    1  A    between atoms: C_1  and  C_2
REMARK    2  A    between atoms: C_2  and  C_3
REMARK    3  A    between atoms: C_2  and  C_4
REMARK    4  A    between atoms: C_2  and  C_15
REMARK    5  A    between atoms: C_5  and  C_6
REMARK    6  A    between atoms: C_10  and  C_11
REMARK    7  A    between atoms: C_19  and  C_20
REMARK                            x       y       z     vdW  Elec       q    Type
REMARK                         _______ _______ _______ _____ _____    ______ ____
ROOT
ATOM      1  C   UNL     1      42.915   5.924  11.082  0.00  0.00    +0.000 C 
ATOM      2  C   UNL     1      44.137   5.282  11.784  0.00  0.00    +0.000 C 
ATOM      3  C   UNL     1      43.640   4.624  13.094  0.00  0.00    +0.000 C 
ENDROOT
BRANCH   2   4
ATOM      4  C   UNL     1      45.136   6.432  12.030  0.00  0.00    +0.000 A 
ATOM      5  C   UNL     1      46.517   6.181  12.162  0.00  0.00    +0.000 A 
ATOM      6  C   UNL     1      47.443   7.225  12.249  0.00  0.00    +0.000 A 
ATOM      7  C   UNL     1      47.014   8.546  12.171  0.00  0.00    +0.000 A 
ATOM      8  C   UNL     1      45.655   8.828  12.019  0.00  0.00    +0.000 A 
ATOM      9  C   UNL     1      44.724   7.778  11.983  0.00  0.00    +0.000 A 
BRANCH   8  10
ATOM     10  C   UNL     1      45.245  10.248  11.850  0.00  0.00    +0.000 C 
ATOM     11  N   UNL     1      43.950  10.568  12.154  0.00  0.00    +0.000 N 
ATOM     12  O   UNL     1      46.009  11.092  11.401  0.00  0.00    +0.000 OA
ATOM     13  H   UNL     1      43.232   9.870  12.282  0.00  0.00    +0.000 HD
ATOM     14  H   UNL     1      43.651  11.500  11.897  0.00  0.00    +0.000 HD
ENDBRANCH   8  10
ENDBRANCH   2   4
BRANCH   2  15
ATOM     15  C   UNL     1      44.760   4.143  10.972  0.00  0.00    +0.000 C 
ATOM     16  C   UNL     1      44.832   4.060   9.631  0.00  0.00    +0.000 C 
BRANCH  16  17
ATOM     17  C   UNL     1      45.432   2.947   8.882  0.00  0.00    +0.000 A 
ATOM     18  C   UNL     1      45.161   1.606   9.181  0.00  0.00    +0.000 A 
ATOM     19  C   UNL     1      45.730   0.579   8.427  0.00  0.00    +0.000 A 
ATOM     20  C   UNL     1      46.554   0.882   7.346  0.00  0.00    +0.000 A 
ATOM     21  C   UNL     1      46.802   2.217   7.006  0.00  0.00    +0.000 A 
ATOM     22  C   UNL     1      46.253   3.245   7.782  0.00  0.00    +0.000 A 
BRANCH  21  23
ATOM     23  C   UNL     1      47.652   2.491   5.819  0.00  0.00    +0.000 C 
ATOM     24  N   UNL     1      47.291   3.525   5.001  0.00  0.00    +0.000 N 
ATOM     25  O   UNL     1      48.619   1.789   5.546  0.00  0.00    +0.000 OA
ATOM     26  H   UNL     1      46.379   3.959   5.045  0.00  0.00    +0.000 HD
ATOM     27  H   UNL     1      47.804   3.603   4.135  0.00  0.00    +0.000 HD
ENDBRANCH  21  23
ENDBRANCH  16  17
ENDBRANCH   2  15
TORSDOF 5
ENDMDL
MODEL 8
REMARK VINA RESULT:    -6.534      2.164      7.784
REMARK INTER + INTRA:          -9.310
REMARK INTER:                  -8.374
REMARK INTRA:                  -0.936
REMARK UNBOUND:                -0.866
REMARK  Name = 
REMARK  7 active torsions:
REMARK  status: ('A' for Active; 'I' for Inactive)
REMARK    1  A    between atoms: C_1  and  C_2
REMARK    2  A    between atoms: C_2  and  C_3
REMARK    3  A    between atoms: C_2  and  C_4
REMARK    4  A    between atoms: C_2  and  C_15
REMARK    5  A    between atoms: C_5  and  C_6
REMARK    6  A    between atoms: C_10  and  C_11
REMARK    7  A    between atoms: C_19  and  C_20
REMARK                            x       y       z     vdW  Elec       q    Type
REMARK                         _______ _______ _______ _____ _____    ______ ____
ROOT
ATOM      1  C   UNL     1      49.243   8.022  11.490  0.00  0.00    +0.000 C 
ATOM      2  C   UNL     1      47.999   7.882  12.400  0.00  0.00    +0.000 C 
ATOM      3  C   UNL     1      47.059   9.075  12.105  0.00  0.00    +0.000 C 
ENDROOT
BRANCH   2   4
ATOM      4  C   UNL     1      48.532   7.881  13.849  0.00  0.00    +0.000 A 
ATOM      5  C   UNL     1      48.892   9.081  14.494  0.00  0.00    +0.000 A 
ATOM      6  C   UNL     1      49.247   9.105  15.846  0.00  0.00    +0.000 A 
ATOM      7  C   UNL     1      49.216   7.933  16.595  0.00  0.00    +0.000 A 
ATOM      8  C   UNL     1      48.843   6.730  15.991  0.00  0.00    +0.000 A 
ATOM      9  C   UNL     1      48.537   6.703  14.622  0.00  0.00    +0.000 A 
BRANCH   8  10
ATOM     10  C   UNL     1      48.736   5.517  16.844  0.00  0.00    +0.000 C 
ATOM     11  N   UNL     1      47.672   5.444  17.702  0.00  0.00    +0.000 N 
ATOM     12  O   UNL     1      49.590   4.640  16.831  0.00  0.00    +0.000 OA
ATOM     13  H   UNL     1      47.095   6.243  17.923  0.00  0.00    +0.000 HD
ATOM     14  H   UNL     1      47.693   4.687  18.372  0.00  0.00    +0.000 HD
ENDBRANCH   8  10
ENDBRANCH   2   4
BRANCH   2  15
ATOM     15  C   UNL     1      47.172   6.631  12.092  0.00  0.00    +0.000 C 
ATOM     16  C   UNL     1      45.849   6.476  12.284  0.00  0.00    +0.000 C 
BRANCH  16  17
ATOM     17  C   UNL     1      45.085   5.257  11.984  0.00  0.00    +0.000 A 
ATOM     18  C   UNL     1      44.139   4.726  12.869  0.00  0.00    +0.000 A 
ATOM     19  C   UNL     1      43.415   3.581  12.535  0.00  0.00    +0.000 A 
ATOM     20  C   UNL     1      43.608   2.971  11.297  0.00  0.00    +0.000 A 
ATOM     21  C   UNL     1      44.518   3.513  10.383  0.00  0.00    +0.000 A 
ATOM     22  C   UNL     1      45.265   4.645  10.734  0.00  0.00    +0.000 A 
BRANCH  21  23
ATOM     23  C   UNL     1      44.659   2.852   9.060  0.00  0.00    +0.000 C 
ATOM     24  N   UNL     1      44.315   3.571   7.949  0.00  0.00    +0.000 N 
ATOM     25  O   UNL     1      45.024   1.686   8.960  0.00  0.00    +0.000 OA
ATOM     26  H   UNL     1      43.781   4.427   8.000  0.00  0.00    +0.000 HD
ATOM     27  H   UNL     1      44.292   3.057   7.080  0.00  0.00    +0.000 HD
ENDBRANCH  21  23
ENDBRANCH  16  17
ENDBRANCH   2  15
TORSDOF 5
ENDMDL
MODEL 9
REMARK VINA RESULT:    -6.475      2.384      3.992
REMARK INTER + INTRA:          -9.233
REMARK INTER:                  -8.336
REMARK INTRA:                  -0.897
REMARK UNBOUND:                -0.866
REMARK  Name = 
REMARK  7 active torsions:
REMARK  status: ('A' for Active; 'I' for Inactive)
REMARK    1  A    between atoms: C_1  and  C_2
REMARK    2  A    between atoms: C_2  and  C_3
REMARK    3  A    between atoms: C_2  and  C_4
REMARK    4  A    between atoms: C_2  and  C_15
REMARK    5  A    between atoms: C_5  and  C_6
REMARK    6  A    between atoms: C_10  and  C_11
REMARK    7  A    between atoms: C_19  and  C_20
REMARK                            x       y       z     vdW  Elec       q    Type
REMARK                         _______ _______ _______ _____ _____    ______ ____
ROOT
ATOM      1  C   UNL     1      45.924   8.341  13.005  0.00  0.00    +0.000 C 
ATOM      2  C   UNL     1      46.641   7.001  12.713  0.00  0.00    +0.000 C 
ATOM      3  C   UNL     1      47.827   7.294  11.763  0.00  0.00    +0.000 C 
ENDROOT
BRANCH   2   4
ATOM      4  C   UNL     1      45.577   6.080  12.081  0.00  0.00    +0.000 A 
ATOM      5  C   UNL     1      44.289   5.963  12.640  0.00  0.00    +0.000 A 
ATOM      6  C   UNL     1      43.279   5.239  12.000  0.00  0.00    +0.000 A 
ATOM      7  C   UNL     1      43.522   4.642  10.767  0.00  0.00    +0.000 A 
ATOM      8  C   UNL     1      44.782   4.757  10.175  0.00  0.00    +0.000 A 
ATOM      9  C   UNL     1      45.808   5.442  10.845  0.00  0.00    +0.000 A 
BRANCH   8  10
ATOM     10  C   UNL     1      44.978   4.182   8.818  0.00  0.00    +0.000 C 
ATOM     11  N   UNL     1      44.277   3.049   8.508  0.00  0.00    +0.000 N 
ATOM     12  O   UNL     1      45.776   4.662   8.022  0.00  0.00    +0.000 OA
ATOM     13  H   UNL     1      43.812   2.488   9.207  0.00  0.00    +0.000 HD
ATOM     14  H   UNL     1      44.530   2.594   7.641  0.00  0.00    +0.000 HD
ENDBRANCH   8  10
ENDBRANCH   2   4
BRANCH   2  15
ATOM     15  C   UNL     1      47.271   6.377  13.963  0.00  0.00    +0.000 C 
ATOM     16  C   UNL     1      47.100   5.118  14.403  0.00  0.00    +0.000 C 
BRANCH  16  17
ATOM     17  C   UNL     1      47.714   4.551  15.612  0.00  0.00    +0.000 A 
ATOM     18  C   UNL     1      47.719   3.177  15.880  0.00  0.00    +0.000 A 
ATOM     19  C   UNL     1      48.337   2.677  17.027  0.00  0.00    +0.000 A 
ATOM     20  C   UNL     1      48.983   3.544  17.905  0.00  0.00    +0.000 A 
ATOM     21  C   UNL     1      49.025   4.916  17.632  0.00  0.00    +0.000 A 
ATOM     22  C   UNL     1      48.379   5.418  16.495  0.00  0.00    +0.000 A 
BRANCH  21  23
ATOM     23  C   UNL     1      49.762   5.796  18.574  0.00  0.00    +0.000 C 
ATOM     24  N   UNL     1      50.082   7.056  18.152  0.00  0.00    +0.000 N 
ATOM     25  O   UNL     1      50.120   5.398  19.677  0.00  0.00    +0.000 OA
ATOM     26  H   UNL     1      50.032   7.333  17.181  0.00  0.00    +0.000 HD
ATOM     27  H   UNL     1      50.696   7.582  18.757  0.00  0.00    +0.000 HD
ENDBRANCH  21  23
ENDBRANCH  16  17
ENDBRANCH   2  15
TORSDOF 5
ENDMDL
