MODEL 1
REMARK VINA RESULT:    -8.581      0.000      0.000
REMARK INTER + INTRA:         -13.481
REMARK INTER:                 -12.343
REMARK INTRA:                  -1.137
REMARK UNBOUND:                -1.137
REMARK  Name = 
REMARK  8 active torsions:
REMARK  status: ('A' for Active; 'I' for Inactive)
REMARK    1  A    between atoms: C_2  and  C_4
REMARK    2  A    between atoms: C_7  and  O_8
REMARK    3  A    between atoms: O_8  and  C_9
REMARK    4  A    between atoms: C_9  and  C_10
REMARK    5  A    between atoms: C_10  and  C_11
REMARK    6  A    between atoms: C_15  and  O_16
REMARK    7  A    between atoms: O_16  and  C_17
REMARK    8  A    between atoms: C_19  and  O_20
REMARK                            x       y       z     vdW  Elec       q    Type
REMARK                         _______ _______ _______ _____ _____    ______ ____
ROOT
ATOM      1  C   UNL     1      43.877   4.487  12.615  0.00  0.00    +0.000 C 
ENDROOT
BRANCH   1   2
ATOM      2  C   UNL     1      45.262   5.049  12.804  0.00  0.00    +0.000 A 
ATOM      3  C   UNL     1      45.758   5.998  11.901  0.00  0.00    +0.000 A 
ATOM      4  C   UNL     1      47.023   6.551  12.082  0.00  0.00    +0.000 A 
ATOM      5  C   UNL     1      47.796   6.179  13.183  0.00  0.00    +0.000 A 
ATOM      6  C   UNL     1      47.300   5.266  14.110  0.00  0.00    +0.000 A 
ATOM      7  C   UNL     1      46.047   4.682  13.910  0.00  0.00    +0.000 A 
BRANCH   6   8
ATOM      8  O   UNL     1      47.983   4.892  15.245  0.00  0.00    +0.000 OA
BRANCH   8   9
ATOM      9  C   UNL     1      47.278   4.038  16.180  0.00  0.00    +0.000 C 
ATOM     10  C   UNL     1      47.181   4.542  17.641  0.00  0.00    +0.000 C 
ATOM     11  C   UNL     1      48.395   3.661  17.981  0.00  0.00    +0.000 C 
ATOM     12  C   UNL     1      48.073   2.830  16.725  0.00  0.00    +0.000 C 
BRANCH  11  13
ATOM     13  O   UNL     1      48.348   2.973  19.245  0.00  0.00    +0.000 OA
ATOM     14  H   UNL     1      47.410   2.938  19.497  0.00  0.00    +0.000 HD
ENDBRANCH  11  13
ENDBRANCH   8   9
ENDBRANCH   6   8
ENDBRANCH   1   2
BRANCH   1  15
ATOM     15  C   UNL     1      43.375   4.707  11.188  0.00  0.00    +0.000 C 
BRANCH  15  16
ATOM     16  O   UNL     1      43.394   3.454  10.500  0.00  0.00    +0.000 OA
BRANCH  16  20
ATOM     17  C   UNL     1      46.357   2.685   7.661  0.00  0.00    +0.000 A 
ATOM     18  C   UNL     1      45.927   4.004   7.837  0.00  0.00    +0.000 A 
ATOM     19  C   UNL     1      44.936   4.305   8.778  0.00  0.00    +0.000 A 
ATOM     20  C   UNL     1      44.364   3.290   9.549  0.00  0.00    +0.000 A 
ATOM     21  C   UNL     1      44.782   1.970   9.357  0.00  0.00    +0.000 A 
ATOM     22  C   UNL     1      45.768   1.664   8.415  0.00  0.00    +0.000 A 
BRANCH  17  24
ATOM     23  N   UNL     1      47.468   3.067   5.529  0.00  0.00    +0.000 N 
ATOM     24  C   UNL     1      47.411   2.326   6.678  0.00  0.00    +0.000 C 
ATOM     25  O   UNL     1      48.222   1.437   6.896  0.00  0.00    +0.000 OA
ATOM     26  H   UNL     1      48.263   2.891   4.927  0.00  0.00    +0.000 HD
ATOM     27  H   UNL     1      47.003   3.959   5.439  0.00  0.00    +0.000 HD
ENDBRANCH  17  24
ENDBRANCH  16  20
ENDBRANCH  15  16
ENDBRANCH   1  15
TORSDOF 8
ENDMDL
MODEL 2
REMARK VINA RESULT:    -7.185      1.470      1.607
REMARK INTER + INTRA:         -11.472
REMARK INTER:                 -10.474
REMARK INTRA:                  -0.999
REMARK UNBOUND:                -1.137
REMARK  Name = 
REMARK  8 active torsions:
REMARK  status: ('A' for Active; 'I' for Inactive)
REMARK    1  A    between atoms: C_2  and  C_4
REMARK    2  A    between atoms: C_7  and  O_8
REMARK    3  A    between atoms: O_8  and  C_9
REMARK    4  A    between atoms: C_9  and  C_10
REMARK    5  A    between atoms: C_10  and  C_11
REMARK    6  A    between atoms: C_15  and  O_16
REMARK    7  A    between atoms: O_16  and  C_17
REMARK    8  A    between atoms: C_19  and  O_20
REMARK                            x       y       z     vdW  Elec       q    Type
REMARK                         _______ _______ _______ _____ _____    ______ ____
ROOT
ATOM      1  C   UNL     1      45.096   4.559  12.218  0.00  0.00    +0.000 C 
ENDROOT
BRANCH   1   2
ATOM      2  C   UNL     1      46.105   5.653  12.455  0.00  0.00    +0.000 A 
ATOM      3  C   UNL     1      45.924   6.909  11.861  0.00  0.00    +0.000 A 
ATOM      4  C   UNL     1      46.830   7.939  12.098  0.00  0.00    +0.000 A 
ATOM      5  C   UNL     1      47.914   7.731  12.952  0.00  0.00    +0.000 A 
ATOM      6  C   UNL     1      48.085   6.500  13.579  0.00  0.00    +0.000 A 
ATOM      7  C   UNL     1      47.198   5.454  13.313  0.00  0.00    +0.000 A 
BRANCH   6   8
ATOM      8  O   UNL     1      49.100   6.240  14.473  0.00  0.00    +0.000 OA
BRANCH   8   9
ATOM      9  C   UNL     1      48.827   6.518  15.869  0.00  0.00    +0.000 C 
ATOM     10  C   UNL     1      50.052   6.806  16.771  0.00  0.00    +0.000 C 
ATOM     11  C   UNL     1      50.023   5.332  17.211  0.00  0.00    +0.000 C 
ATOM     12  C   UNL     1      48.550   5.287  16.762  0.00  0.00    +0.000 C 
BRANCH  11  13
ATOM     13  O   UNL     1      50.285   5.079  18.604  0.00  0.00    +0.000 OA
ATOM     14  H   UNL     1      51.245   4.942  18.676  0.00  0.00    +0.000 HD
ENDBRANCH  11  13
ENDBRANCH   8   9
ENDBRANCH   6   8
ENDBRANCH   1   2
BRANCH   1  15
ATOM     15  C   UNL     1      43.987   5.019  11.272  0.00  0.00    +0.000 C 
BRANCH  15  16
ATOM     16  O   UNL     1      43.664   3.941  10.391  0.00  0.00    +0.000 OA
BRANCH  16  20
ATOM     17  C   UNL     1      46.528   2.622   7.655  0.00  0.00    +0.000 A 
ATOM     18  C   UNL     1      46.286   3.995   7.757  0.00  0.00    +0.000 A 
ATOM     19  C   UNL     1      45.333   4.479   8.662  0.00  0.00    +0.000 A 
ATOM     20  C   UNL     1      44.615   3.594   9.469  0.00  0.00    +0.000 A 
ATOM     21  C   UNL     1      44.846   2.222   9.350  0.00  0.00    +0.000 A 
ATOM     22  C   UNL     1      45.792   1.733   8.445  0.00  0.00    +0.000 A 
BRANCH  17  24
ATOM     23  N   UNL     1      47.718   2.741   5.534  0.00  0.00    +0.000 N 
ATOM     24  C   UNL     1      47.536   2.070   6.712  0.00  0.00    +0.000 C 
ATOM     25  O   UNL     1      48.206   1.084   6.987  0.00  0.00    +0.000 OA
ATOM     26  H   UNL     1      48.489   2.425   4.958  0.00  0.00    +0.000 HD
ATOM     27  H   UNL     1      47.389   3.685   5.394  0.00  0.00    +0.000 HD
ENDBRANCH  17  24
ENDBRANCH  16  20
ENDBRANCH  15  16
ENDBRANCH   1  15
TORSDOF 8
ENDMDL
MODEL 3
REMARK VINA RESULT:    -7.106      2.456      4.288
REMARK INTER + INTRA:         -11.359
REMARK INTER:                 -10.494
REMARK INTRA:                  -0.865
REMARK UNBOUND:                -1.137
REMARK  Name = 
REMARK  8 active torsions:
REMARK  status: ('A' for Active; 'I' for Inactive)
REMARK    1  A    between atoms: C_2  and  C_4
REMARK    2  A    between atoms: C_7  and  O_8
REMARK    3  A    between atoms: O_8  and  C_9
REMARK    4  A    between atoms: C_9  and  C_10
REMARK    5  A    between atoms: C_10  and  C_11
REMARK    6  A    between atoms: C_15  and  O_16
REMARK    7  A    between atoms: O_16  and  C_17
REMARK    8  A    between atoms: C_19  and  O_20
REMARK                            x       y       z     vdW  Elec       q    Type
REMARK                         _______ _______ _______ _____ _____    ______ ____
ROOT
ATOM      1  C   UNL     1      44.481   5.760  11.409  0.00  0.00    +0.000 C 
ENDROOT
BRANCH   1   2
ATOM      2  C   UNL     1      45.629   5.875  12.380  0.00  0.00    +0.000 A 
ATOM      3  C   UNL     1      45.863   4.851  13.306  0.00  0.00    +0.000 A 
ATOM      4  C   UNL     1      46.939   4.928  14.186  0.00  0.00    +0.000 A 
ATOM      5  C   UNL     1      47.807   6.019  14.132  0.00  0.00    +0.000 A 
ATOM      6  C   UNL     1      47.609   7.026  13.191  0.00  0.00    +0.000 A 
ATOM      7  C   UNL     1      46.509   6.968  12.332  0.00  0.00    +0.000 A 
BRANCH   6   8
ATOM      8  O   UNL     1      48.453   8.103  13.046  0.00  0.00    +0.000 OA
BRANCH   8   9
ATOM      9  C   UNL     1      48.919   8.391  11.703  0.00  0.00    +0.000 C 
ATOM     10  C   UNL     1      50.370   7.968  11.368  0.00  0.00    +0.000 C 
ATOM     11  C   UNL     1      50.816   9.408  11.672  0.00  0.00    +0.000 C 
ATOM     12  C   UNL     1      49.359   9.848  11.438  0.00  0.00    +0.000 C 
BRANCH  11  13
ATOM     13  O   UNL     1      51.812   9.964  10.794  0.00  0.00    +0.000 OA
ATOM     14  H   UNL     1      51.522   9.754   9.890  0.00  0.00    +0.000 HD
ENDBRANCH  11  13
ENDBRANCH   8   9
ENDBRANCH   6   8
ENDBRANCH   1   2
BRANCH   1  15
ATOM     15  C   UNL     1      43.816   4.387  11.492  0.00  0.00    +0.000 C 
BRANCH  15  16
ATOM     16  O   UNL     1      43.410   3.997  10.178  0.00  0.00    +0.000 OA
BRANCH  16  20
ATOM     17  C   UNL     1      46.388   2.421   7.713  0.00  0.00    +0.000 A 
ATOM     18  C   UNL     1      46.099   3.786   7.621  0.00  0.00    +0.000 A 
ATOM     19  C   UNL     1      45.108   4.354   8.430  0.00  0.00    +0.000 A 
ATOM     20  C   UNL     1      44.396   3.563   9.334  0.00  0.00    +0.000 A 
ATOM     21  C   UNL     1      44.674   2.196   9.409  0.00  0.00    +0.000 A 
ATOM     22  C   UNL     1      45.659   1.622   8.600  0.00  0.00    +0.000 A 
BRANCH  17  24
ATOM     23  N   UNL     1      48.495   2.564   6.501  0.00  0.00    +0.000 N 
ATOM     24  C   UNL     1      47.438   1.782   6.877  0.00  0.00    +0.000 C 
ATOM     25  O   UNL     1      47.386   0.599   6.569  0.00  0.00    +0.000 OA
ATOM     26  H   UNL     1      49.257   2.086   6.037  0.00  0.00    +0.000 HD
ATOM     27  H   UNL     1      48.702   3.444   6.952  0.00  0.00    +0.000 HD
ENDBRANCH  17  24
ENDBRANCH  16  20
ENDBRANCH  15  16
ENDBRANCH   1  15
TORSDOF 8
ENDMDL
MODEL 4
REMARK VINA RESULT:    -7.076      3.184      8.573
REMARK INTER + INTRA:         -11.315
REMARK INTER:                 -10.492
REMARK INTRA:                  -0.823
REMARK UNBOUND:                -1.137
REMARK  Name = 
REMARK  8 active torsions:
REMARK  status: ('A' for Active; 'I' for Inactive)
REMARK    1  A    between atoms: C_2  and  C_4
REMARK    2  A    between atoms: C_7  and  O_8
REMARK    3  A    between atoms: O_8  and  C_9
REMARK    4  A    between atoms: C_9  and  C_10
REMARK    5  A    between atoms: C_10  and  C_11
REMARK    6  A    between atoms: C_15  and  O_16
REMARK    7  A    between atoms: O_16  and  C_17
REMARK    8  A    between atoms: C_19  and  O_20
REMARK                            x       y       z     vdW  Elec       q    Type
REMARK                         _______ _______ _______ _____ _____    ______ ____
ROOT
ATOM      1  C   UNL     1      45.630   6.893  12.341  0.00  0.00    +0.000 C 
ENDROOT
BRANCH   1   2
ATOM      2  C   UNL     1      45.187   5.834  11.364  0.00  0.00    +0.000 A 
ATOM      3  C   UNL     1      44.046   5.068  11.638  0.00  0.00    +0.000 A 
ATOM      4  C   UNL     1      43.606   4.109  10.730  0.00  0.00    +0.000 A 
ATOM      5  C   UNL     1      44.288   3.923   9.527  0.00  0.00    +0.000 A 
ATOM      6  C   UNL     1      45.401   4.703   9.225  0.00  0.00    +0.000 A 
ATOM      7  C   UNL     1      45.866   5.640  10.151  0.00  0.00    +0.000 A 
BRANCH   6   8
ATOM      8  O   UNL     1      46.091   4.611   8.037  0.00  0.00    +0.000 OA
BRANCH   8   9
ATOM      9  C   UNL     1      45.942   3.376   7.291  0.00  0.00    +0.000 C 
ATOM     10  C   UNL     1      46.854   2.199   7.711  0.00  0.00    +0.000 C 
ATOM     11  C   UNL     1      47.818   2.594   6.579  0.00  0.00    +0.000 C 
ATOM     12  C   UNL     1      46.640   3.331   5.913  0.00  0.00    +0.000 C 
BRANCH  11  13
ATOM     13  O   UNL     1      48.408   1.510   5.838  0.00  0.00    +0.000 OA
ATOM     14  H   UNL     1      48.534   0.787   6.475  0.00  0.00    +0.000 HD
ENDBRANCH  11  13
ENDBRANCH   8   9
ENDBRANCH   6   8
ENDBRANCH   1   2
BRANCH   1  15
ATOM     15  C   UNL     1      47.050   6.632  12.841  0.00  0.00    +0.000 C 
BRANCH  15  16
ATOM     16  O   UNL     1      47.141   5.269  13.263  0.00  0.00    +0.000 OA
BRANCH  16  20
ATOM     17  C   UNL     1      48.163   4.831  17.287  0.00  0.00    +0.000 A 
ATOM     18  C   UNL     1      47.325   3.875  16.704  0.00  0.00    +0.000 A 
ATOM     19  C   UNL     1      46.959   3.986  15.357  0.00  0.00    +0.000 A 
ATOM     20  C   UNL     1      47.424   5.052  14.584  0.00  0.00    +0.000 A 
ATOM     21  C   UNL     1      48.244   6.016  15.176  0.00  0.00    +0.000 A 
ATOM     22  C   UNL     1      48.609   5.913  16.521  0.00  0.00    +0.000 A 
BRANCH  17  24
ATOM     23  N   UNL     1      48.496   3.520  19.311  0.00  0.00    +0.000 N 
ATOM     24  C   UNL     1      48.580   4.746  18.711  0.00  0.00    +0.000 C 
ATOM     25  O   UNL     1      49.019   5.715  19.314  0.00  0.00    +0.000 OA
ATOM     26  H   UNL     1      48.896   3.452  20.239  0.00  0.00    +0.000 HD
ATOM     27  H   UNL     1      48.400   2.665  18.781  0.00  0.00    +0.000 HD
ENDBRANCH  17  24
ENDBRANCH  16  20
ENDBRANCH  15  16
ENDBRANCH   1  15
TORSDOF 8
ENDMDL
MODEL 5
REMARK VINA RESULT:    -6.845      4.014      7.667
REMARK INTER + INTRA:         -10.983
REMARK INTER:                 -10.246
REMARK INTRA:                  -0.736
REMARK UNBOUND:                -1.137
REMARK  Name = 
REMARK  8 active torsions:
REMARK  status: ('A' for Active; 'I' for Inactive)
REMARK    1  A    between atoms: C_2  and  C_4
REMARK    2  A    between atoms: C_7  and  O_8
REMARK    3  A    between atoms: O_8  and  C_9
REMARK    4  A    between atoms: C_9  and  C_10
REMARK    5  A    between atoms: C_10  and  C_11
REMARK    6  A    between atoms: C_15  and  O_16
REMARK    7  A    between atoms: O_16  and  C_17
REMARK    8  A    between atoms: C_19  and  O_20
REMARK                            x       y       z     vdW  Elec       q    Type
REMARK                         _______ _______ _______ _____ _____    ______ ____
ROOT
ATOM      1  C   UNL     1      44.650   6.400  12.434  0.00  0.00    +0.000 C 
ENDROOT
BRANCH   1   2
ATOM      2  C   UNL     1      44.590   5.238  11.477  0.00  0.00    +0.000 A 
ATOM      3  C   UNL     1      43.756   4.147  11.758  0.00  0.00    +0.000 A 
ATOM      4  C   UNL     1      43.666   3.081  10.867  0.00  0.00    +0.000 A 
ATOM      5  C   UNL     1      44.388   3.106   9.673  0.00  0.00    +0.000 A 
ATOM      6  C   UNL     1      45.190   4.201   9.363  0.00  0.00    +0.000 A 
ATOM      7  C   UNL     1      45.312   5.254  10.273  0.00  0.00    +0.000 A 
BRANCH   6   8
ATOM      8  O   UNL     1      45.890   4.317   8.183  0.00  0.00    +0.000 OA
BRANCH   8   9
ATOM      9  C   UNL     1      45.851   3.178   7.287  0.00  0.00    +0.000 C 
ATOM     10  C   UNL     1      46.791   1.996   7.627  0.00  0.00    +0.000 C 
ATOM     11  C   UNL     1      47.804   2.566   6.620  0.00  0.00    +0.000 C 
ATOM     12  C   UNL     1      46.638   3.330   5.966  0.00  0.00    +0.000 C 
BRANCH  11  13
ATOM     13  O   UNL     1      48.494   1.606   5.799  0.00  0.00    +0.000 OA
ATOM     14  H   UNL     1      48.732   0.870   6.388  0.00  0.00    +0.000 HD
ENDBRANCH  11  13
ENDBRANCH   8   9
ENDBRANCH   6   8
ENDBRANCH   1   2
BRANCH   1  15
ATOM     15  C   UNL     1      45.084   7.684  11.726  0.00  0.00    +0.000 C 
BRANCH  15  16
ATOM     16  O   UNL     1      45.901   8.443  12.620  0.00  0.00    +0.000 OA
BRANCH  16  20
ATOM     17  C   UNL     1      49.909   8.769  11.498  0.00  0.00    +0.000 A 
ATOM     18  C   UNL     1      49.152   9.939  11.617  0.00  0.00    +0.000 A 
ATOM     19  C   UNL     1      47.805   9.873  11.991  0.00  0.00    +0.000 A 
ATOM     20  C   UNL     1      47.203   8.639  12.246  0.00  0.00    +0.000 A 
ATOM     21  C   UNL     1      47.957   7.471  12.106  0.00  0.00    +0.000 A 
ATOM     22  C   UNL     1      49.302   7.531  11.728  0.00  0.00    +0.000 A 
BRANCH  17  24
ATOM     23  N   UNL     1      52.148   7.820  11.626  0.00  0.00    +0.000 N 
ATOM     24  C   UNL     1      51.344   8.798  11.110  0.00  0.00    +0.000 C 
ATOM     25  O   UNL     1      51.785   9.634  10.332  0.00  0.00    +0.000 OA
ATOM     26  H   UNL     1      53.091   7.781  11.259  0.00  0.00    +0.000 HD
ATOM     27  H   UNL     1      51.774   6.978  12.041  0.00  0.00    +0.000 HD
ENDBRANCH  17  24
ENDBRANCH  16  20
ENDBRANCH  15  16
ENDBRANCH   1  15
TORSDOF 8
ENDMDL
MODEL 6
REMARK VINA RESULT:    -6.582      3.431      8.060
REMARK INTER + INTRA:         -10.606
REMARK INTER:                  -9.758
REMARK INTRA:                  -0.848
REMARK UNBOUND:                -1.137
REMARK  Name = 
REMARK  8 active torsions:
REMARK  status: ('A' for Active; 'I' for Inactive)
REMARK    1  A    between atoms: C_2  and  C_4
REMARK    2  A    between atoms: C_7  and  O_8
REMARK    3  A    between atoms: O_8  and  C_9
REMARK    4  A    between atoms: C_9  and  C_10
REMARK    5  A    between atoms: C_10  and  C_11
REMARK    6  A    between atoms: C_15  and  O_16
REMARK    7  A    between atoms: O_16  and  C_17
REMARK    8  A    between atoms: C_19  and  O_20
REMARK                            x       y       z     vdW  Elec       q    Type
REMARK                         _______ _______ _______ _____ _____    ______ ____
ROOT
ATOM      1  C   UNL     1      45.395   5.404  13.083  0.00  0.00    +0.000 C 
ENDROOT
BRANCH   1   2
ATOM      2  C   UNL     1      45.006   4.532  11.917  0.00  0.00    +0.000 A 
ATOM      3  C   UNL     1      44.010   3.560  12.077  0.00  0.00    +0.000 A 
ATOM      4  C   UNL     1      43.618   2.769  11.000  0.00  0.00    +0.000 A 
ATOM      5  C   UNL     1      44.198   2.960   9.746  0.00  0.00    +0.000 A 
ATOM      6  C   UNL     1      45.162   3.950   9.564  0.00  0.00    +0.000 A 
ATOM      7  C   UNL     1      45.584   4.718  10.651  0.00  0.00    +0.000 A 
BRANCH   6   8
ATOM      8  O   UNL     1      45.739   4.229   8.346  0.00  0.00    +0.000 OA
BRANCH   8   9
ATOM      9  C   UNL     1      45.756   3.156   7.371  0.00  0.00    +0.000 C 
ATOM     10  C   UNL     1      46.681   1.954   7.680  0.00  0.00    +0.000 C 
ATOM     11  C   UNL     1      47.748   2.595   6.775  0.00  0.00    +0.000 C 
ATOM     12  C   UNL     1      46.617   3.402   6.110  0.00  0.00    +0.000 C 
BRANCH  11  13
ATOM     13  O   UNL     1      48.488   1.696   5.929  0.00  0.00    +0.000 OA
ATOM     14  H   UNL     1      48.613   0.882   6.445  0.00  0.00    +0.000 HD
ENDBRANCH  11  13
ENDBRANCH   8   9
ENDBRANCH   6   8
ENDBRANCH   1   2
BRANCH   1  15
ATOM     15  C   UNL     1      46.543   4.788  13.882  0.00  0.00    +0.000 C 
BRANCH  15  16
ATOM     16  O   UNL     1      47.780   5.204  13.297  0.00  0.00    +0.000 OA
BRANCH  16  20
ATOM     17  C   UNL     1      48.365   9.335  13.164  0.00  0.00    +0.000 A 
ATOM     18  C   UNL     1      48.269   8.636  11.957  0.00  0.00    +0.000 A 
ATOM     19  C   UNL     1      48.072   7.250  11.958  0.00  0.00    +0.000 A 
ATOM     20  C   UNL     1      47.974   6.552  13.164  0.00  0.00    +0.000 A 
ATOM     21  C   UNL     1      48.091   7.251  14.367  0.00  0.00    +0.000 A 
ATOM     22  C   UNL     1      48.292   8.634  14.372  0.00  0.00    +0.000 A 
BRANCH  17  24
ATOM     23  N   UNL     1      48.641  11.391  14.439  0.00  0.00    +0.000 N 
ATOM     24  C   UNL     1      48.567  10.807  13.205  0.00  0.00    +0.000 C 
ATOM     25  O   UNL     1      48.702  11.468  12.184  0.00  0.00    +0.000 OA
ATOM     26  H   UNL     1      48.898  12.370  14.452  0.00  0.00    +0.000 HD
ATOM     27  H   UNL     1      48.802  10.856  15.281  0.00  0.00    +0.000 HD
ENDBRANCH  17  24
ENDBRANCH  16  20
ENDBRANCH  15  16
ENDBRANCH   1  15
TORSDOF 8
ENDMDL
MODEL 7
REMARK VINA RESULT:    -6.422      3.419      4.450
REMARK INTER + INTRA:         -10.374
REMARK INTER:                  -9.509
REMARK INTRA:                  -0.865
REMARK UNBOUND:                -1.137
REMARK  Name = 
REMARK  8 active torsions:
REMARK  status: ('A' for Active; 'I' for Inactive)
REMARK    1  A    between atoms: C_2  and  C_4
REMARK    2  A    between atoms: C_7  and  O_8
REMARK    3  A    between atoms: O_8  and  C_9
REMARK    4  A    between atoms: C_9  and  C_10
REMARK    5  A    between atoms: C_10  and  C_11
REMARK    6  A    between atoms: C_15  and  O_16
REMARK    7  A    between atoms: O_16  and  C_17
REMARK    8  A    between atoms: C_19  and  O_20
REMARK                            x       y       z     vdW  Elec       q    Type
REMARK                         _______ _______ _______ _____ _____    ______ ____
ROOT
ATOM      1  C   UNL     1      44.050   6.313  11.856  0.00  0.00    +0.000 C 
ENDROOT
BRANCH   1   2
ATOM      2  C   UNL     1      45.065   7.426  11.896  0.00  0.00    +0.000 A 
ATOM      3  C   UNL     1      44.637   8.760  11.866  0.00  0.00    +0.000 A 
ATOM      4  C   UNL     1      45.560   9.799  11.936  0.00  0.00    +0.000 A 
ATOM      5  C   UNL     1      46.921   9.516  12.061  0.00  0.00    +0.000 A 
ATOM      6  C   UNL     1      47.357   8.195  12.131  0.00  0.00    +0.000 A 
ATOM      7  C   UNL     1      46.436   7.151  12.024  0.00  0.00    +0.000 A 
BRANCH   6   8
ATOM      8  O   UNL     1      48.676   7.842  12.307  0.00  0.00    +0.000 OA
BRANCH   8   9
ATOM      9  C   UNL     1      49.644   8.480  11.436  0.00  0.00    +0.000 C 
ATOM     10  C   UNL     1      50.921   7.669  11.109  0.00  0.00    +0.000 C 
ATOM     11  C   UNL     1      51.645   8.436  12.229  0.00  0.00    +0.000 C 
ATOM     12  C   UNL     1      50.566   9.527  12.101  0.00  0.00    +0.000 C 
BRANCH  11  13
ATOM     13  O   UNL     1      53.002   8.830  11.955  0.00  0.00    +0.000 OA
ATOM     14  H   UNL     1      53.536   8.484  12.690  0.00  0.00    +0.000 HD
ENDBRANCH  11  13
ENDBRANCH   8   9
ENDBRANCH   6   8
ENDBRANCH   1   2
BRANCH   1  15
ATOM     15  C   UNL     1      44.716   4.959  11.610  0.00  0.00    +0.000 C 
BRANCH  15  16
ATOM     16  O   UNL     1      44.036   4.305  10.537  0.00  0.00    +0.000 OA
BRANCH  16  20
ATOM     17  C   UNL     1      46.483   2.718   7.549  0.00  0.00    +0.000 A 
ATOM     18  C   UNL     1      45.830   1.836   8.416  0.00  0.00    +0.000 A 
ATOM     19  C   UNL     1      45.001   2.327   9.431  0.00  0.00    +0.000 A 
ATOM     20  C   UNL     1      44.820   3.703   9.590  0.00  0.00    +0.000 A 
ATOM     21  C   UNL     1      45.489   4.582   8.735  0.00  0.00    +0.000 A 
ATOM     22  C   UNL     1      46.322   4.097   7.723  0.00  0.00    +0.000 A 
BRANCH  17  24
ATOM     23  N   UNL     1      47.363   2.953   5.291  0.00  0.00    +0.000 N 
ATOM     24  C   UNL     1      47.366   2.236   6.455  0.00  0.00    +0.000 C 
ATOM     25  O   UNL     1      48.095   1.264   6.597  0.00  0.00    +0.000 OA
ATOM     26  H   UNL     1      48.056   2.685   4.603  0.00  0.00    +0.000 HD
ATOM     27  H   UNL     1      46.990   3.891   5.236  0.00  0.00    +0.000 HD
ENDBRANCH  17  24
ENDBRANCH  16  20
ENDBRANCH  15  16
ENDBRANCH   1  15
TORSDOF 8
ENDMDL
MODEL 8
REMARK VINA RESULT:    -6.282      3.394      8.944
REMARK INTER + INTRA:         -10.174
REMARK INTER:                  -9.482
REMARK INTRA:                  -0.692
REMARK UNBOUND:                -1.137
REMARK  Name = 
REMARK  8 active torsions:
REMARK  status: ('A' for Active; 'I' for Inactive)
REMARK    1  A    between atoms: C_2  and  C_4
REMARK    2  A    between atoms: C_7  and  O_8
REMARK    3  A    between atoms: O_8  and  C_9
REMARK    4  A    between atoms: C_9  and  C_10
REMARK    5  A    between atoms: C_10  and  C_11
REMARK    6  A    between atoms: C_15  and  O_16
REMARK    7  A    between atoms: O_16  and  C_17
REMARK    8  A    between atoms: C_19  and  O_20
REMARK                            x       y       z     vdW  Elec       q    Type
REMARK                         _______ _______ _______ _____ _____    ______ ____
ROOT
ATOM      1  C   UNL     1      46.326   5.791  13.552  0.00  0.00    +0.000 C 
ENDROOT
BRANCH   1   2
ATOM      2  C   UNL     1      45.240   5.071  12.793  0.00  0.00    +0.000 A 
ATOM      3  C   UNL     1      43.910   5.493  12.912  0.00  0.00    +0.000 A 
ATOM      4  C   UNL     1      42.902   4.858  12.192  0.00  0.00    +0.000 A 
ATOM      5  C   UNL     1      43.217   3.811  11.325  0.00  0.00    +0.000 A 
ATOM      6  C   UNL     1      44.540   3.406  11.168  0.00  0.00    +0.000 A 
ATOM      7  C   UNL     1      45.548   4.017  11.918  0.00  0.00    +0.000 A 
BRANCH   6   8
ATOM      8  O   UNL     1      44.930   2.417  10.294  0.00  0.00    +0.000 OA
BRANCH   8   9
ATOM      9  C   UNL     1      44.680   2.655   8.885  0.00  0.00    +0.000 C 
ATOM     10  C   UNL     1      45.813   2.266   7.905  0.00  0.00    +0.000 C 
ATOM     11  C   UNL     1      46.273   3.734   7.919  0.00  0.00    +0.000 C 
ATOM     12  C   UNL     1      44.861   4.112   8.403  0.00  0.00    +0.000 C 
BRANCH  11  13
ATOM     13  O   UNL     1      46.696   4.280   6.656  0.00  0.00    +0.000 OA
ATOM     14  H   UNL     1      46.915   5.212   6.826  0.00  0.00    +0.000 HD
ENDBRANCH  11  13
ENDBRANCH   8   9
ENDBRANCH   6   8
ENDBRANCH   1   2
BRANCH   1  15
ATOM     15  C   UNL     1      47.315   4.809  14.177  0.00  0.00    +0.000 C 
BRANCH  15  16
ATOM     16  O   UNL     1      46.650   4.092  15.220  0.00  0.00    +0.000 OA
BRANCH  16  20
ATOM     17  C   UNL     1      48.513   4.406  18.943  0.00  0.00    +0.000 A 
ATOM     18  C   UNL     1      48.053   3.151  18.530  0.00  0.00    +0.000 A 
ATOM     19  C   UNL     1      47.423   3.003  17.289  0.00  0.00    +0.000 A 
ATOM     20  C   UNL     1      47.245   4.107  16.452  0.00  0.00    +0.000 A 
ATOM     21  C   UNL     1      47.688   5.363  16.876  0.00  0.00    +0.000 A 
ATOM     22  C   UNL     1      48.313   5.517  18.117  0.00  0.00    +0.000 A 
BRANCH  17  24
ATOM     23  N   UNL     1      50.415   5.216  20.229  0.00  0.00    +0.000 N 
ATOM     24  C   UNL     1      49.193   4.602  20.249  0.00  0.00    +0.000 C 
ATOM     25  O   UNL     1      48.671   4.270  21.304  0.00  0.00    +0.000 OA
ATOM     26  H   UNL     1      50.809   5.450  21.132  0.00  0.00    +0.000 HD
ATOM     27  H   UNL     1      50.745   5.735  19.428  0.00  0.00    +0.000 HD
ENDBRANCH  17  24
ENDBRANCH  16  20
ENDBRANCH  15  16
ENDBRANCH   1  15
TORSDOF 8
ENDMDL
MODEL 9
REMARK VINA RESULT:    -6.185      4.115      7.547
REMARK INTER + INTRA:         -10.034
REMARK INTER:                  -8.738
REMARK INTRA:                  -1.296
REMARK UNBOUND:                -1.137
REMARK  Name = 
REMARK  8 active torsions:
REMARK  status: ('A' for Active; 'I' for Inactive)
REMARK    1  A    between atoms: C_2  and  C_4
REMARK    2  A    between atoms: C_7  and  O_8
REMARK    3  A    between atoms: O_8  and  C_9
REMARK    4  A    between atoms: C_9  and  C_10
REMARK    5  A    between atoms: C_10  and  C_11
REMARK    6  A    between atoms: C_15  and  O_16
REMARK    7  A    between atoms: O_16  and  C_17
REMARK    8  A    between atoms: C_19  and  O_20
REMARK                            x       y       z     vdW  Elec       q    Type
REMARK                         _______ _______ _______ _____ _____    ______ ____
ROOT
ATOM      1  C   UNL     1      48.854   8.787  12.406  0.00  0.00    +0.000 C 
ENDROOT
BRANCH   1   2
ATOM      2  C   UNL     1      47.369   8.694  12.164  0.00  0.00    +0.000 A 
ATOM      3  C   UNL     1      46.602   9.863  12.087  0.00  0.00    +0.000 A 
ATOM      4  C   UNL     1      45.235   9.795  11.832  0.00  0.00    +0.000 A 
ATOM      5  C   UNL     1      44.625   8.557  11.626  0.00  0.00    +0.000 A 
ATOM      6  C   UNL     1      45.383   7.389  11.661  0.00  0.00    +0.000 A 
ATOM      7  C   UNL     1      46.747   7.453  11.954  0.00  0.00    +0.000 A 
BRANCH   6   8
ATOM      8  O   UNL     1      44.859   6.139  11.416  0.00  0.00    +0.000 OA
BRANCH   8   9
ATOM      9  C   UNL     1      44.690   5.267  12.562  0.00  0.00    +0.000 C 
ATOM     10  C   UNL     1      45.270   3.838  12.436  0.00  0.00    +0.000 C 
ATOM     11  C   UNL     1      43.867   3.347  12.041  0.00  0.00    +0.000 C 
ATOM     12  C   UNL     1      43.298   4.611  12.712  0.00  0.00    +0.000 C 
BRANCH  11  13
ATOM     13  O   UNL     1      43.457   2.081  12.590  0.00  0.00    +0.000 OA
ATOM     14  H   UNL     1      43.372   1.475  11.834  0.00  0.00    +0.000 HD
ENDBRANCH  11  13
ENDBRANCH   8   9
ENDBRANCH   6   8
ENDBRANCH   1   2
BRANCH   1  15
ATOM     15  C   UNL     1      49.396   7.510  13.047  0.00  0.00    +0.000 C 
BRANCH  15  16
ATOM     16  O   UNL     1      49.335   7.652  14.468  0.00  0.00    +0.000 OA
BRANCH  16  20
ATOM     17  C   UNL     1      47.947   4.490  16.813  0.00  0.00    +0.000 A 
ATOM     18  C   UNL     1      47.406   4.660  15.535  0.00  0.00    +0.000 A 
ATOM     19  C   UNL     1      47.844   5.708  14.716  0.00  0.00    +0.000 A 
ATOM     20  C   UNL     1      48.823   6.595  15.170  0.00  0.00    +0.000 A 
ATOM     21  C   UNL     1      49.346   6.434  16.455  0.00  0.00    +0.000 A 
ATOM     22  C   UNL     1      48.909   5.392  17.278  0.00  0.00    +0.000 A 
BRANCH  17  24
ATOM     23  N   UNL     1      48.313   3.103  18.781  0.00  0.00    +0.000 N 
ATOM     24  C   UNL     1      47.513   3.386  17.709  0.00  0.00    +0.000 C 
ATOM     25  O   UNL     1      46.467   2.779  17.524  0.00  0.00    +0.000 OA
ATOM     26  H   UNL     1      47.945   2.434  19.446  0.00  0.00    +0.000 HD
ATOM     27  H   UNL     1      49.022   3.744  19.109  0.00  0.00    +0.000 HD
ENDBRANCH  17  24
ENDBRANCH  16  20
ENDBRANCH  15  16
ENDBRANCH   1  15
TORSDOF 8
ENDMDL
