MODEL 1
REMARK VINA RESULT:    -8.597      0.000      0.000
REMARK INTER + INTRA:         -13.389
REMARK INTER:                 -12.618
REMARK INTRA:                  -0.771
REMARK UNBOUND:                -0.771
REMARK  Name = 
REMARK  9 active torsions:
REMARK  status: ('A' for Active; 'I' for Inactive)
REMARK    1  A    between atoms: C_1  and  N_2
REMARK    2  A    between atoms: N_2  and  C_3
REMARK    3  A    between atoms: N_2  and  C_10
REMARK    4  A    between atoms: C_3  and  C_4
REMARK    5  A    between atoms: C_10  and  C_11
REMARK    6  A    between atoms: C_14  and  C_15
REMARK    7  A    between atoms: C_15  and  C_16
REMARK    8  A    between atoms: C_16  and  N_17
REMARK    9  A    between atoms: C_18  and  C_20
REMARK                            x       y       z     vdW  Elec       q    Type
REMARK                         _______ _______ _______ _____ _____    ______ ____
ROOT
ATOM      1  C   UNL     1      49.085   6.967  13.963  0.00  0.00    +0.000 C 
ENDROOT
BRANCH   1   5
ATOM      2  C   UNL     1      45.643   5.542  11.903  0.00  0.00    +0.000 A 
ATOM      3  C   UNL     1      46.321   6.658  11.411  0.00  0.00    +0.000 A 
ATOM      4  C   UNL     1      47.450   7.126  12.073  0.00  0.00    +0.000 A 
ATOM      5  C   UNL     1      47.888   6.455  13.211  0.00  0.00    +0.000 A 
ATOM      6  N   UNL     1      47.241   5.376  13.712  0.00  0.00    +0.000 NA
ATOM      7  C   UNL     1      46.146   4.943  13.052  0.00  0.00    +0.000 A 
BRANCH   2   8
ATOM      8  C   UNL     1      44.395   5.027  11.241  0.00  0.00    +0.000 C 
BRANCH   8  10
ATOM      9  C   UNL     1      43.584   2.742  11.097  0.00  0.00    +0.000 C 
ATOM     10  N   UNL     1      44.572   3.710  10.600  0.00  0.00    +0.000 NA
BRANCH  10  11
ATOM     11  C   UNL     1      44.469   3.870   9.135  0.00  0.00    +0.000 C 
BRANCH  11  12
ATOM     12  C   UNL     1      45.445   3.017   8.367  0.00  0.00    +0.000 A 
ATOM     13  C   UNL     1      46.235   3.548   7.344  0.00  0.00    +0.000 A 
ATOM     14  C   UNL     1      47.157   2.733   6.691  0.00  0.00    +0.000 A 
ATOM     15  C   UNL     1      47.246   1.406   7.076  0.00  0.00    +0.000 A 
ATOM     16  N   UNL     1      46.491   0.853   8.049  0.00  0.00    +0.000 NA
ATOM     17  C   UNL     1      45.610   1.669   8.670  0.00  0.00    +0.000 A 
ENDBRANCH  11  12
ENDBRANCH  10  11
ENDBRANCH   8  10
ENDBRANCH   2   8
ENDBRANCH   1   5
BRANCH   1  18
ATOM     18  C   UNL     1      48.885   6.907  15.478  0.00  0.00    +0.000 C 
BRANCH  18  19
ATOM     19  N   UNL     1      49.911   6.143  16.160  0.00  0.00    +0.000 N 
ATOM     20  C   UNL     1      49.611   5.149  17.058  0.00  0.00    +0.000 C 
ATOM     21  O   UNL     1      48.464   4.768  17.269  0.00  0.00    +0.000 OA
ATOM     22  H   UNL     1      50.825   6.583  16.215  0.00  0.00    +0.000 HD
BRANCH  20  23
ATOM     23  C   UNL     1      50.753   4.508  17.711  0.00  0.00    +0.000 A 
ATOM     24  C   UNL     1      51.590   5.258  18.525  0.00  0.00    +0.000 A 
ATOM     25  S   UNL     1      52.865   4.354  19.204  0.00  0.00    +0.000 S 
ATOM     26  C   UNL     1      52.360   2.938  18.404  0.00  0.00    +0.000 A 
ATOM     27  N   UNL     1      53.052   1.775  18.533  0.00  0.00    +0.000 NA
ATOM     28  C   UNL     1      52.573   0.791  17.847  0.00  0.00    +0.000 A 
ATOM     29  N   UNL     1      51.458   0.861  17.052  0.00  0.00    +0.000 N 
ATOM     30  C   UNL     1      50.698   1.999  16.930  0.00  0.00    +0.000 A 
ATOM     31  O   UNL     1      49.656   2.006  16.285  0.00  0.00    +0.000 OA
ATOM     32  C   UNL     1      51.217   3.144  17.654  0.00  0.00    +0.000 A 
ATOM     33  H   UNL     1      51.121   0.047  16.561  0.00  0.00    +0.000 HD
ENDBRANCH  20  23
ENDBRANCH  18  19
ENDBRANCH   1  18
TORSDOF 8
ENDMDL
MODEL 2
REMARK VINA RESULT:    -8.139      2.560      2.845
REMARK INTER + INTRA:         -12.716
REMARK INTER:                 -10.923
REMARK INTRA:                  -1.793
REMARK UNBOUND:                -0.771
REMARK  Name = 
REMARK  9 active torsions:
REMARK  status: ('A' for Active; 'I' for Inactive)
REMARK    1  A    between atoms: C_1  and  N_2
REMARK    2  A    between atoms: N_2  and  C_3
REMARK    3  A    between atoms: N_2  and  C_10
REMARK    4  A    between atoms: C_3  and  C_4
REMARK    5  A    between atoms: C_10  and  C_11
REMARK    6  A    between atoms: C_14  and  C_15
REMARK    7  A    between atoms: C_15  and  C_16
REMARK    8  A    between atoms: C_16  and  N_17
REMARK    9  A    between atoms: C_18  and  C_20
REMARK                            x       y       z     vdW  Elec       q    Type
REMARK                         _______ _______ _______ _____ _____    ______ ____
ROOT
ATOM      1  C   UNL     1      48.394   8.860  13.137  0.00  0.00    +0.000 C 
ENDROOT
BRANCH   1   5
ATOM      2  C   UNL     1      45.272   6.309  11.770  0.00  0.00    +0.000 A 
ATOM      3  C   UNL     1      46.568   6.122  11.287  0.00  0.00    +0.000 A 
ATOM      4  C   UNL     1      47.595   6.946  11.734  0.00  0.00    +0.000 A 
ATOM      5  C   UNL     1      47.304   7.934  12.669  0.00  0.00    +0.000 A 
ATOM      6  N   UNL     1      46.053   8.141  13.144  0.00  0.00    +0.000 NA
ATOM      7  C   UNL     1      45.073   7.329  12.692  0.00  0.00    +0.000 A 
BRANCH   2   8
ATOM      8  C   UNL     1      44.125   5.467  11.283  0.00  0.00    +0.000 C 
BRANCH   8  10
ATOM      9  C   UNL     1      43.893   3.297  12.350  0.00  0.00    +0.000 C 
ATOM     10  N   UNL     1      44.446   4.029  11.201  0.00  0.00    +0.000 NA
BRANCH  10  11
ATOM     11  C   UNL     1      43.927   3.492   9.928  0.00  0.00    +0.000 C 
BRANCH  11  12
ATOM     12  C   UNL     1      45.008   3.099   8.955  0.00  0.00    +0.000 A 
ATOM     13  C   UNL     1      45.647   4.045   8.149  0.00  0.00    +0.000 A 
ATOM     14  C   UNL     1      46.674   3.644   7.296  0.00  0.00    +0.000 A 
ATOM     15  C   UNL     1      47.016   2.303   7.270  0.00  0.00    +0.000 A 
ATOM     16  N   UNL     1      46.413   1.357   8.022  0.00  0.00    +0.000 NA
ATOM     17  C   UNL     1      45.426   1.776   8.845  0.00  0.00    +0.000 A 
ENDBRANCH  11  12
ENDBRANCH  10  11
ENDBRANCH   8  10
ENDBRANCH   2   8
ENDBRANCH   1   5
BRANCH   1  18
ATOM     18  C   UNL     1      48.120   9.414  14.536  0.00  0.00    +0.000 C 
BRANCH  18  19
ATOM     19  N   UNL     1      48.143   8.396  15.567  0.00  0.00    +0.000 N 
ATOM     20  C   UNL     1      49.299   7.755  15.939  0.00  0.00    +0.000 C 
ATOM     21  O   UNL     1      50.402   8.068  15.503  0.00  0.00    +0.000 OA
ATOM     22  H   UNL     1      47.256   7.938  15.755  0.00  0.00    +0.000 HD
BRANCH  20  23
ATOM     23  C   UNL     1      49.156   6.708  16.951  0.00  0.00    +0.000 A 
ATOM     24  C   UNL     1      49.724   6.882  18.206  0.00  0.00    +0.000 A 
ATOM     25  S   UNL     1      49.460   5.568  19.258  0.00  0.00    +0.000 S 
ATOM     26  C   UNL     1      48.609   4.708  18.060  0.00  0.00    +0.000 A 
ATOM     27  N   UNL     1      48.124   3.462  18.303  0.00  0.00    +0.000 NA
ATOM     28  C   UNL     1      47.527   2.916  17.296  0.00  0.00    +0.000 A 
ATOM     29  N   UNL     1      47.362   3.508  16.069  0.00  0.00    +0.000 N 
ATOM     30  C   UNL     1      47.791   4.784  15.793  0.00  0.00    +0.000 A 
ATOM     31  O   UNL     1      47.550   5.320  14.717  0.00  0.00    +0.000 OA
ATOM     32  C   UNL     1      48.501   5.426  16.883  0.00  0.00    +0.000 A 
ATOM     33  H   UNL     1      46.864   3.037  15.330  0.00  0.00    +0.000 HD
ENDBRANCH  20  23
ENDBRANCH  18  19
ENDBRANCH   1  18
TORSDOF 8
ENDMDL
MODEL 3
REMARK VINA RESULT:    -7.625      3.401      8.885
REMARK INTER + INTRA:         -11.963
REMARK INTER:                 -10.307
REMARK INTRA:                  -1.656
REMARK UNBOUND:                -0.771
REMARK  Name = 
REMARK  9 active torsions:
REMARK  status: ('A' for Active; 'I' for Inactive)
REMARK    1  A    between atoms: C_1  and  N_2
REMARK    2  A    between atoms: N_2  and  C_3
REMARK    3  A    between atoms: N_2  and  C_10
REMARK    4  A    between atoms: C_3  and  C_4
REMARK    5  A    between atoms: C_10  and  C_11
REMARK    6  A    between atoms: C_14  and  C_15
REMARK    7  A    between atoms: C_15  and  C_16
REMARK    8  A    between atoms: C_16  and  N_17
REMARK    9  A    between atoms: C_18  and  C_20
REMARK                            x       y       z     vdW  Elec       q    Type
REMARK                         _______ _______ _______ _____ _____    ______ ____
ROOT
ATOM      1  C   UNL     1      49.464   7.520  12.220  0.00  0.00    +0.000 C 
ENDROOT
BRANCH   1   5
ATOM      2  C   UNL     1      49.995   7.128  16.426  0.00  0.00    +0.000 A 
ATOM      3  C   UNL     1      50.918   7.869  15.686  0.00  0.00    +0.000 A 
ATOM      4  C   UNL     1      50.749   8.008  14.314  0.00  0.00    +0.000 A 
ATOM      5  C   UNL     1      49.645   7.412  13.710  0.00  0.00    +0.000 A 
ATOM      6  N   UNL     1      48.742   6.682  14.405  0.00  0.00    +0.000 NA
ATOM      7  C   UNL     1      48.931   6.559  15.737  0.00  0.00    +0.000 A 
BRANCH   2   8
ATOM      8  C   UNL     1      50.162   6.919  17.906  0.00  0.00    +0.000 C 
BRANCH   8  10
ATOM      9  C   UNL     1      52.275   6.472  19.018  0.00  0.00    +0.000 C 
ATOM     10  N   UNL     1      51.169   5.893  18.243  0.00  0.00    +0.000 NA
BRANCH  10  11
ATOM     11  C   UNL     1      50.512   4.801  18.989  0.00  0.00    +0.000 C 
BRANCH  11  12
ATOM     12  C   UNL     1      49.813   3.803  18.103  0.00  0.00    +0.000 A 
ATOM     13  C   UNL     1      48.419   3.759  18.006  0.00  0.00    +0.000 A 
ATOM     14  C   UNL     1      47.816   2.850  17.139  0.00  0.00    +0.000 A 
ATOM     15  C   UNL     1      48.632   2.005  16.407  0.00  0.00    +0.000 A 
ATOM     16  N   UNL     1      49.979   2.007  16.483  0.00  0.00    +0.000 NA
ATOM     17  C   UNL     1      50.537   2.904  17.327  0.00  0.00    +0.000 A 
ENDBRANCH  11  12
ENDBRANCH  10  11
ENDBRANCH   8  10
ENDBRANCH   2   8
ENDBRANCH   1   5
BRANCH   1  18
ATOM     18  C   UNL     1      48.026   7.870  11.838  0.00  0.00    +0.000 C 
BRANCH  18  19
ATOM     19  N   UNL     1      47.171   6.708  11.706  0.00  0.00    +0.000 N 
ATOM     20  C   UNL     1      45.805   6.784  11.819  0.00  0.00    +0.000 C 
ATOM     21  O   UNL     1      45.206   7.849  11.935  0.00  0.00    +0.000 OA
ATOM     22  H   UNL     1      47.618   5.810  11.869  0.00  0.00    +0.000 HD
BRANCH  20  23
ATOM     23  C   UNL     1      45.079   5.517  11.722  0.00  0.00    +0.000 A 
ATOM     24  C   UNL     1      44.374   5.044  12.820  0.00  0.00    +0.000 A 
ATOM     25  S   UNL     1      43.589   3.558  12.532  0.00  0.00    +0.000 S 
ATOM     26  C   UNL     1      44.196   3.483  10.943  0.00  0.00    +0.000 A 
ATOM     27  N   UNL     1      43.921   2.423  10.138  0.00  0.00    +0.000 NA
ATOM     28  C   UNL     1      44.472   2.484   8.970  0.00  0.00    +0.000 A 
ATOM     29  N   UNL     1      45.264   3.513   8.531  0.00  0.00    +0.000 N 
ATOM     30  C   UNL     1      45.529   4.627   9.291  0.00  0.00    +0.000 A 
ATOM     31  O   UNL     1      46.165   5.573   8.839  0.00  0.00    +0.000 OA
ATOM     32  C   UNL     1      44.961   4.590  10.626  0.00  0.00    +0.000 A 
ATOM     33  H   UNL     1      45.645   3.512   7.598  0.00  0.00    +0.000 HD
ENDBRANCH  20  23
ENDBRANCH  18  19
ENDBRANCH   1  18
TORSDOF 8
ENDMDL
MODEL 4
REMARK VINA RESULT:    -7.611      3.261      5.089
REMARK INTER + INTRA:         -11.942
REMARK INTER:                 -11.023
REMARK INTRA:                  -0.919
REMARK UNBOUND:                -0.771
REMARK  Name = 
REMARK  9 active torsions:
REMARK  status: ('A' for Active; 'I' for Inactive)
REMARK    1  A    between atoms: C_1  and  N_2
REMARK    2  A    between atoms: N_2  and  C_3
REMARK    3  A    between atoms: N_2  and  C_10
REMARK    4  A    between atoms: C_3  and  C_4
REMARK    5  A    between atoms: C_10  and  C_11
REMARK    6  A    between atoms: C_14  and  C_15
REMARK    7  A    between atoms: C_15  and  C_16
REMARK    8  A    between atoms: C_16  and  N_17
REMARK    9  A    between atoms: C_18  and  C_20
REMARK                            x       y       z     vdW  Elec       q    Type
REMARK                         _______ _______ _______ _____ _____    ______ ____
ROOT
ATOM      1  C   UNL     1      47.351   4.353  16.106  0.00  0.00    +0.000 C 
ENDROOT
BRANCH   1   5
ATOM      2  C   UNL     1      46.062   4.999  12.101  0.00  0.00    +0.000 A 
ATOM      3  C   UNL     1      46.505   6.083  12.860  0.00  0.00    +0.000 A 
ATOM      4  C   UNL     1      46.934   5.881  14.166  0.00  0.00    +0.000 A 
ATOM      5  C   UNL     1      46.926   4.589  14.682  0.00  0.00    +0.000 A 
ATOM      6  N   UNL     1      46.492   3.523  13.969  0.00  0.00    +0.000 NA
ATOM      7  C   UNL     1      46.077   3.747  12.703  0.00  0.00    +0.000 A 
BRANCH   2   8
ATOM      8  C   UNL     1      45.551   5.180  10.698  0.00  0.00    +0.000 C 
BRANCH   8  10
ATOM      9  C   UNL     1      43.169   4.775  10.946  0.00  0.00    +0.000 C 
ATOM     10  N   UNL     1      44.426   4.284  10.364  0.00  0.00    +0.000 NA
BRANCH  10  11
ATOM     11  C   UNL     1      44.322   4.169   8.895  0.00  0.00    +0.000 C 
BRANCH  11  12
ATOM     12  C   UNL     1      45.306   3.198   8.297  0.00  0.00    +0.000 A 
ATOM     13  C   UNL     1      46.178   3.576   7.272  0.00  0.00    +0.000 A 
ATOM     14  C   UNL     1      47.103   2.657   6.779  0.00  0.00    +0.000 A 
ATOM     15  C   UNL     1      47.114   1.384   7.323  0.00  0.00    +0.000 A 
ATOM     16  N   UNL     1      46.280   0.977   8.303  0.00  0.00    +0.000 NA
ATOM     17  C   UNL     1      45.398   1.891   8.766  0.00  0.00    +0.000 A 
ENDBRANCH  11  12
ENDBRANCH  10  11
ENDBRANCH   8  10
ENDBRANCH   2   8
ENDBRANCH   1   5
BRANCH   1  18
ATOM     18  C   UNL     1      48.531   5.239  16.510  0.00  0.00    +0.000 C 
BRANCH  18  19
ATOM     19  N   UNL     1      48.140   6.379  17.314  0.00  0.00    +0.000 N 
ATOM     20  C   UNL     1      48.595   6.563  18.596  0.00  0.00    +0.000 C 
ATOM     21  O   UNL     1      49.440   5.839  19.112  0.00  0.00    +0.000 OA
ATOM     22  H   UNL     1      47.276   6.838  17.039  0.00  0.00    +0.000 HD
BRANCH  20  23
ATOM     23  C   UNL     1      48.065   7.729  19.305  0.00  0.00    +0.000 A 
ATOM     24  C   UNL     1      47.660   7.604  20.627  0.00  0.00    +0.000 A 
ATOM     25  S   UNL     1      47.071   9.057  21.296  0.00  0.00    +0.000 S 
ATOM     26  C   UNL     1      47.306   9.891  19.830  0.00  0.00    +0.000 A 
ATOM     27  N   UNL     1      46.966  11.202  19.708  0.00  0.00    +0.000 NA
ATOM     28  C   UNL     1      47.171  11.697  18.532  0.00  0.00    +0.000 A 
ATOM     29  N   UNL     1      47.694  11.004  17.470  0.00  0.00    +0.000 N 
ATOM     30  C   UNL     1      48.097   9.694  17.561  0.00  0.00    +0.000 A 
ATOM     31  O   UNL     1      48.644   9.128  16.621  0.00  0.00    +0.000 OA
ATOM     32  C   UNL     1      47.854   9.081  18.853  0.00  0.00    +0.000 A 
ATOM     33  H   UNL     1      47.851  11.458  16.584  0.00  0.00    +0.000 HD
ENDBRANCH  20  23
ENDBRANCH  18  19
ENDBRANCH   1  18
TORSDOF 8
ENDMDL
MODEL 5
REMARK VINA RESULT:    -7.404      2.513      3.063
REMARK INTER + INTRA:         -11.637
REMARK INTER:                 -10.571
REMARK INTRA:                  -1.067
REMARK UNBOUND:                -0.771
REMARK  Name = 
REMARK  9 active torsions:
REMARK  status: ('A' for Active; 'I' for Inactive)
REMARK    1  A    between atoms: C_1  and  N_2
REMARK    2  A    between atoms: N_2  and  C_3
REMARK    3  A    between atoms: N_2  and  C_10
REMARK    4  A    between atoms: C_3  and  C_4
REMARK    5  A    between atoms: C_10  and  C_11
REMARK    6  A    between atoms: C_14  and  C_15
REMARK    7  A    between atoms: C_15  and  C_16
REMARK    8  A    between atoms: C_16  and  N_17
REMARK    9  A    between atoms: C_18  and  C_20
REMARK                            x       y       z     vdW  Elec       q    Type
REMARK                         _______ _______ _______ _____ _____    ______ ____
ROOT
ATOM      1  C   UNL     1      48.893   6.904  14.168  0.00  0.00    +0.000 C 
ENDROOT
BRANCH   1   5
ATOM      2  C   UNL     1      45.528   5.563  11.932  0.00  0.00    +0.000 A 
ATOM      3  C   UNL     1      45.858   4.917  13.125  0.00  0.00    +0.000 A 
ATOM      4  C   UNL     1      46.951   5.352  13.865  0.00  0.00    +0.000 A 
ATOM      5  C   UNL     1      47.685   6.440  13.401  0.00  0.00    +0.000 A 
ATOM      6  N   UNL     1      47.390   7.077  12.243  0.00  0.00    +0.000 NA
ATOM      7  C   UNL     1      46.325   6.631  11.542  0.00  0.00    +0.000 A 
BRANCH   2   8
ATOM      8  C   UNL     1      44.379   5.098  11.080  0.00  0.00    +0.000 C 
BRANCH   8  10
ATOM      9  C   UNL     1      43.591   2.804  11.199  0.00  0.00    +0.000 C 
ATOM     10  N   UNL     1      44.547   3.725  10.567  0.00  0.00    +0.000 NA
BRANCH  10  11
ATOM     11  C   UNL     1      44.383   3.736   9.100  0.00  0.00    +0.000 C 
BRANCH  11  12
ATOM     12  C   UNL     1      45.443   2.951   8.371  0.00  0.00    +0.000 A 
ATOM     13  C   UNL     1      46.319   3.563   7.471  0.00  0.00    +0.000 A 
ATOM     14  C   UNL     1      47.314   2.807   6.853  0.00  0.00    +0.000 A 
ATOM     15  C   UNL     1      47.387   1.456   7.149  0.00  0.00    +0.000 A 
ATOM     16  N   UNL     1      46.551   0.826   8.001  0.00  0.00    +0.000 NA
ATOM     17  C   UNL     1      45.600   1.586   8.591  0.00  0.00    +0.000 A 
ENDBRANCH  11  12
ENDBRANCH  10  11
ENDBRANCH   8  10
ENDBRANCH   2   8
ENDBRANCH   1   5
BRANCH   1  18
ATOM     18  C   UNL     1      48.600   8.145  15.013  0.00  0.00    +0.000 C 
BRANCH  18  19
ATOM     19  N   UNL     1      48.548   7.868  16.434  0.00  0.00    +0.000 N 
ATOM     20  C   UNL     1      49.629   8.058  17.259  0.00  0.00    +0.000 C 
ATOM     21  O   UNL     1      50.676   8.569  16.875  0.00  0.00    +0.000 OA
ATOM     22  H   UNL     1      47.823   7.222  16.732  0.00  0.00    +0.000 HD
BRANCH  20  23
ATOM     23  C   UNL     1      49.444   7.678  18.660  0.00  0.00    +0.000 A 
ATOM     24  C   UNL     1      49.606   8.629  19.657  0.00  0.00    +0.000 A 
ATOM     25  S   UNL     1      49.352   8.016  21.227  0.00  0.00    +0.000 S 
ATOM     26  C   UNL     1      49.052   6.451  20.627  0.00  0.00    +0.000 A 
ATOM     27  N   UNL     1      48.792   5.416  21.468  0.00  0.00    +0.000 NA
ATOM     28  C   UNL     1      48.614   4.281  20.877  0.00  0.00    +0.000 A 
ATOM     29  N   UNL     1      48.662   4.089  19.520  0.00  0.00    +0.000 N 
ATOM     30  C   UNL     1      48.872   5.113  18.629  0.00  0.00    +0.000 A 
ATOM     31  O   UNL     1      48.820   4.927  17.418  0.00  0.00    +0.000 OA
ATOM     32  C   UNL     1      49.114   6.404  19.246  0.00  0.00    +0.000 A 
ATOM     33  H   UNL     1      48.490   3.180  19.119  0.00  0.00    +0.000 HD
ENDBRANCH  20  23
ENDBRANCH  18  19
ENDBRANCH   1  18
TORSDOF 8
ENDMDL
MODEL 6
REMARK VINA RESULT:    -7.251      4.283      8.225
REMARK INTER + INTRA:         -11.413
REMARK INTER:                  -9.484
REMARK INTRA:                  -1.929
REMARK UNBOUND:                -0.771
REMARK  Name = 
REMARK  9 active torsions:
REMARK  status: ('A' for Active; 'I' for Inactive)
REMARK    1  A    between atoms: C_1  and  N_2
REMARK    2  A    between atoms: N_2  and  C_3
REMARK    3  A    between atoms: N_2  and  C_10
REMARK    4  A    between atoms: C_3  and  C_4
REMARK    5  A    between atoms: C_10  and  C_11
REMARK    6  A    between atoms: C_14  and  C_15
REMARK    7  A    between atoms: C_15  and  C_16
REMARK    8  A    between atoms: C_16  and  N_17
REMARK    9  A    between atoms: C_18  and  C_20
REMARK                            x       y       z     vdW  Elec       q    Type
REMARK                         _______ _______ _______ _____ _____    ______ ____
ROOT
ATOM      1  C   UNL     1      47.981   4.322  17.842  0.00  0.00    +0.000 C 
ENDROOT
BRANCH   1   5
ATOM      2  C   UNL     1      49.890   7.974  16.777  0.00  0.00    +0.000 A 
ATOM      3  C   UNL     1      49.085   7.931  17.916  0.00  0.00    +0.000 A 
ATOM      4  C   UNL     1      48.463   6.741  18.275  0.00  0.00    +0.000 A 
ATOM      5  C   UNL     1      48.674   5.610  17.492  0.00  0.00    +0.000 A 
ATOM      6  N   UNL     1      49.444   5.630  16.377  0.00  0.00    +0.000 NA
ATOM      7  C   UNL     1      50.033   6.800  16.049  0.00  0.00    +0.000 A 
BRANCH   2   8
ATOM      8  C   UNL     1      50.549   9.251  16.329  0.00  0.00    +0.000 C 
BRANCH   8  10
ATOM      9  C   UNL     1      49.165  11.018  15.400  0.00  0.00    +0.000 C 
ATOM     10  N   UNL     1      49.957   9.816  15.101  0.00  0.00    +0.000 NA
BRANCH  10  11
ATOM     11  C   UNL     1      51.038  10.117  14.141  0.00  0.00    +0.000 C 
BRANCH  11  12
ATOM     12  C   UNL     1      51.086   9.168  12.972  0.00  0.00    +0.000 A 
ATOM     13  C   UNL     1      49.943   8.500  12.524  0.00  0.00    +0.000 A 
ATOM     14  C   UNL     1      50.024   7.665  11.410  0.00  0.00    +0.000 A 
ATOM     15  C   UNL     1      51.254   7.519  10.791  0.00  0.00    +0.000 A 
ATOM     16  N   UNL     1      52.382   8.135  11.202  0.00  0.00    +0.000 NA
ATOM     17  C   UNL     1      52.272   8.943  12.281  0.00  0.00    +0.000 A 
ENDBRANCH  11  12
ENDBRANCH  10  11
ENDBRANCH   8  10
ENDBRANCH   2   8
ENDBRANCH   1   5
BRANCH   1  18
ATOM     18  C   UNL     1      47.439   3.603  16.606  0.00  0.00    +0.000 C 
BRANCH  18  19
ATOM     19  N   UNL     1      46.818   4.499  15.651  0.00  0.00    +0.000 N 
ATOM     20  C   UNL     1      46.799   4.237  14.303  0.00  0.00    +0.000 C 
ATOM     21  O   UNL     1      47.210   3.184  13.825  0.00  0.00    +0.000 OA
ATOM     22  H   UNL     1      46.709   5.462  15.956  0.00  0.00    +0.000 HD
BRANCH  20  23
ATOM     23  C   UNL     1      46.189   5.264  13.457  0.00  0.00    +0.000 A 
ATOM     24  C   UNL     1      46.870   6.449  13.216  0.00  0.00    +0.000 A 
ATOM     25  S   UNL     1      46.016   7.529  12.212  0.00  0.00    +0.000 S 
ATOM     26  C   UNL     1      44.694   6.463  12.096  0.00  0.00    +0.000 A 
ATOM     27  N   UNL     1      43.582   6.799  11.390  0.00  0.00    +0.000 NA
ATOM     28  C   UNL     1      42.647   5.908  11.413  0.00  0.00    +0.000 A 
ATOM     29  N   UNL     1      42.725   4.707  12.070  0.00  0.00    +0.000 N 
ATOM     30  C   UNL     1      43.846   4.303  12.755  0.00  0.00    +0.000 A 
ATOM     31  O   UNL     1      43.921   3.187  13.256  0.00  0.00    +0.000 OA
ATOM     32  C   UNL     1      44.913   5.286  12.788  0.00  0.00    +0.000 A 
ATOM     33  H   UNL     1      41.967   4.044  12.029  0.00  0.00    +0.000 HD
ENDBRANCH  20  23
ENDBRANCH  18  19
ENDBRANCH   1  18
TORSDOF 8
ENDMDL
MODEL 7
REMARK VINA RESULT:    -7.028      3.867      8.574
REMARK INTER + INTRA:         -11.086
REMARK INTER:                  -9.474
REMARK INTRA:                  -1.612
REMARK UNBOUND:                -0.771
REMARK  Name = 
REMARK  9 active torsions:
REMARK  status: ('A' for Active; 'I' for Inactive)
REMARK    1  A    between atoms: C_1  and  N_2
REMARK    2  A    between atoms: N_2  and  C_3
REMARK    3  A    between atoms: N_2  and  C_10
REMARK    4  A    between atoms: C_3  and  C_4
REMARK    5  A    between atoms: C_10  and  C_11
REMARK    6  A    between atoms: C_14  and  C_15
REMARK    7  A    between atoms: C_15  and  C_16
REMARK    8  A    between atoms: C_16  and  N_17
REMARK    9  A    between atoms: C_18  and  C_20
REMARK                            x       y       z     vdW  Elec       q    Type
REMARK                         _______ _______ _______ _____ _____    ______ ____
ROOT
ATOM      1  C   UNL     1      49.694   8.540  14.111  0.00  0.00    +0.000 C 
ENDROOT
BRANCH   1   5
ATOM      2  C   UNL     1      50.125   7.429  18.198  0.00  0.00    +0.000 A 
ATOM      3  C   UNL     1      50.860   6.751  17.224  0.00  0.00    +0.000 A 
ATOM      4  C   UNL     1      50.730   7.112  15.888  0.00  0.00    +0.000 A 
ATOM      5  C   UNL     1      49.876   8.159  15.555  0.00  0.00    +0.000 A 
ATOM      6  N   UNL     1      49.146   8.825  16.481  0.00  0.00    +0.000 NA
ATOM      7  C   UNL     1      49.288   8.452  17.771  0.00  0.00    +0.000 A 
BRANCH   2   8
ATOM      8  C   UNL     1      50.205   7.044  19.650  0.00  0.00    +0.000 C 
BRANCH   8  10
ATOM      9  C   UNL     1      50.550   5.230  21.228  0.00  0.00    +0.000 C 
ATOM     10  N   UNL     1      50.094   5.590  19.878  0.00  0.00    +0.000 NA
BRANCH  10  11
ATOM     11  C   UNL     1      48.693   5.175  19.662  0.00  0.00    +0.000 C 
BRANCH  11  12
ATOM     12  C   UNL     1      48.517   4.241  18.493  0.00  0.00    +0.000 A 
ATOM     13  C   UNL     1      49.547   3.398  18.066  0.00  0.00    +0.000 A 
ATOM     14  C   UNL     1      49.325   2.518  17.009  0.00  0.00    +0.000 A 
ATOM     15  C   UNL     1      48.078   2.521  16.406  0.00  0.00    +0.000 A 
ATOM     16  N   UNL     1      47.063   3.329  16.780  0.00  0.00    +0.000 NA
ATOM     17  C   UNL     1      47.306   4.168  17.812  0.00  0.00    +0.000 A 
ENDBRANCH  11  12
ENDBRANCH  10  11
ENDBRANCH   8  10
ENDBRANCH   2   8
ENDBRANCH   1   5
BRANCH   1  18
ATOM     18  C   UNL     1      49.598   7.317  13.199  0.00  0.00    +0.000 C 
BRANCH  18  19
ATOM     19  N   UNL     1      48.256   7.076  12.706  0.00  0.00    +0.000 N 
ATOM     20  C   UNL     1      47.410   6.169  13.295  0.00  0.00    +0.000 C 
ATOM     21  O   UNL     1      47.689   5.578  14.334  0.00  0.00    +0.000 OA
ATOM     22  H   UNL     1      48.088   7.332  11.738  0.00  0.00    +0.000 HD
BRANCH  20  23
ATOM     23  C   UNL     1      46.109   5.990  12.650  0.00  0.00    +0.000 A 
ATOM     24  C   UNL     1      45.430   7.095  12.156  0.00  0.00    +0.000 A 
ATOM     25  S   UNL     1      43.934   6.706  11.438  0.00  0.00    +0.000 S 
ATOM     26  C   UNL     1      44.130   5.053  11.796  0.00  0.00    +0.000 A 
ATOM     27  N   UNL     1      43.169   4.147  11.472  0.00  0.00    +0.000 NA
ATOM     28  C   UNL     1      43.437   2.935  11.831  0.00  0.00    +0.000 A 
ATOM     29  N   UNL     1      44.583   2.545  12.475  0.00  0.00    +0.000 N 
ATOM     30  C   UNL     1      45.602   3.415  12.778  0.00  0.00    +0.000 A 
ATOM     31  O   UNL     1      46.653   3.021  13.272  0.00  0.00    +0.000 OA
ATOM     32  C   UNL     1      45.333   4.797  12.427  0.00  0.00    +0.000 A 
ATOM     33  H   UNL     1      44.742   1.576  12.706  0.00  0.00    +0.000 HD
ENDBRANCH  20  23
ENDBRANCH  18  19
ENDBRANCH   1  18
TORSDOF 8
ENDMDL
MODEL 8
REMARK VINA RESULT:    -6.883      5.027      6.643
REMARK INTER + INTRA:         -10.873
REMARK INTER:                  -9.447
REMARK INTRA:                  -1.426
REMARK UNBOUND:                -0.771
REMARK  Name = 
REMARK  9 active torsions:
REMARK  status: ('A' for Active; 'I' for Inactive)
REMARK    1  A    between atoms: C_1  and  N_2
REMARK    2  A    between atoms: N_2  and  C_3
REMARK    3  A    between atoms: N_2  and  C_10
REMARK    4  A    between atoms: C_3  and  C_4
REMARK    5  A    between atoms: C_10  and  C_11
REMARK    6  A    between atoms: C_14  and  C_15
REMARK    7  A    between atoms: C_15  and  C_16
REMARK    8  A    between atoms: C_16  and  N_17
REMARK    9  A    between atoms: C_18  and  C_20
REMARK                            x       y       z     vdW  Elec       q    Type
REMARK                         _______ _______ _______ _____ _____    ______ ____
ROOT
ATOM      1  C   UNL     1      49.401   7.219  13.396  0.00  0.00    +0.000 C 
ENDROOT
BRANCH   1   5
ATOM      2  C   UNL     1      45.695   5.654  12.005  0.00  0.00    +0.000 A 
ATOM      3  C   UNL     1      46.209   5.211  13.224  0.00  0.00    +0.000 A 
ATOM      4  C   UNL     1      47.415   5.722  13.690  0.00  0.00    +0.000 A 
ATOM      5  C   UNL     1      48.076   6.681  12.928  0.00  0.00    +0.000 A 
ATOM      6  N   UNL     1      47.602   7.119  11.738  0.00  0.00    +0.000 NA
ATOM      7  C   UNL     1      46.430   6.604  11.307  0.00  0.00    +0.000 A 
BRANCH   2   8
ATOM      8  C   UNL     1      44.414   5.098  11.445  0.00  0.00    +0.000 C 
BRANCH   8  10
ATOM      9  C   UNL     1      43.693   2.846  12.003  0.00  0.00    +0.000 C 
ATOM     10  N   UNL     1      44.501   3.668  11.090  0.00  0.00    +0.000 NA
BRANCH  10  11
ATOM     11  C   UNL     1      44.066   3.492   9.690  0.00  0.00    +0.000 C 
BRANCH  11  12
ATOM     12  C   UNL     1      45.152   2.972   8.784  0.00  0.00    +0.000 A 
ATOM     13  C   UNL     1      45.880   3.824   7.949  0.00  0.00    +0.000 A 
ATOM     14  C   UNL     1      46.906   3.306   7.160  0.00  0.00    +0.000 A 
ATOM     15  C   UNL     1      47.159   1.946   7.227  0.00  0.00    +0.000 A 
ATOM     16  N   UNL     1      46.470   1.090   8.010  0.00  0.00    +0.000 NA
ATOM     17  C   UNL     1      45.484   1.621   8.768  0.00  0.00    +0.000 A 
ENDBRANCH  11  12
ENDBRANCH  10  11
ENDBRANCH   8  10
ENDBRANCH   2   8
ENDBRANCH   1   5
BRANCH   1  18
ATOM     18  C   UNL     1      49.571   8.702  13.066  0.00  0.00    +0.000 C 
BRANCH  18  19
ATOM     19  N   UNL     1      50.308   8.933  11.839  0.00  0.00    +0.000 N 
ATOM     20  C   UNL     1      51.512   9.592  11.820  0.00  0.00    +0.000 C 
ATOM     21  O   UNL     1      52.096   9.939  12.841  0.00  0.00    +0.000 OA
ATOM     22  H   UNL     1      49.761   8.902  10.983  0.00  0.00    +0.000 HD
BRANCH  20  23
ATOM     23  C   UNL     1      52.108   9.802  10.500  0.00  0.00    +0.000 A 
ATOM     24  C   UNL     1      52.349  11.094  10.052  0.00  0.00    +0.000 A 
ATOM     25  S   UNL     1      53.046  11.154   8.498  0.00  0.00    +0.000 S 
ATOM     26  C   UNL     1      53.016   9.457   8.359  0.00  0.00    +0.000 A 
ATOM     27  N   UNL     1      53.452   8.839   7.230  0.00  0.00    +0.000 NA
ATOM     28  C   UNL     1      53.343   7.552   7.251  0.00  0.00    +0.000 A 
ATOM     29  N   UNL     1      52.846   6.826   8.303  0.00  0.00    +0.000 N 
ATOM     30  C   UNL     1      52.440   7.402   9.482  0.00  0.00    +0.000 A 
ATOM     31  O   UNL     1      52.086   6.721  10.438  0.00  0.00    +0.000 OA
ATOM     32  C   UNL     1      52.510   8.852   9.494  0.00  0.00    +0.000 A 
ATOM     33  H   UNL     1      52.810   5.819   8.265  0.00  0.00    +0.000 HD
ENDBRANCH  20  23
ENDBRANCH  18  19
ENDBRANCH   1  18
TORSDOF 8
ENDMDL
MODEL 9
REMARK VINA RESULT:    -6.782      3.749      8.455
REMARK INTER + INTRA:         -10.726
REMARK INTER:                  -8.933
REMARK INTRA:                  -1.793
REMARK UNBOUND:                -0.771
REMARK  Name = 
REMARK  9 active torsions:
REMARK  status: ('A' for Active; 'I' for Inactive)
REMARK    1  A    between atoms: C_1  and  N_2
REMARK    2  A    between atoms: N_2  and  C_3
REMARK    3  A    between atoms: N_2  and  C_10
REMARK    4  A    between atoms: C_3  and  C_4
REMARK    5  A    between atoms: C_10  and  C_11
REMARK    6  A    between atoms: C_14  and  C_15
REMARK    7  A    between atoms: C_15  and  C_16
REMARK    8  A    between atoms: C_16  and  N_17
REMARK    9  A    between atoms: C_18  and  C_20
REMARK                            x       y       z     vdW  Elec       q    Type
REMARK                         _______ _______ _______ _____ _____    ______ ____
ROOT
ATOM      1  C   UNL     1      49.661   9.348  12.851  0.00  0.00    +0.000 C 
ENDROOT
BRANCH   1   5
ATOM      2  C   UNL     1      49.060   7.950  16.827  0.00  0.00    +0.000 A 
ATOM      3  C   UNL     1      48.593   9.215  16.469  0.00  0.00    +0.000 A 
ATOM      4  C   UNL     1      48.779   9.677  15.171  0.00  0.00    +0.000 A 
ATOM      5  C   UNL     1      49.417   8.852  14.250  0.00  0.00    +0.000 A 
ATOM      6  N   UNL     1      49.887   7.625  14.576  0.00  0.00    +0.000 NA
ATOM      7  C   UNL     1      49.697   7.201  15.845  0.00  0.00    +0.000 A 
BRANCH   2   8
ATOM      8  C   UNL     1      48.916   7.428  18.230  0.00  0.00    +0.000 C 
BRANCH   8  10
ATOM      9  C   UNL     1      50.949   7.379  19.559  0.00  0.00    +0.000 C 
ATOM     10  N   UNL     1      50.063   6.611  18.672  0.00  0.00    +0.000 NA
BRANCH  10  11
ATOM     11  C   UNL     1      49.559   5.398  19.346  0.00  0.00    +0.000 C 
BRANCH  11  12
ATOM     12  C   UNL     1      49.266   4.263  18.400  0.00  0.00    +0.000 A 
ATOM     13  C   UNL     1      47.958   3.844  18.142  0.00  0.00    +0.000 A 
ATOM     14  C   UNL     1      47.730   2.819  17.225  0.00  0.00    +0.000 A 
ATOM     15  C   UNL     1      48.825   2.239  16.607  0.00  0.00    +0.000 A 
ATOM     16  N   UNL     1      50.103   2.606  16.840  0.00  0.00    +0.000 NA
ATOM     17  C   UNL     1      50.293   3.606  17.730  0.00  0.00    +0.000 A 
ENDBRANCH  11  12
ENDBRANCH  10  11
ENDBRANCH   8  10
ENDBRANCH   2   8
ENDBRANCH   1   5
BRANCH   1  18
ATOM     18  C   UNL     1      48.477   9.067  11.925  0.00  0.00    +0.000 C 
BRANCH  18  19
ATOM     19  N   UNL     1      47.925   7.737  12.091  0.00  0.00    +0.000 N 
ATOM     20  C   UNL     1      46.746   7.510  12.756  0.00  0.00    +0.000 C 
ATOM     21  O   UNL     1      46.027   8.417  13.163  0.00  0.00    +0.000 OA
ATOM     22  H   UNL     1      48.588   6.971  12.009  0.00  0.00    +0.000 HD
BRANCH  20  23
ATOM     23  C   UNL     1      46.346   6.109  12.895  0.00  0.00    +0.000 A 
ATOM     24  C   UNL     1      47.177   5.221  13.565  0.00  0.00    +0.000 A 
ATOM     25  S   UNL     1      46.558   3.635  13.634  0.00  0.00    +0.000 S 
ATOM     26  C   UNL     1      45.177   4.076  12.741  0.00  0.00    +0.000 A 
ATOM     27  N   UNL     1      44.231   3.156  12.414  0.00  0.00    +0.000 NA
ATOM     28  C   UNL     1      43.254   3.623  11.709  0.00  0.00    +0.000 A 
ATOM     29  N   UNL     1      43.133   4.930  11.310  0.00  0.00    +0.000 N 
ATOM     30  C   UNL     1      44.037   5.904  11.658  0.00  0.00    +0.000 A 
ATOM     31  O   UNL     1      43.855   7.080  11.363  0.00  0.00    +0.000 OA
ATOM     32  C   UNL     1      45.173   5.420  12.421  0.00  0.00    +0.000 A 
ATOM     33  H   UNL     1      42.331   5.236  10.780  0.00  0.00    +0.000 HD
ENDBRANCH  20  23
ENDBRANCH  18  19
ENDBRANCH   1  18
TORSDOF 8
ENDMDL
