MODEL 1
REMARK VINA RESULT:    -8.331      0.000      0.000
REMARK INTER + INTRA:         -12.355
REMARK INTER:                 -11.254
REMARK INTRA:                  -1.101
REMARK UNBOUND:                -1.101
REMARK  Name = 
REMARK  6 active torsions:
REMARK  status: ('A' for Active; 'I' for Inactive)
REMARK    1  A    between atoms: C_2  and  C_4
REMARK    2  A    between atoms: C_7  and  O_8
REMARK    3  A    between atoms: O_8  and  C_9
REMARK    4  A    between atoms: C_9  and  C_10
REMARK    5  A    between atoms: C_11  and  C_12
REMARK    6  A    between atoms: C_14  and  C_15
REMARK                            x       y       z     vdW  Elec       q    Type
REMARK                         _______ _______ _______ _____ _____    ______ ____
ROOT
ATOM      1  C   UNL     1      44.473   3.888  12.418  0.00  0.00    +0.000 C 
ATOM      2  C   UNL     1      45.810   3.786  12.475  0.00  0.00    +0.000 C 
ENDROOT
BRANCH   2   3
ATOM      3  C   UNL     1      46.636   4.698  13.274  0.00  0.00    +0.000 A 
ATOM      4  C   UNL     1      47.005   4.312  14.574  0.00  0.00    +0.000 A 
ATOM      5  C   UNL     1      47.749   5.163  15.421  0.00  0.00    +0.000 A 
ATOM      6  C   UNL     1      48.150   6.403  14.892  0.00  0.00    +0.000 A 
ATOM      7  C   UNL     1      47.809   6.790  13.592  0.00  0.00    +0.000 A 
ATOM      8  C   UNL     1      47.043   5.949  12.789  0.00  0.00    +0.000 A 
ATOM      9 CL   UNL     1      46.609   6.508  11.211  0.00  0.00    +0.000 Cl
BRANCH   5  10
ATOM     10  C   UNL     1      48.059   4.788  16.823  0.00  0.00    +0.000 A 
ATOM     11  C   UNL     1      48.134   5.751  17.846  0.00  0.00    +0.000 A 
ATOM     12  C   UNL     1      48.371   5.389  19.177  0.00  0.00    +0.000 A 
ATOM     13  C   UNL     1      48.556   4.052  19.514  0.00  0.00    +0.000 A 
ATOM     14  C   UNL     1      48.505   3.080  18.521  0.00  0.00    +0.000 A 
ATOM     15  C   UNL     1      48.254   3.444  17.195  0.00  0.00    +0.000 A 
ENDBRANCH   5  10
ENDBRANCH   2   3
BRANCH   1  16
ATOM     16  C   UNL     1      43.605   2.898  11.698  0.00  0.00    +0.000 C 
BRANCH  16  17
ATOM     17  O   UNL     1      43.329   3.407  10.393  0.00  0.00    +0.000 OA
BRANCH  17  21
ATOM     18  C   UNL     1      46.334   2.638   7.680  0.00  0.00    +0.000 A 
ATOM     19  C   UNL     1      45.861   3.943   7.839  0.00  0.00    +0.000 A 
ATOM     20  C   UNL     1      44.845   4.189   8.768  0.00  0.00    +0.000 A 
ATOM     21  C   UNL     1      44.346   3.127   9.502  0.00  0.00    +0.000 A 
ATOM     22  N   UNL     1      44.785   1.856   9.369  0.00  0.00    +0.000 NA
ATOM     23  C   UNL     1      45.762   1.639   8.455  0.00  0.00    +0.000 A 
BRANCH  18  25
ATOM     24  N   UNL     1      47.537   3.048   5.608  0.00  0.00    +0.000 N 
ATOM     25  C   UNL     1      47.386   2.262   6.715  0.00  0.00    +0.000 C 
ATOM     26  O   UNL     1      48.121   1.304   6.914  0.00  0.00    +0.000 OA
ATOM     27  H   UNL     1      48.331   2.836   5.016  0.00  0.00    +0.000 HD
ATOM     28  H   UNL     1      47.137   3.972   5.536  0.00  0.00    +0.000 HD
ENDBRANCH  18  25
ENDBRANCH  17  21
ENDBRANCH  16  17
ENDBRANCH   1  16
TORSDOF 6
ENDMDL
MODEL 2
REMARK VINA RESULT:    -8.179      2.468      4.760
REMARK INTER + INTRA:         -12.149
REMARK INTER:                 -11.218
REMARK INTRA:                  -0.931
REMARK UNBOUND:                -1.101
REMARK  Name = 
REMARK  6 active torsions:
REMARK  status: ('A' for Active; 'I' for Inactive)
REMARK    1  A    between atoms: C_2  and  C_4
REMARK    2  A    between atoms: C_7  and  O_8
REMARK    3  A    between atoms: O_8  and  C_9
REMARK    4  A    between atoms: C_9  and  C_10
REMARK    5  A    between atoms: C_11  and  C_12
REMARK    6  A    between atoms: C_14  and  C_15
REMARK                            x       y       z     vdW  Elec       q    Type
REMARK                         _______ _______ _______ _____ _____    ______ ____
ROOT
ATOM      1  C   UNL     1      45.089   3.856  12.012  0.00  0.00    +0.000 C 
ATOM      2  C   UNL     1      44.936   4.861  12.888  0.00  0.00    +0.000 C 
ENDROOT
BRANCH   2   3
ATOM      3  C   UNL     1      46.021   5.792  13.217  0.00  0.00    +0.000 A 
ATOM      4  C   UNL     1      46.011   7.073  12.637  0.00  0.00    +0.000 A 
ATOM      5  C   UNL     1      47.052   8.000  12.861  0.00  0.00    +0.000 A 
ATOM      6  C   UNL     1      48.084   7.607  13.733  0.00  0.00    +0.000 A 
ATOM      7  C   UNL     1      48.095   6.344  14.334  0.00  0.00    +0.000 A 
ATOM      8  C   UNL     1      47.075   5.433  14.068  0.00  0.00    +0.000 A 
ATOM      9 CL   UNL     1      47.173   3.870  14.800  0.00  0.00    +0.000 Cl
BRANCH   5  10
ATOM     10  C   UNL     1      47.083   9.316  12.176  0.00  0.00    +0.000 A 
ATOM     11  C   UNL     1      45.908  10.055  11.941  0.00  0.00    +0.000 A 
ATOM     12  C   UNL     1      45.946  11.321  11.346  0.00  0.00    +0.000 A 
ATOM     13  C   UNL     1      47.162  11.873  10.955  0.00  0.00    +0.000 A 
ATOM     14  C   UNL     1      48.338  11.158  11.159  0.00  0.00    +0.000 A 
ATOM     15  C   UNL     1      48.297   9.899  11.767  0.00  0.00    +0.000 A 
ENDBRANCH   5  10
ENDBRANCH   2   3
BRANCH   1  16
ATOM     16  C   UNL     1      43.962   2.964  11.580  0.00  0.00    +0.000 C 
BRANCH  16  17
ATOM     17  O   UNL     1      43.581   3.331  10.254  0.00  0.00    +0.000 OA
BRANCH  17  21
ATOM     18  C   UNL     1      46.537   2.639   7.467  0.00  0.00    +0.000 A 
ATOM     19  C   UNL     1      46.019   3.927   7.622  0.00  0.00    +0.000 A 
ATOM     20  C   UNL     1      45.021   4.148   8.577  0.00  0.00    +0.000 A 
ATOM     21  C   UNL     1      44.583   3.077   9.338  0.00  0.00    +0.000 A 
ATOM     22  N   UNL     1      45.066   1.823   9.209  0.00  0.00    +0.000 NA
ATOM     23  C   UNL     1      46.025   1.630   8.270  0.00  0.00    +0.000 A 
BRANCH  18  25
ATOM     24  N   UNL     1      47.706   3.102   5.387  0.00  0.00    +0.000 N 
ATOM     25  C   UNL     1      47.575   2.290   6.477  0.00  0.00    +0.000 C 
ATOM     26  O   UNL     1      48.316   1.330   6.642  0.00  0.00    +0.000 OA
ATOM     27  H   UNL     1      48.492   2.908   4.777  0.00  0.00    +0.000 HD
ATOM     28  H   UNL     1      47.302   4.027   5.343  0.00  0.00    +0.000 HD
ENDBRANCH  18  25
ENDBRANCH  17  21
ENDBRANCH  16  17
ENDBRANCH   1  16
TORSDOF 6
ENDMDL
MODEL 3
REMARK VINA RESULT:    -7.760      1.970      2.794
REMARK INTER + INTRA:         -11.584
REMARK INTER:                 -10.608
REMARK INTRA:                  -0.976
REMARK UNBOUND:                -1.101
REMARK  Name = 
REMARK  6 active torsions:
REMARK  status: ('A' for Active; 'I' for Inactive)
REMARK    1  A    between atoms: C_2  and  C_4
REMARK    2  A    between atoms: C_7  and  O_8
REMARK    3  A    between atoms: O_8  and  C_9
REMARK    4  A    between atoms: C_9  and  C_10
REMARK    5  A    between atoms: C_11  and  C_12
REMARK    6  A    between atoms: C_14  and  C_15
REMARK                            x       y       z     vdW  Elec       q    Type
REMARK                         _______ _______ _______ _____ _____    ______ ____
ROOT
ATOM      1  C   UNL     1      45.000   5.153  11.939  0.00  0.00    +0.000 C 
ATOM      2  C   UNL     1      44.776   6.402  12.376  0.00  0.00    +0.000 C 
ENDROOT
BRANCH   2   3
ATOM      3  C   UNL     1      45.864   7.330  12.701  0.00  0.00    +0.000 A 
ATOM      4  C   UNL     1      46.922   6.874  13.507  0.00  0.00    +0.000 A 
ATOM      5  C   UNL     1      47.974   7.725  13.909  0.00  0.00    +0.000 A 
ATOM      6  C   UNL     1      47.948   9.048  13.428  0.00  0.00    +0.000 A 
ATOM      7  C   UNL     1      46.914   9.508  12.607  0.00  0.00    +0.000 A 
ATOM      8  C   UNL     1      45.868   8.658  12.255  0.00  0.00    +0.000 A 
ATOM      9 CL   UNL     1      44.592   9.302  11.282  0.00  0.00    +0.000 Cl
BRANCH   5  10
ATOM     10  C   UNL     1      49.040   7.264  14.833  0.00  0.00    +0.000 A 
ATOM     11  C   UNL     1      50.376   7.682  14.687  0.00  0.00    +0.000 A 
ATOM     12  C   UNL     1      51.368   7.290  15.593  0.00  0.00    +0.000 A 
ATOM     13  C   UNL     1      51.050   6.456  16.660  0.00  0.00    +0.000 A 
ATOM     14  C   UNL     1      49.742   6.014  16.819  0.00  0.00    +0.000 A 
ATOM     15  C   UNL     1      48.750   6.417  15.919  0.00  0.00    +0.000 A 
ENDBRANCH   5  10
ENDBRANCH   2   3
BRANCH   1  16
ATOM     16  C   UNL     1      43.903   4.229  11.496  0.00  0.00    +0.000 C 
BRANCH  16  17
ATOM     17  O   UNL     1      43.648   4.465  10.112  0.00  0.00    +0.000 OA
BRANCH  17  21
ATOM     18  C   UNL     1      46.362   2.453   7.753  0.00  0.00    +0.000 A 
ATOM     19  C   UNL     1      45.579   1.744   8.666  0.00  0.00    +0.000 A 
ATOM     20  C   UNL     1      44.657   2.440   9.455  0.00  0.00    +0.000 A 
ATOM     21  C   UNL     1      44.553   3.812   9.299  0.00  0.00    +0.000 A 
ATOM     22  N   UNL     1      45.298   4.522   8.424  0.00  0.00    +0.000 NA
ATOM     23  C   UNL     1      46.192   3.828   7.678  0.00  0.00    +0.000 A 
BRANCH  18  25
ATOM     24  N   UNL     1      48.450   2.587   6.516  0.00  0.00    +0.000 N 
ATOM     25  C   UNL     1      47.380   1.824   6.887  0.00  0.00    +0.000 C 
ATOM     26  O   UNL     1      47.289   0.653   6.543  0.00  0.00    +0.000 OA
ATOM     27  H   UNL     1      49.188   2.106   6.013  0.00  0.00    +0.000 HD
ATOM     28  H   UNL     1      48.690   3.453   6.977  0.00  0.00    +0.000 HD
ENDBRANCH  18  25
ENDBRANCH  17  21
ENDBRANCH  16  17
ENDBRANCH   1  16
TORSDOF 6
ENDMDL
MODEL 4
REMARK VINA RESULT:    -7.724      3.946      6.373
REMARK INTER + INTRA:         -11.534
REMARK INTER:                 -10.579
REMARK INTRA:                  -0.955
REMARK UNBOUND:                -1.101
REMARK  Name = 
REMARK  6 active torsions:
REMARK  status: ('A' for Active; 'I' for Inactive)
REMARK    1  A    between atoms: C_2  and  C_4
REMARK    2  A    between atoms: C_7  and  O_8
REMARK    3  A    between atoms: O_8  and  C_9
REMARK    4  A    between atoms: C_9  and  C_10
REMARK    5  A    between atoms: C_11  and  C_12
REMARK    6  A    between atoms: C_14  and  C_15
REMARK                            x       y       z     vdW  Elec       q    Type
REMARK                         _______ _______ _______ _____ _____    ______ ____
ROOT
ATOM      1  C   UNL     1      44.231   5.014  11.678  0.00  0.00    +0.000 C 
ATOM      2  C   UNL     1      45.357   5.723  11.494  0.00  0.00    +0.000 C 
ENDROOT
BRANCH   2   3
ATOM      3  C   UNL     1      45.447   7.152  11.809  0.00  0.00    +0.000 A 
ATOM      4  C   UNL     1      44.524   8.033  11.219  0.00  0.00    +0.000 A 
ATOM      5  C   UNL     1      44.585   9.428  11.429  0.00  0.00    +0.000 A 
ATOM      6  C   UNL     1      45.586   9.902  12.297  0.00  0.00    +0.000 A 
ATOM      7  C   UNL     1      46.497   9.034  12.908  0.00  0.00    +0.000 A 
ATOM      8  C   UNL     1      46.438   7.666  12.656  0.00  0.00    +0.000 A 
ATOM      9 CL   UNL     1      47.625   6.652  13.400  0.00  0.00    +0.000 Cl
BRANCH   5  10
ATOM     10  C   UNL     1      43.665  10.362  10.733  0.00  0.00    +0.000 A 
ATOM     11  C   UNL     1      43.688  10.517   9.335  0.00  0.00    +0.000 A 
ATOM     12  C   UNL     1      42.782  11.355   8.676  0.00  0.00    +0.000 A 
ATOM     13  C   UNL     1      41.839  12.074   9.405  0.00  0.00    +0.000 A 
ATOM     14  C   UNL     1      41.805  11.954  10.790  0.00  0.00    +0.000 A 
ATOM     15  C   UNL     1      42.703  11.105  11.444  0.00  0.00    +0.000 A 
ENDBRANCH   5  10
ENDBRANCH   2   3
BRANCH   1  16
ATOM     16  C   UNL     1      44.152   3.530  11.468  0.00  0.00    +0.000 C 
BRANCH  16  17
ATOM     17  O   UNL     1      43.575   3.288  10.185  0.00  0.00    +0.000 OA
BRANCH  17  21
ATOM     18  C   UNL     1      46.480   2.516   7.366  0.00  0.00    +0.000 A 
ATOM     19  C   UNL     1      46.081   1.505   8.244  0.00  0.00    +0.000 A 
ATOM     20  C   UNL     1      45.089   1.781   9.191  0.00  0.00    +0.000 A 
ATOM     21  C   UNL     1      44.535   3.049   9.221  0.00  0.00    +0.000 A 
ATOM     22  N   UNL     1      44.902   4.044   8.385  0.00  0.00    +0.000 NA
ATOM     23  C   UNL     1      45.873   3.758   7.482  0.00  0.00    +0.000 A 
BRANCH  18  25
ATOM     24  N   UNL     1      47.450   3.112   5.218  0.00  0.00    +0.000 N 
ATOM     25  C   UNL     1      47.531   2.342   6.344  0.00  0.00    +0.000 C 
ATOM     26  O   UNL     1      48.462   1.565   6.511  0.00  0.00    +0.000 OA
ATOM     27  H   UNL     1      48.236   3.056   4.582  0.00  0.00    +0.000 HD
ATOM     28  H   UNL     1      46.860   3.930   5.158  0.00  0.00    +0.000 HD
ENDBRANCH  18  25
ENDBRANCH  17  21
ENDBRANCH  16  17
ENDBRANCH   1  16
TORSDOF 6
ENDMDL
MODEL 5
REMARK VINA RESULT:    -7.716      4.921      8.104
REMARK INTER + INTRA:         -11.525
REMARK INTER:                 -10.564
REMARK INTRA:                  -0.960
REMARK UNBOUND:                -1.101
REMARK  Name = 
REMARK  6 active torsions:
REMARK  status: ('A' for Active; 'I' for Inactive)
REMARK    1  A    between atoms: C_2  and  C_4
REMARK    2  A    between atoms: C_7  and  O_8
REMARK    3  A    between atoms: O_8  and  C_9
REMARK    4  A    between atoms: C_9  and  C_10
REMARK    5  A    between atoms: C_11  and  C_12
REMARK    6  A    between atoms: C_14  and  C_15
REMARK                            x       y       z     vdW  Elec       q    Type
REMARK                         _______ _______ _______ _____ _____    ______ ____
ROOT
ATOM      1  C   UNL     1      45.427   7.184  12.308  0.00  0.00    +0.000 C 
ATOM      2  C   UNL     1      44.688   6.770  11.266  0.00  0.00    +0.000 C 
ENDROOT
BRANCH   2   3
ATOM      3  C   UNL     1      44.518   5.350  10.937  0.00  0.00    +0.000 A 
ATOM      4  C   UNL     1      45.281   4.803   9.890  0.00  0.00    +0.000 A 
ATOM      5  C   UNL     1      45.128   3.462   9.480  0.00  0.00    +0.000 A 
ATOM      6  C   UNL     1      44.210   2.672  10.196  0.00  0.00    +0.000 A 
ATOM      7  C   UNL     1      43.462   3.197  11.255  0.00  0.00    +0.000 A 
ATOM      8  C   UNL     1      43.604   4.534  11.617  0.00  0.00    +0.000 A 
ATOM      9 CL   UNL     1      42.612   5.137  12.898  0.00  0.00    +0.000 Cl
BRANCH   5  10
ATOM     10  C   UNL     1      45.869   2.914   8.316  0.00  0.00    +0.000 A 
ATOM     11  C   UNL     1      46.263   1.564   8.259  0.00  0.00    +0.000 A 
ATOM     12  C   UNL     1      46.911   1.038   7.136  0.00  0.00    +0.000 A 
ATOM     13  C   UNL     1      47.198   1.855   6.047  0.00  0.00    +0.000 A 
ATOM     14  C   UNL     1      46.836   3.197   6.083  0.00  0.00    +0.000 A 
ATOM     15  C   UNL     1      46.176   3.717   7.201  0.00  0.00    +0.000 A 
ENDBRANCH   5  10
ENDBRANCH   2   3
BRANCH   1  16
ATOM     16  C   UNL     1      45.522   8.622  12.726  0.00  0.00    +0.000 C 
BRANCH  16  17
ATOM     17  O   UNL     1      46.623   8.758  13.624  0.00  0.00    +0.000 OA
BRANCH  17  21
ATOM     18  C   UNL     1      50.210   8.490  11.614  0.00  0.00    +0.000 A 
ATOM     19  C   UNL     1      49.365   9.577  11.380  0.00  0.00    +0.000 A 
ATOM     20  C   UNL     1      48.153   9.657  12.074  0.00  0.00    +0.000 A 
ATOM     21  C   UNL     1      47.837   8.654  12.974  0.00  0.00    +0.000 A 
ATOM     22  N   UNL     1      48.636   7.593  13.220  0.00  0.00    +0.000 NA
ATOM     23  C   UNL     1      49.800   7.530  12.527  0.00  0.00    +0.000 A 
BRANCH  18  25
ATOM     24  N   UNL     1      51.895   7.009  10.677  0.00  0.00    +0.000 N 
ATOM     25  C   UNL     1      51.500   8.294  10.922  0.00  0.00    +0.000 C 
ATOM     26  O   UNL     1      52.174   9.244  10.547  0.00  0.00    +0.000 OA
ATOM     27  H   UNL     1      52.725   6.899  10.108  0.00  0.00    +0.000 HD
ATOM     28  H   UNL     1      51.263   6.223  10.734  0.00  0.00    +0.000 HD
ENDBRANCH  18  25
ENDBRANCH  17  21
ENDBRANCH  16  17
ENDBRANCH   1  16
TORSDOF 6
ENDMDL
MODEL 6
REMARK VINA RESULT:    -7.364      4.400      8.585
REMARK INTER + INTRA:         -11.049
REMARK INTER:                 -10.129
REMARK INTRA:                  -0.920
REMARK UNBOUND:                -1.101
REMARK  Name = 
REMARK  6 active torsions:
REMARK  status: ('A' for Active; 'I' for Inactive)
REMARK    1  A    between atoms: C_2  and  C_4
REMARK    2  A    between atoms: C_7  and  O_8
REMARK    3  A    between atoms: O_8  and  C_9
REMARK    4  A    between atoms: C_9  and  C_10
REMARK    5  A    between atoms: C_11  and  C_12
REMARK    6  A    between atoms: C_14  and  C_15
REMARK                            x       y       z     vdW  Elec       q    Type
REMARK                         _______ _______ _______ _____ _____    ______ ____
ROOT
ATOM      1  C   UNL     1      45.544   7.185  12.313  0.00  0.00    +0.000 C 
ATOM      2  C   UNL     1      44.725   6.766  11.335  0.00  0.00    +0.000 C 
ENDROOT
BRANCH   2   3
ATOM      3  C   UNL     1      44.559   5.348  11.002  0.00  0.00    +0.000 A 
ATOM      4  C   UNL     1      45.292   4.815   9.926  0.00  0.00    +0.000 A 
ATOM      5  C   UNL     1      45.140   3.475   9.512  0.00  0.00    +0.000 A 
ATOM      6  C   UNL     1      44.254   2.671  10.252  0.00  0.00    +0.000 A 
ATOM      7  C   UNL     1      43.536   3.181  11.339  0.00  0.00    +0.000 A 
ATOM      8  C   UNL     1      43.675   4.517  11.706  0.00  0.00    +0.000 A 
ATOM      9 CL   UNL     1      42.720   5.101  13.023  0.00  0.00    +0.000 Cl
BRANCH   5  10
ATOM     10  C   UNL     1      45.847   2.943   8.320  0.00  0.00    +0.000 A 
ATOM     11  C   UNL     1      46.168   3.765   7.224  0.00  0.00    +0.000 A 
ATOM     12  C   UNL     1      46.885   3.274   6.127  0.00  0.00    +0.000 A 
ATOM     13  C   UNL     1      47.285   1.942   6.092  0.00  0.00    +0.000 A 
ATOM     14  C   UNL     1      46.967   1.103   7.155  0.00  0.00    +0.000 A 
ATOM     15  C   UNL     1      46.262   1.599   8.255  0.00  0.00    +0.000 A 
ENDBRANCH   5  10
ENDBRANCH   2   3
BRANCH   1  16
ATOM     16  C   UNL     1      45.643   8.620  12.742  0.00  0.00    +0.000 C 
BRANCH  16  17
ATOM     17  O   UNL     1      46.920   9.121  12.347  0.00  0.00    +0.000 OA
BRANCH  17  21
ATOM     18  C   UNL     1      49.939   7.717  14.775  0.00  0.00    +0.000 A 
ATOM     19  C   UNL     1      48.820   8.328  15.345  0.00  0.00    +0.000 A 
ATOM     20  C   UNL     1      47.801   8.794  14.508  0.00  0.00    +0.000 A 
ATOM     21  C   UNL     1      47.938   8.628  13.140  0.00  0.00    +0.000 A 
ATOM     22  N   UNL     1      49.008   8.040  12.564  0.00  0.00    +0.000 NA
ATOM     23  C   UNL     1      49.989   7.607  13.393  0.00  0.00    +0.000 A 
BRANCH  18  25
ATOM     24  N   UNL     1      52.240   7.933  15.529  0.00  0.00    +0.000 N 
ATOM     25  C   UNL     1      51.082   7.209  15.561  0.00  0.00    +0.000 C 
ATOM     26  O   UNL     1      50.987   6.199  16.245  0.00  0.00    +0.000 OA
ATOM     27  H   UNL     1      52.974   7.628  16.157  0.00  0.00    +0.000 HD
ATOM     28  H   UNL     1      52.280   8.885  15.195  0.00  0.00    +0.000 HD
ENDBRANCH  18  25
ENDBRANCH  17  21
ENDBRANCH  16  17
ENDBRANCH   1  16
TORSDOF 6
ENDMDL
MODEL 7
REMARK VINA RESULT:    -7.280      4.154      9.121
REMARK INTER + INTRA:         -10.935
REMARK INTER:                 -10.041
REMARK INTRA:                  -0.894
REMARK UNBOUND:                -1.101
REMARK  Name = 
REMARK  6 active torsions:
REMARK  status: ('A' for Active; 'I' for Inactive)
REMARK    1  A    between atoms: C_2  and  C_4
REMARK    2  A    between atoms: C_7  and  O_8
REMARK    3  A    between atoms: O_8  and  C_9
REMARK    4  A    between atoms: C_9  and  C_10
REMARK    5  A    between atoms: C_11  and  C_12
REMARK    6  A    between atoms: C_14  and  C_15
REMARK                            x       y       z     vdW  Elec       q    Type
REMARK                         _______ _______ _______ _____ _____    ______ ____
ROOT
ATOM      1  C   UNL     1      46.581   6.843  11.870  0.00  0.00    +0.000 C 
ATOM      2  C   UNL     1      45.297   6.548  11.611  0.00  0.00    +0.000 C 
ENDROOT
BRANCH   2   3
ATOM      3  C   UNL     1      44.874   5.230  11.128  0.00  0.00    +0.000 A 
ATOM      4  C   UNL     1      45.558   4.656  10.042  0.00  0.00    +0.000 A 
ATOM      5  C   UNL     1      45.170   3.418   9.486  0.00  0.00    +0.000 A 
ATOM      6  C   UNL     1      44.092   2.751  10.096  0.00  0.00    +0.000 A 
ATOM      7  C   UNL     1      43.416   3.300  11.191  0.00  0.00    +0.000 A 
ATOM      8  C   UNL     1      43.795   4.540  11.698  0.00  0.00    +0.000 A 
ATOM      9 CL   UNL     1      42.886   5.189  13.018  0.00  0.00    +0.000 Cl
BRANCH   5  10
ATOM     10  C   UNL     1      45.839   2.860   8.284  0.00  0.00    +0.000 A 
ATOM     11  C   UNL     1      46.112   3.654   7.155  0.00  0.00    +0.000 A 
ATOM     12  C   UNL     1      46.793   3.140   6.046  0.00  0.00    +0.000 A 
ATOM     13  C   UNL     1      47.203   1.811   6.033  0.00  0.00    +0.000 A 
ATOM     14  C   UNL     1      46.932   0.998   7.128  0.00  0.00    +0.000 A 
ATOM     15  C   UNL     1      46.263   1.518   8.240  0.00  0.00    +0.000 A 
ENDBRANCH   5  10
ENDBRANCH   2   3
BRANCH   1  16
ATOM     16  C   UNL     1      47.020   8.146  12.470  0.00  0.00    +0.000 C 
BRANCH  16  17
ATOM     17  O   UNL     1      48.384   8.021  12.870  0.00  0.00    +0.000 OA
BRANCH  17  21
ATOM     18  C   UNL     1      48.777   7.447  16.932  0.00  0.00    +0.000 A 
ATOM     19  C   UNL     1      48.436   8.709  16.441  0.00  0.00    +0.000 A 
ATOM     20  C   UNL     1      48.300   8.886  15.061  0.00  0.00    +0.000 A 
ATOM     21  C   UNL     1      48.506   7.800  14.228  0.00  0.00    +0.000 A 
ATOM     22  N   UNL     1      48.836   6.569  14.676  0.00  0.00    +0.000 NA
ATOM     23  C   UNL     1      48.974   6.422  16.017  0.00  0.00    +0.000 A 
BRANCH  18  25
ATOM     24  N   UNL     1      50.179   7.460  18.918  0.00  0.00    +0.000 N 
ATOM     25  C   UNL     1      48.968   7.152  18.366  0.00  0.00    +0.000 C 
ATOM     26  O   UNL     1      48.065   6.682  19.047  0.00  0.00    +0.000 OA
ATOM     27  H   UNL     1      50.253   7.351  19.922  0.00  0.00    +0.000 HD
ATOM     28  H   UNL     1      50.845   8.072  18.467  0.00  0.00    +0.000 HD
ENDBRANCH  18  25
ENDBRANCH  17  21
ENDBRANCH  16  17
ENDBRANCH   1  16
TORSDOF 6
ENDMDL
MODEL 8
REMARK VINA RESULT:    -7.220      2.288      4.375
REMARK INTER + INTRA:         -10.853
REMARK INTER:                  -9.761
REMARK INTRA:                  -1.092
REMARK UNBOUND:                -1.101
REMARK  Name = 
REMARK  6 active torsions:
REMARK  status: ('A' for Active; 'I' for Inactive)
REMARK    1  A    between atoms: C_2  and  C_4
REMARK    2  A    between atoms: C_7  and  O_8
REMARK    3  A    between atoms: O_8  and  C_9
REMARK    4  A    between atoms: C_9  and  C_10
REMARK    5  A    between atoms: C_11  and  C_12
REMARK    6  A    between atoms: C_14  and  C_15
REMARK                            x       y       z     vdW  Elec       q    Type
REMARK                         _______ _______ _______ _____ _____    ______ ____
ROOT
ATOM      1  C   UNL     1      45.082   4.696  12.624  0.00  0.00    +0.000 C 
ATOM      2  C   UNL     1      46.198   4.282  13.245  0.00  0.00    +0.000 C 
ENDROOT
BRANCH   2   3
ATOM      3  C   UNL     1      47.124   5.209  13.901  0.00  0.00    +0.000 A 
ATOM      4  C   UNL     1      47.634   6.292  13.162  0.00  0.00    +0.000 A 
ATOM      5  C   UNL     1      48.574   7.191  13.710  0.00  0.00    +0.000 A 
ATOM      6  C   UNL     1      48.949   6.989  15.051  0.00  0.00    +0.000 A 
ATOM      7  C   UNL     1      48.433   5.931  15.804  0.00  0.00    +0.000 A 
ATOM      8  C   UNL     1      47.534   5.035  15.230  0.00  0.00    +0.000 A 
ATOM      9 CL   UNL     1      46.973   3.716  16.198  0.00  0.00    +0.000 Cl
BRANCH   5  10
ATOM     10  C   UNL     1      49.177   8.277  12.898  0.00  0.00    +0.000 A 
ATOM     11  C   UNL     1      48.424   8.999  11.953  0.00  0.00    +0.000 A 
ATOM     12  C   UNL     1      48.980  10.060  11.229  0.00  0.00    +0.000 A 
ATOM     13  C   UNL     1      50.311  10.414  11.422  0.00  0.00    +0.000 A 
ATOM     14  C   UNL     1      51.085   9.707  12.336  0.00  0.00    +0.000 A 
ATOM     15  C   UNL     1      50.522   8.656  13.067  0.00  0.00    +0.000 A 
ENDBRANCH   5  10
ENDBRANCH   2   3
BRANCH   1  16
ATOM     16  C   UNL     1      44.066   3.755  12.045  0.00  0.00    +0.000 C 
BRANCH  16  17
ATOM     17  O   UNL     1      43.711   4.223  10.744  0.00  0.00    +0.000 OA
BRANCH  17  21
ATOM     18  C   UNL     1      46.150   2.558   7.869  0.00  0.00    +0.000 A 
ATOM     19  C   UNL     1      45.473   1.730   8.767  0.00  0.00    +0.000 A 
ATOM     20  C   UNL     1      44.644   2.309   9.733  0.00  0.00    +0.000 A 
ATOM     21  C   UNL     1      44.522   3.688   9.762  0.00  0.00    +0.000 A 
ATOM     22  N   UNL     1      45.164   4.512   8.906  0.00  0.00    +0.000 NA
ATOM     23  C   UNL     1      45.971   3.929   7.985  0.00  0.00    +0.000 A 
BRANCH  18  25
ATOM     24  N   UNL     1      47.628   2.975   5.985  0.00  0.00    +0.000 N 
ATOM     25  C   UNL     1      47.066   2.056   6.826  0.00  0.00    +0.000 C 
ATOM     26  O   UNL     1      47.342   0.867   6.737  0.00  0.00    +0.000 OA
ATOM     27  H   UNL     1      48.334   2.624   5.349  0.00  0.00    +0.000 HD
ATOM     28  H   UNL     1      47.632   3.965   6.182  0.00  0.00    +0.000 HD
ENDBRANCH  18  25
ENDBRANCH  17  21
ENDBRANCH  16  17
ENDBRANCH   1  16
TORSDOF 6
ENDMDL
MODEL 9
REMARK VINA RESULT:    -6.294      4.565      8.221
REMARK INTER + INTRA:          -9.603
REMARK INTER:                  -8.505
REMARK INTRA:                  -1.097
REMARK UNBOUND:                -1.101
REMARK  Name = 
REMARK  6 active torsions:
REMARK  status: ('A' for Active; 'I' for Inactive)
REMARK    1  A    between atoms: C_2  and  C_4
REMARK    2  A    between atoms: C_7  and  O_8
REMARK    3  A    between atoms: O_8  and  C_9
REMARK    4  A    between atoms: C_9  and  C_10
REMARK    5  A    between atoms: C_11  and  C_12
REMARK    6  A    between atoms: C_14  and  C_15
REMARK                            x       y       z     vdW  Elec       q    Type
REMARK                         _______ _______ _______ _____ _____    ______ ____
ROOT
ATOM      1  C   UNL     1      48.795   7.998  16.642  0.00  0.00    +0.000 C 
ATOM      2  C   UNL     1      49.568   7.686  15.590  0.00  0.00    +0.000 C 
ENDROOT
BRANCH   2   3
ATOM      3  C   UNL     1      49.076   7.735  14.209  0.00  0.00    +0.000 A 
ATOM      4  C   UNL     1      48.038   6.866  13.830  0.00  0.00    +0.000 A 
ATOM      5  C   UNL     1      47.553   6.817  12.506  0.00  0.00    +0.000 A 
ATOM      6  C   UNL     1      48.122   7.711  11.580  0.00  0.00    +0.000 A 
ATOM      7  C   UNL     1      49.140   8.597  11.949  0.00  0.00    +0.000 A 
ATOM      8  C   UNL     1      49.627   8.601  13.254  0.00  0.00    +0.000 A 
ATOM      9 CL   UNL     1      50.922   9.682  13.633  0.00  0.00    +0.000 Cl
BRANCH   5  10
ATOM     10  C   UNL     1      46.520   5.835  12.090  0.00  0.00    +0.000 A 
ATOM     11  C   UNL     1      46.068   4.826  12.961  0.00  0.00    +0.000 A 
ATOM     12  C   UNL     1      45.053   3.938  12.586  0.00  0.00    +0.000 A 
ATOM     13  C   UNL     1      44.478   4.026  11.323  0.00  0.00    +0.000 A 
ATOM     14  C   UNL     1      44.917   5.003  10.436  0.00  0.00    +0.000 A 
ATOM     15  C   UNL     1      45.922   5.898  10.817  0.00  0.00    +0.000 A 
ENDBRANCH   5  10
ENDBRANCH   2   3
BRANCH   1  16
ATOM     16  C   UNL     1      49.310   8.062  18.050  0.00  0.00    +0.000 C 
BRANCH  16  17
ATOM     17  O   UNL     1      48.688   7.022  18.804  0.00  0.00    +0.000 OA
BRANCH  17  21
ATOM     18  C   UNL     1      49.917   3.314  17.491  0.00  0.00    +0.000 A 
ATOM     19  C   UNL     1      50.854   4.209  18.013  0.00  0.00    +0.000 A 
ATOM     20  C   UNL     1      50.420   5.461  18.460  0.00  0.00    +0.000 A 
ATOM     21  C   UNL     1      49.073   5.768  18.372  0.00  0.00    +0.000 A 
ATOM     22  N   UNL     1      48.147   4.921  17.872  0.00  0.00    +0.000 NA
ATOM     23  C   UNL     1      48.591   3.717  17.434  0.00  0.00    +0.000 A 
BRANCH  18  25
ATOM     24  N   UNL     1      51.095   1.201  17.731  0.00  0.00    +0.000 N 
ATOM     25  C   UNL     1      50.266   1.977  16.971  0.00  0.00    +0.000 C 
ATOM     26  O   UNL     1      49.803   1.562  15.917  0.00  0.00    +0.000 OA
ATOM     27  H   UNL     1      51.235   0.250  17.410  0.00  0.00    +0.000 HD
ATOM     28  H   UNL     1      51.285   1.395  18.703  0.00  0.00    +0.000 HD
ENDBRANCH  18  25
ENDBRANCH  17  21
ENDBRANCH  16  17
ENDBRANCH   1  16
TORSDOF 6
ENDMDL
