MODEL 1
REMARK VINA RESULT:    -8.324      0.000      0.000
REMARK INTER + INTRA:         -12.311
REMARK INTER:                 -11.243
REMARK INTRA:                  -1.067
REMARK UNBOUND:                -1.067
REMARK  Name = 
REMARK  7 active torsions:
REMARK  status: ('A' for Active; 'I' for Inactive)
REMARK    1  A    between atoms: C_1  and  C_2
REMARK    2  A    between atoms: C_6  and  C_7
REMARK    3  A    between atoms: N_9  and  C_10
REMARK    4  A    between atoms: C_10  and  C_11
REMARK    5  A    between atoms: C_14  and  C_15
REMARK    6  A    between atoms: C_15  and  N_16
REMARK    7  A    between atoms: C_17  and  C_19
REMARK                            x       y       z     vdW  Elec       q    Type
REMARK                         _______ _______ _______ _____ _____    ______ ____
ROOT
ATOM      1  C   UNL     1      44.994   6.291  11.317  0.00  0.00    +0.000 A 
ATOM      2  C   UNL     1      46.217   5.777  11.769  0.00  0.00    +0.000 A 
ATOM      3  C   UNL     1      47.051   6.534  12.604  0.00  0.00    +0.000 A 
ATOM      4  C   UNL     1      46.669   7.815  13.024  0.00  0.00    +0.000 A 
ATOM      5  C   UNL     1      45.451   8.333  12.561  0.00  0.00    +0.000 A 
ATOM      6  C   UNL     1      44.617   7.576  11.729  0.00  0.00    +0.000 A 
ENDROOT
BRANCH   1   7
ATOM      7  C   UNL     1      44.127   5.491  10.379  0.00  0.00    +0.000 C 
BRANCH   7  10
ATOM      8  C   UNL     1      44.695   3.290   9.459  0.00  0.00    +0.000 C 
ATOM      9  O   UNL     1      43.915   2.707  10.205  0.00  0.00    +0.000 OA
ATOM     10  N   UNL     1      44.871   4.662   9.467  0.00  0.00    +0.000 N 
ATOM     11  H   UNL     1      45.551   5.053   8.823  0.00  0.00    +0.000 HD
BRANCH   8  17
ATOM     12  C   UNL     1      47.272   3.133   5.161  0.00  0.00    +0.000 C 
ATOM     13  C   UNL     1      46.761   2.468   6.403  0.00  0.00    +0.000 A 
ATOM     14  C   UNL     1      47.041   1.129   6.681  0.00  0.00    +0.000 A 
ATOM     15  C   UNL     1      46.541   0.568   7.849  0.00  0.00    +0.000 A 
ATOM     16  N   UNL     1      45.787   1.232   8.748  0.00  0.00    +0.000 NA
ATOM     17  C   UNL     1      45.526   2.537   8.462  0.00  0.00    +0.000 A 
ATOM     18  C   UNL     1      45.982   3.186   7.316  0.00  0.00    +0.000 A 
ENDBRANCH   8  17
ENDBRANCH   7  10
ENDBRANCH   1   7
BRANCH   4  19
ATOM     19  C   UNL     1      47.541   8.633  13.945  0.00  0.00    +0.000 C 
BRANCH  19  20
ATOM     20  N   UNL     1      47.884   7.915  15.146  0.00  0.00    +0.000 N 
ATOM     21  C   UNL     1      49.149   7.422  15.344  0.00  0.00    +0.000 C 
ATOM     22  O   UNL     1      50.054   7.597  14.531  0.00  0.00    +0.000 OA
ATOM     23  H   UNL     1      47.114   7.531  15.685  0.00  0.00    +0.000 HD
BRANCH  21  24
ATOM     24  C   UNL     1      49.386   6.718  16.613  0.00  0.00    +0.000 A 
ATOM     25  C   UNL     1      50.205   7.288  17.580  0.00  0.00    +0.000 A 
ATOM     26  S   UNL     1      50.323   6.359  19.006  0.00  0.00    +0.000 S 
ATOM     27  C   UNL     1      49.329   5.139  18.360  0.00  0.00    +0.000 A 
ATOM     28  N   UNL     1      49.039   4.015  19.075  0.00  0.00    +0.000 NA
ATOM     29  C   UNL     1      48.296   3.165  18.447  0.00  0.00    +0.000 A 
ATOM     30  N   UNL     1      47.804   3.341  17.181  0.00  0.00    +0.000 N 
ATOM     31  C   UNL     1      48.045   4.471  16.438  0.00  0.00    +0.000 A 
ATOM     32  O   UNL     1      47.541   4.615  15.323  0.00  0.00    +0.000 OA
ATOM     33  C   UNL     1      48.890   5.451  17.087  0.00  0.00    +0.000 A 
ATOM     34  H   UNL     1      47.213   2.642  16.752  0.00  0.00    +0.000 HD
ENDBRANCH  21  24
ENDBRANCH  19  20
ENDBRANCH   4  19
TORSDOF 6
ENDMDL
MODEL 2
REMARK VINA RESULT:    -8.038      0.830      1.287
REMARK INTER + INTRA:         -11.926
REMARK INTER:                 -10.833
REMARK INTRA:                  -1.093
REMARK UNBOUND:                -1.067
REMARK  Name = 
REMARK  7 active torsions:
REMARK  status: ('A' for Active; 'I' for Inactive)
REMARK    1  A    between atoms: C_1  and  C_2
REMARK    2  A    between atoms: C_6  and  C_7
REMARK    3  A    between atoms: N_9  and  C_10
REMARK    4  A    between atoms: C_10  and  C_11
REMARK    5  A    between atoms: C_14  and  C_15
REMARK    6  A    between atoms: C_15  and  N_16
REMARK    7  A    between atoms: C_17  and  C_19
REMARK                            x       y       z     vdW  Elec       q    Type
REMARK                         _______ _______ _______ _____ _____    ______ ____
ROOT
ATOM      1  C   UNL     1      45.370   6.781  11.509  0.00  0.00    +0.000 A 
ATOM      2  C   UNL     1      46.590   6.191  11.866  0.00  0.00    +0.000 A 
ATOM      3  C   UNL     1      47.465   6.830  12.755  0.00  0.00    +0.000 A 
ATOM      4  C   UNL     1      47.129   8.065  13.324  0.00  0.00    +0.000 A 
ATOM      5  C   UNL     1      45.914   8.661  12.957  0.00  0.00    +0.000 A 
ATOM      6  C   UNL     1      45.038   8.021  12.071  0.00  0.00    +0.000 A 
ENDROOT
BRANCH   1   7
ATOM      7  C   UNL     1      44.457   6.112  10.513  0.00  0.00    +0.000 C 
BRANCH   7  10
ATOM      8  C   UNL     1      44.819   3.964   9.386  0.00  0.00    +0.000 C 
ATOM      9  O   UNL     1      43.939   3.404  10.032  0.00  0.00    +0.000 OA
ATOM     10  N   UNL     1      45.149   5.297   9.549  0.00  0.00    +0.000 N 
ATOM     11  H   UNL     1      45.903   5.668   8.979  0.00  0.00    +0.000 HD
BRANCH   8  17
ATOM     12  C   UNL     1      46.830  -0.288   7.649  0.00  0.00    +0.000 C 
ATOM     13  C   UNL     1      46.569   1.183   7.520  0.00  0.00    +0.000 A 
ATOM     14  C   UNL     1      47.049   1.915   6.433  0.00  0.00    +0.000 A 
ATOM     15  C   UNL     1      46.775   3.275   6.367  0.00  0.00    +0.000 A 
ATOM     16  N   UNL     1      46.073   3.954   7.297  0.00  0.00    +0.000 NA
ATOM     17  C   UNL     1      45.611   3.223   8.349  0.00  0.00    +0.000 A 
ATOM     18  C   UNL     1      45.836   1.856   8.501  0.00  0.00    +0.000 A 
ENDBRANCH   8  17
ENDBRANCH   7  10
ENDBRANCH   1   7
BRANCH   4  19
ATOM     19  C   UNL     1      48.046   8.755  14.304  0.00  0.00    +0.000 C 
BRANCH  19  20
ATOM     20  N   UNL     1      48.274   7.960  15.485  0.00  0.00    +0.000 N 
ATOM     21  C   UNL     1      49.496   7.386  15.732  0.00  0.00    +0.000 C 
ATOM     22  O   UNL     1      50.458   7.549  14.985  0.00  0.00    +0.000 OA
ATOM     23  H   UNL     1      47.452   7.595  15.956  0.00  0.00    +0.000 HD
BRANCH  21  24
ATOM     24  C   UNL     1      49.614   6.609  16.974  0.00  0.00    +0.000 A 
ATOM     25  C   UNL     1      50.406   7.080  18.014  0.00  0.00    +0.000 A 
ATOM     26  S   UNL     1      50.384   6.077  19.395  0.00  0.00    +0.000 S 
ATOM     27  C   UNL     1      49.360   4.954  18.631  0.00  0.00    +0.000 A 
ATOM     28  N   UNL     1      48.962   3.817  19.269  0.00  0.00    +0.000 NA
ATOM     29  C   UNL     1      48.209   3.046  18.556  0.00  0.00    +0.000 A 
ATOM     30  N   UNL     1      47.805   3.312  17.275  0.00  0.00    +0.000 N 
ATOM     31  C   UNL     1      48.156   4.460  16.607  0.00  0.00    +0.000 A 
ATOM     32  O   UNL     1      47.730   4.689  15.474  0.00  0.00    +0.000 OA
ATOM     33  C   UNL     1      49.018   5.353  17.353  0.00  0.00    +0.000 A 
ATOM     34  H   UNL     1      47.201   2.673  16.777  0.00  0.00    +0.000 HD
ENDBRANCH  21  24
ENDBRANCH  19  20
ENDBRANCH   4  19
TORSDOF 6
ENDMDL
MODEL 3
REMARK VINA RESULT:    -7.775      1.324      1.875
REMARK INTER + INTRA:         -11.570
REMARK INTER:                 -10.502
REMARK INTRA:                  -1.068
REMARK UNBOUND:                -1.067
REMARK  Name = 
REMARK  7 active torsions:
REMARK  status: ('A' for Active; 'I' for Inactive)
REMARK    1  A    between atoms: C_1  and  C_2
REMARK    2  A    between atoms: C_6  and  C_7
REMARK    3  A    between atoms: N_9  and  C_10
REMARK    4  A    between atoms: C_10  and  C_11
REMARK    5  A    between atoms: C_14  and  C_15
REMARK    6  A    between atoms: C_15  and  N_16
REMARK    7  A    between atoms: C_17  and  C_19
REMARK                            x       y       z     vdW  Elec       q    Type
REMARK                         _______ _______ _______ _____ _____    ______ ____
ROOT
ATOM      1  C   UNL     1      45.383   6.718  11.621  0.00  0.00    +0.000 A 
ATOM      2  C   UNL     1      45.141   8.020  12.080  0.00  0.00    +0.000 A 
ATOM      3  C   UNL     1      45.950   8.597  13.068  0.00  0.00    +0.000 A 
ATOM      4  C   UNL     1      47.035   7.891  13.604  0.00  0.00    +0.000 A 
ATOM      5  C   UNL     1      47.270   6.584  13.154  0.00  0.00    +0.000 A 
ATOM      6  C   UNL     1      46.462   6.009  12.164  0.00  0.00    +0.000 A 
ENDROOT
BRANCH   1   7
ATOM      7  C   UNL     1      44.477   6.086  10.595  0.00  0.00    +0.000 C 
BRANCH   7  10
ATOM      8  C   UNL     1      44.770   3.977   9.378  0.00  0.00    +0.000 C 
ATOM      9  O   UNL     1      43.819   3.446   9.943  0.00  0.00    +0.000 OA
ATOM     10  N   UNL     1      45.173   5.276   9.629  0.00  0.00    +0.000 N 
ATOM     11  H   UNL     1      45.981   5.624   9.123  0.00  0.00    +0.000 HD
BRANCH   8  17
ATOM     12  C   UNL     1      46.802  -0.273   7.661  0.00  0.00    +0.000 C 
ATOM     13  C   UNL     1      46.542   1.198   7.530  0.00  0.00    +0.000 A 
ATOM     14  C   UNL     1      47.034   1.931   6.449  0.00  0.00    +0.000 A 
ATOM     15  C   UNL     1      46.761   3.291   6.381  0.00  0.00    +0.000 A 
ATOM     16  N   UNL     1      46.048   3.969   7.303  0.00  0.00    +0.000 NA
ATOM     17  C   UNL     1      45.574   3.237   8.349  0.00  0.00    +0.000 A 
ATOM     18  C   UNL     1      45.798   1.870   8.503  0.00  0.00    +0.000 A 
ENDBRANCH   8  17
ENDBRANCH   7  10
ENDBRANCH   1   7
BRANCH   4  19
ATOM     19  C   UNL     1      47.935   8.506  14.649  0.00  0.00    +0.000 C 
BRANCH  19  20
ATOM     20  N   UNL     1      48.793   7.527  15.269  0.00  0.00    +0.000 N 
ATOM     21  C   UNL     1      49.025   7.540  16.622  0.00  0.00    +0.000 C 
ATOM     22  O   UNL     1      48.490   8.354  17.370  0.00  0.00    +0.000 OA
ATOM     23  H   UNL     1      49.440   7.036  14.661  0.00  0.00    +0.000 HD
BRANCH  21  24
ATOM     24  C   UNL     1      49.906   6.484  17.143  0.00  0.00    +0.000 A 
ATOM     25  C   UNL     1      51.132   6.820  17.705  0.00  0.00    +0.000 A 
ATOM     26  S   UNL     1      51.998   5.477  18.303  0.00  0.00    +0.000 S 
ATOM     27  C   UNL     1      50.790   4.397  17.784  0.00  0.00    +0.000 A 
ATOM     28  N   UNL     1      50.920   3.053  17.969  0.00  0.00    +0.000 NA
ATOM     29  C   UNL     1      49.939   2.356  17.499  0.00  0.00    +0.000 A 
ATOM     30  N   UNL     1      48.836   2.877  16.877  0.00  0.00    +0.000 N 
ATOM     31  C   UNL     1      48.650   4.226  16.698  0.00  0.00    +0.000 A 
ATOM     32  O   UNL     1      47.619   4.660  16.180  0.00  0.00    +0.000 OA
ATOM     33  C   UNL     1      49.730   5.055  17.189  0.00  0.00    +0.000 A 
ATOM     34  H   UNL     1      48.094   2.276  16.546  0.00  0.00    +0.000 HD
ENDBRANCH  21  24
ENDBRANCH  19  20
ENDBRANCH   4  19
TORSDOF 6
ENDMDL
MODEL 4
REMARK VINA RESULT:    -7.229      3.778      5.067
REMARK INTER + INTRA:         -10.832
REMARK INTER:                  -9.731
REMARK INTRA:                  -1.101
REMARK UNBOUND:                -1.067
REMARK  Name = 
REMARK  7 active torsions:
REMARK  status: ('A' for Active; 'I' for Inactive)
REMARK    1  A    between atoms: C_1  and  C_2
REMARK    2  A    between atoms: C_6  and  C_7
REMARK    3  A    between atoms: N_9  and  C_10
REMARK    4  A    between atoms: C_10  and  C_11
REMARK    5  A    between atoms: C_14  and  C_15
REMARK    6  A    between atoms: C_15  and  N_16
REMARK    7  A    between atoms: C_17  and  C_19
REMARK                            x       y       z     vdW  Elec       q    Type
REMARK                         _______ _______ _______ _____ _____    ______ ____
ROOT
ATOM      1  C   UNL     1      45.023   6.367  11.423  0.00  0.00    +0.000 A 
ATOM      2  C   UNL     1      44.638   7.710  11.532  0.00  0.00    +0.000 A 
ATOM      3  C   UNL     1      45.398   8.617  12.283  0.00  0.00    +0.000 A 
ATOM      4  C   UNL     1      46.574   8.205  12.924  0.00  0.00    +0.000 A 
ATOM      5  C   UNL     1      46.951   6.858  12.825  0.00  0.00    +0.000 A 
ATOM      6  C   UNL     1      46.194   5.952  12.072  0.00  0.00    +0.000 A 
ENDROOT
BRANCH   1   7
ATOM      7  C   UNL     1      44.174   5.386  10.655  0.00  0.00    +0.000 C 
BRANCH   7  10
ATOM      8  C   UNL     1      44.672   3.254   9.550  0.00  0.00    +0.000 C 
ATOM      9  O   UNL     1      43.837   2.644  10.211  0.00  0.00    +0.000 OA
ATOM     10  N   UNL     1      44.912   4.608   9.695  0.00  0.00    +0.000 N 
ATOM     11  H   UNL     1      45.634   5.022   9.114  0.00  0.00    +0.000 HD
BRANCH   8  17
ATOM     12  C   UNL     1      47.175   3.303   5.206  0.00  0.00    +0.000 C 
ATOM     13  C   UNL     1      46.704   2.585   6.435  0.00  0.00    +0.000 A 
ATOM     14  C   UNL     1      47.023   1.246   6.664  0.00  0.00    +0.000 A 
ATOM     15  C   UNL     1      46.558   0.634   7.821  0.00  0.00    +0.000 A 
ATOM     16  N   UNL     1      45.803   1.248   8.754  0.00  0.00    +0.000 NA
ATOM     17  C   UNL     1      45.504   2.555   8.515  0.00  0.00    +0.000 A 
ATOM     18  C   UNL     1      45.923   3.252   7.384  0.00  0.00    +0.000 A 
ENDBRANCH   8  17
ENDBRANCH   7  10
ENDBRANCH   1   7
BRANCH   4  19
ATOM     19  C   UNL     1      47.420   9.173  13.715  0.00  0.00    +0.000 C 
BRANCH  19  20
ATOM     20  N   UNL     1      48.733   9.337  13.143  0.00  0.00    +0.000 N 
ATOM     21  C   UNL     1      48.945  10.170  12.073  0.00  0.00    +0.000 C 
ATOM     22  O   UNL     1      48.042  10.839  11.577  0.00  0.00    +0.000 OA
ATOM     23  H   UNL     1      49.415   8.614  13.349  0.00  0.00    +0.000 HD
BRANCH  21  24
ATOM     24  C   UNL     1      50.328  10.268  11.585  0.00  0.00    +0.000 A 
ATOM     25  C   UNL     1      50.939  11.511  11.476  0.00  0.00    +0.000 A 
ATOM     26  S   UNL     1      52.558  11.430  10.943  0.00  0.00    +0.000 S 
ATOM     27  C   UNL     1      52.481   9.738  10.789  0.00  0.00    +0.000 A 
ATOM     28  N   UNL     1      53.551   9.021  10.341  0.00  0.00    +0.000 NA
ATOM     29  C   UNL     1      53.337   7.750  10.250  0.00  0.00    +0.000 A 
ATOM     30  N   UNL     1      52.162   7.129  10.577  0.00  0.00    +0.000 N 
ATOM     31  C   UNL     1      51.070   7.807  11.060  0.00  0.00    +0.000 A 
ATOM     32  O   UNL     1      50.047   7.206  11.393  0.00  0.00    +0.000 OA
ATOM     33  C   UNL     1      51.247   9.240  11.165  0.00  0.00    +0.000 A 
ATOM     34  H   UNL     1      52.065   6.126  10.497  0.00  0.00    +0.000 HD
ENDBRANCH  21  24
ENDBRANCH  19  20
ENDBRANCH   4  19
TORSDOF 6
ENDMDL
MODEL 5
REMARK VINA RESULT:    -7.148      2.770      3.391
REMARK INTER + INTRA:         -10.723
REMARK INTER:                 -10.063
REMARK INTRA:                  -0.660
REMARK UNBOUND:                -1.067
REMARK  Name = 
REMARK  7 active torsions:
REMARK  status: ('A' for Active; 'I' for Inactive)
REMARK    1  A    between atoms: C_1  and  C_2
REMARK    2  A    between atoms: C_6  and  C_7
REMARK    3  A    between atoms: N_9  and  C_10
REMARK    4  A    between atoms: C_10  and  C_11
REMARK    5  A    between atoms: C_14  and  C_15
REMARK    6  A    between atoms: C_15  and  N_16
REMARK    7  A    between atoms: C_17  and  C_19
REMARK                            x       y       z     vdW  Elec       q    Type
REMARK                         _______ _______ _______ _____ _____    ______ ____
ROOT
ATOM      1  C   UNL     1      45.563   6.440  11.822  0.00  0.00    +0.000 A 
ATOM      2  C   UNL     1      45.337   7.777  12.174  0.00  0.00    +0.000 A 
ATOM      3  C   UNL     1      46.187   8.438  13.072  0.00  0.00    +0.000 A 
ATOM      4  C   UNL     1      47.296   7.781  13.621  0.00  0.00    +0.000 A 
ATOM      5  C   UNL     1      47.514   6.440  13.278  0.00  0.00    +0.000 A 
ATOM      6  C   UNL     1      46.667   5.780  12.378  0.00  0.00    +0.000 A 
ENDROOT
BRANCH   1   7
ATOM      7  C   UNL     1      44.617   5.720  10.895  0.00  0.00    +0.000 C 
BRANCH   7  10
ATOM      8  C   UNL     1      44.716   3.645   9.592  0.00  0.00    +0.000 C 
ATOM      9  O   UNL     1      43.650   3.237  10.043  0.00  0.00    +0.000 OA
ATOM     10  N   UNL     1      45.276   4.858   9.949  0.00  0.00    +0.000 N 
ATOM     11  H   UNL     1      46.169   5.104   9.534  0.00  0.00    +0.000 HD
BRANCH   8  17
ATOM     12  C   UNL     1      47.194   3.294   5.248  0.00  0.00    +0.000 C 
ATOM     13  C   UNL     1      46.686   2.677   6.516  0.00  0.00    +0.000 A 
ATOM     14  C   UNL     1      46.921   1.335   6.819  0.00  0.00    +0.000 A 
ATOM     15  C   UNL     1      46.425   0.819   8.010  0.00  0.00    +0.000 A 
ATOM     16  N   UNL     1      45.715   1.531   8.908  0.00  0.00    +0.000 NA
ATOM     17  C   UNL     1      45.497   2.839   8.597  0.00  0.00    +0.000 A 
ATOM     18  C   UNL     1      45.953   3.444   7.427  0.00  0.00    +0.000 A 
ENDBRANCH   8  17
ENDBRANCH   7  10
ENDBRANCH   1   7
BRANCH   4  19
ATOM     19  C   UNL     1      48.238   8.485  14.567  0.00  0.00    +0.000 C 
BRANCH  19  20
ATOM     20  N   UNL     1      48.002   8.115  15.941  0.00  0.00    +0.000 N 
ATOM     21  C   UNL     1      48.622   8.775  16.972  0.00  0.00    +0.000 C 
ATOM     22  O   UNL     1      49.372   9.728  16.781  0.00  0.00    +0.000 OA
ATOM     23  H   UNL     1      47.619   7.189  16.105  0.00  0.00    +0.000 HD
BRANCH  21  24
ATOM     24  C   UNL     1      48.294   8.318  18.331  0.00  0.00    +0.000 A 
ATOM     25  C   UNL     1      48.616   7.025  18.724  0.00  0.00    +0.000 A 
ATOM     26  S   UNL     1      48.210   6.685  20.346  0.00  0.00    +0.000 S 
ATOM     27  C   UNL     1      47.542   8.234  20.561  0.00  0.00    +0.000 A 
ATOM     28  N   UNL     1      46.981   8.601  21.749  0.00  0.00    +0.000 NA
ATOM     29  C   UNL     1      46.491   9.796  21.757  0.00  0.00    +0.000 A 
ATOM     30  N   UNL     1      46.521  10.662  20.696  0.00  0.00    +0.000 N 
ATOM     31  C   UNL     1      47.103  10.345  19.493  0.00  0.00    +0.000 A 
ATOM     32  O   UNL     1      47.158  11.170  18.579  0.00  0.00    +0.000 OA
ATOM     33  C   UNL     1      47.653   9.008  19.421  0.00  0.00    +0.000 A 
ATOM     34  H   UNL     1      46.133  11.591  20.773  0.00  0.00    +0.000 HD
ENDBRANCH  21  24
ENDBRANCH  19  20
ENDBRANCH   4  19
TORSDOF 6
ENDMDL
MODEL 6
REMARK VINA RESULT:    -6.727      3.231      4.771
REMARK INTER + INTRA:         -10.154
REMARK INTER:                  -9.122
REMARK INTRA:                  -1.033
REMARK UNBOUND:                -1.067
REMARK  Name = 
REMARK  7 active torsions:
REMARK  status: ('A' for Active; 'I' for Inactive)
REMARK    1  A    between atoms: C_1  and  C_2
REMARK    2  A    between atoms: C_6  and  C_7
REMARK    3  A    between atoms: N_9  and  C_10
REMARK    4  A    between atoms: C_10  and  C_11
REMARK    5  A    between atoms: C_14  and  C_15
REMARK    6  A    between atoms: C_15  and  N_16
REMARK    7  A    between atoms: C_17  and  C_19
REMARK                            x       y       z     vdW  Elec       q    Type
REMARK                         _______ _______ _______ _____ _____    ______ ____
ROOT
ATOM      1  C   UNL     1      45.526   5.194  12.051  0.00  0.00    +0.000 A 
ATOM      2  C   UNL     1      46.167   6.435  11.942  0.00  0.00    +0.000 A 
ATOM      3  C   UNL     1      47.093   6.855  12.906  0.00  0.00    +0.000 A 
ATOM      4  C   UNL     1      47.415   6.031  13.993  0.00  0.00    +0.000 A 
ATOM      5  C   UNL     1      46.764   4.795  14.109  0.00  0.00    +0.000 A 
ATOM      6  C   UNL     1      45.841   4.374  13.143  0.00  0.00    +0.000 A 
ENDROOT
BRANCH   1   7
ATOM      7  C   UNL     1      44.494   4.771  11.037  0.00  0.00    +0.000 C 
BRANCH   7  10
ATOM      8  C   UNL     1      45.643   4.413   8.901  0.00  0.00    +0.000 C 
ATOM      9  O   UNL     1      45.805   5.615   8.714  0.00  0.00    +0.000 OA
ATOM     10  N   UNL     1      45.010   3.897  10.016  0.00  0.00    +0.000 N 
ATOM     11  H   UNL     1      44.909   2.889  10.076  0.00  0.00    +0.000 HD
BRANCH   8  17
ATOM     12  C   UNL     1      46.763  -0.324   7.697  0.00  0.00    +0.000 C 
ATOM     13  C   UNL     1      46.670   1.129   7.339  0.00  0.00    +0.000 A 
ATOM     14  C   UNL     1      47.037   1.592   6.074  0.00  0.00    +0.000 A 
ATOM     15  C   UNL     1      46.929   2.949   5.800  0.00  0.00    +0.000 A 
ATOM     16  N   UNL     1      46.494   3.870   6.683  0.00  0.00    +0.000 NA
ATOM     17  C   UNL     1      46.138   3.400   7.911  0.00  0.00    +0.000 A 
ATOM     18  C   UNL     1      46.214   2.058   8.278  0.00  0.00    +0.000 A 
ENDBRANCH   8  17
ENDBRANCH   7  10
ENDBRANCH   1   7
BRANCH   4  19
ATOM     19  C   UNL     1      48.430   6.454  15.027  0.00  0.00    +0.000 C 
BRANCH  19  20
ATOM     20  N   UNL     1      49.679   6.854  14.428  0.00  0.00    +0.000 N 
ATOM     21  C   UNL     1      50.341   7.981  14.847  0.00  0.00    +0.000 C 
ATOM     22  O   UNL     1      49.925   8.678  15.769  0.00  0.00    +0.000 OA
ATOM     23  H   UNL     1      49.893   6.466  13.515  0.00  0.00    +0.000 HD
BRANCH  21  24
ATOM     24  C   UNL     1      51.612   8.281  14.172  0.00  0.00    +0.000 A 
ATOM     25  C   UNL     1      52.804   8.235  14.886  0.00  0.00    +0.000 A 
ATOM     26  S   UNL     1      54.181   8.560  13.932  0.00  0.00    +0.000 S 
ATOM     27  C   UNL     1      53.229   8.825  12.548  0.00  0.00    +0.000 A 
ATOM     28  N   UNL     1      53.797   9.174  11.359  0.00  0.00    +0.000 NA
ATOM     29  C   UNL     1      52.949   9.370  10.403  0.00  0.00    +0.000 A 
ATOM     30  N   UNL     1      51.591   9.234  10.522  0.00  0.00    +0.000 N 
ATOM     31  C   UNL     1      50.980   8.855  11.692  0.00  0.00    +0.000 A 
ATOM     32  O   UNL     1      49.760   8.693  11.746  0.00  0.00    +0.000 OA
ATOM     33  C   UNL     1      51.883   8.641  12.804  0.00  0.00    +0.000 A 
ATOM     34  H   UNL     1      50.983   9.386   9.730  0.00  0.00    +0.000 HD
ENDBRANCH  21  24
ENDBRANCH  19  20
ENDBRANCH   4  19
TORSDOF 6
ENDMDL
MODEL 7
REMARK VINA RESULT:    -6.631      3.508      8.598
REMARK INTER + INTRA:         -10.025
REMARK INTER:                  -9.123
REMARK INTRA:                  -0.901
REMARK UNBOUND:                -1.067
REMARK  Name = 
REMARK  7 active torsions:
REMARK  status: ('A' for Active; 'I' for Inactive)
REMARK    1  A    between atoms: C_1  and  C_2
REMARK    2  A    between atoms: C_6  and  C_7
REMARK    3  A    between atoms: N_9  and  C_10
REMARK    4  A    between atoms: C_10  and  C_11
REMARK    5  A    between atoms: C_14  and  C_15
REMARK    6  A    between atoms: C_15  and  N_16
REMARK    7  A    between atoms: C_17  and  C_19
REMARK                            x       y       z     vdW  Elec       q    Type
REMARK                         _______ _______ _______ _____ _____    ______ ____
ROOT
ATOM      1  C   UNL     1      49.856   7.698  15.661  0.00  0.00    +0.000 A 
ATOM      2  C   UNL     1      48.504   8.056  15.573  0.00  0.00    +0.000 A 
ATOM      3  C   UNL     1      47.904   8.298  14.329  0.00  0.00    +0.000 A 
ATOM      4  C   UNL     1      48.639   8.165  13.144  0.00  0.00    +0.000 A 
ATOM      5  C   UNL     1      49.994   7.820  13.234  0.00  0.00    +0.000 A 
ATOM      6  C   UNL     1      50.593   7.575  14.476  0.00  0.00    +0.000 A 
ENDROOT
BRANCH   1   7
ATOM      7  C   UNL     1      50.508   7.489  17.005  0.00  0.00    +0.000 C 
BRANCH   7  10
ATOM      8  C   UNL     1      50.279   5.078  17.388  0.00  0.00    +0.000 C 
ATOM      9  O   UNL     1      49.055   5.139  17.449  0.00  0.00    +0.000 OA
ATOM     10  N   UNL     1      51.084   6.180  17.171  0.00  0.00    +0.000 N 
ATOM     11  H   UNL     1      52.089   6.033  17.151  0.00  0.00    +0.000 HD
BRANCH   8  17
ATOM     12  C   UNL     1      54.249   2.443  18.948  0.00  0.00    +0.000 C 
ATOM     13  C   UNL     1      52.902   2.513  18.295  0.00  0.00    +0.000 A 
ATOM     14  C   UNL     1      52.266   1.368  17.811  0.00  0.00    +0.000 A 
ATOM     15  C   UNL     1      51.018   1.495  17.216  0.00  0.00    +0.000 A 
ATOM     16  N   UNL     1      50.365   2.664  17.063  0.00  0.00    +0.000 NA
ATOM     17  C   UNL     1      50.999   3.770  17.543  0.00  0.00    +0.000 A 
ATOM     18  C   UNL     1      52.251   3.742  18.153  0.00  0.00    +0.000 A 
ENDBRANCH   8  17
ENDBRANCH   7  10
ENDBRANCH   1   7
BRANCH   4  19
ATOM     19  C   UNL     1      48.002   8.395  11.795  0.00  0.00    +0.000 C 
BRANCH  19  20
ATOM     20  N   UNL     1      47.385   7.199  11.276  0.00  0.00    +0.000 N 
ATOM     21  C   UNL     1      46.023   7.030  11.310  0.00  0.00    +0.000 C 
ATOM     22  O   UNL     1      45.267   7.894  11.745  0.00  0.00    +0.000 OA
ATOM     23  H   UNL     1      47.983   6.386  11.170  0.00  0.00    +0.000 HD
BRANCH  21  24
ATOM     24  C   UNL     1      45.507   5.776  10.740  0.00  0.00    +0.000 A 
ATOM     25  C   UNL     1      45.720   5.485   9.398  0.00  0.00    +0.000 A 
ATOM     26  S   UNL     1      45.098   3.969   8.922  0.00  0.00    +0.000 S 
ATOM     27  C   UNL     1      44.478   3.674  10.478  0.00  0.00    +0.000 A 
ATOM     28  N   UNL     1      43.789   2.531  10.757  0.00  0.00    +0.000 NA
ATOM     29  C   UNL     1      43.354   2.456  11.971  0.00  0.00    +0.000 A 
ATOM     30  N   UNL     1      43.556   3.408  12.934  0.00  0.00    +0.000 N 
ATOM     31  C   UNL     1      44.270   4.559  12.706  0.00  0.00    +0.000 A 
ATOM     32  O   UNL     1      44.475   5.368  13.613  0.00  0.00    +0.000 OA
ATOM     33  C   UNL     1      44.766   4.704  11.353  0.00  0.00    +0.000 A 
ATOM     34  H   UNL     1      43.202   3.281  13.872  0.00  0.00    +0.000 HD
ENDBRANCH  21  24
ENDBRANCH  19  20
ENDBRANCH   4  19
TORSDOF 6
ENDMDL
MODEL 8
REMARK VINA RESULT:    -6.625      2.758      4.137
REMARK INTER + INTRA:         -10.017
REMARK INTER:                  -9.220
REMARK INTRA:                  -0.796
REMARK UNBOUND:                -1.067
REMARK  Name = 
REMARK  7 active torsions:
REMARK  status: ('A' for Active; 'I' for Inactive)
REMARK    1  A    between atoms: C_1  and  C_2
REMARK    2  A    between atoms: C_6  and  C_7
REMARK    3  A    between atoms: N_9  and  C_10
REMARK    4  A    between atoms: C_10  and  C_11
REMARK    5  A    between atoms: C_14  and  C_15
REMARK    6  A    between atoms: C_15  and  N_16
REMARK    7  A    between atoms: C_17  and  C_19
REMARK                            x       y       z     vdW  Elec       q    Type
REMARK                         _______ _______ _______ _____ _____    ______ ____
ROOT
ATOM      1  C   UNL     1      48.061   7.632  13.881  0.00  0.00    +0.000 A 
ATOM      2  C   UNL     1      48.318   8.747  14.690  0.00  0.00    +0.000 A 
ATOM      3  C   UNL     1      48.652   8.594  16.042  0.00  0.00    +0.000 A 
ATOM      4  C   UNL     1      48.758   7.318  16.611  0.00  0.00    +0.000 A 
ATOM      5  C   UNL     1      48.488   6.203  15.806  0.00  0.00    +0.000 A 
ATOM      6  C   UNL     1      48.157   6.356  14.453  0.00  0.00    +0.000 A 
ENDROOT
BRANCH   1   7
ATOM      7  C   UNL     1      47.653   7.807  12.440  0.00  0.00    +0.000 C 
BRANCH   7  10
ATOM      8  C   UNL     1      45.783   6.603  11.408  0.00  0.00    +0.000 C 
ATOM      9  O   UNL     1      45.033   7.571  11.487  0.00  0.00    +0.000 OA
ATOM     10  N   UNL     1      47.093   6.620  11.849  0.00  0.00    +0.000 N 
ATOM     11  H   UNL     1      47.632   5.764  11.755  0.00  0.00    +0.000 HD
BRANCH   8  17
ATOM     12  C   UNL     1      45.452   3.474   7.504  0.00  0.00    +0.000 C 
ATOM     13  C   UNL     1      45.165   3.812   8.936  0.00  0.00    +0.000 A 
ATOM     14  C   UNL     1      44.459   2.938   9.764  0.00  0.00    +0.000 A 
ATOM     15  C   UNL     1      44.223   3.306  11.082  0.00  0.00    +0.000 A 
ATOM     16  N   UNL     1      44.628   4.469  11.630  0.00  0.00    +0.000 NA
ATOM     17  C   UNL     1      45.318   5.308  10.808  0.00  0.00    +0.000 A 
ATOM     18  C   UNL     1      45.600   5.027   9.473  0.00  0.00    +0.000 A 
ENDBRANCH   8  17
ENDBRANCH   7  10
ENDBRANCH   1   7
BRANCH   4  19
ATOM     19  C   UNL     1      49.143   7.133  18.059  0.00  0.00    +0.000 C 
BRANCH  19  20
ATOM     20  N   UNL     1      50.045   6.023  18.242  0.00  0.00    +0.000 N 
ATOM     21  C   UNL     1      51.377   6.129  17.929  0.00  0.00    +0.000 C 
ATOM     22  O   UNL     1      51.870   7.176  17.515  0.00  0.00    +0.000 OA
ATOM     23  H   UNL     1      49.626   5.101  18.316  0.00  0.00    +0.000 HD
BRANCH  21  24
ATOM     24  C   UNL     1      52.202   4.936  18.170  0.00  0.00    +0.000 A 
ATOM     25  C   UNL     1      53.485   5.074  18.686  0.00  0.00    +0.000 A 
ATOM     26  S   UNL     1      54.276   3.584  18.950  0.00  0.00    +0.000 S 
ATOM     27  C   UNL     1      52.954   2.710  18.333  0.00  0.00    +0.000 A 
ATOM     28  N   UNL     1      52.986   1.349  18.251  0.00  0.00    +0.000 NA
ATOM     29  C   UNL     1      51.923   0.824  17.738  0.00  0.00    +0.000 A 
ATOM     30  N   UNL     1      50.827   1.529  17.315  0.00  0.00    +0.000 N 
ATOM     31  C   UNL     1      50.740   2.897  17.408  0.00  0.00    +0.000 A 
ATOM     32  O   UNL     1      49.717   3.491  17.065  0.00  0.00    +0.000 OA
ATOM     33  C   UNL     1      51.914   3.541  17.959  0.00  0.00    +0.000 A 
ATOM     34  H   UNL     1      50.019   1.055  16.936  0.00  0.00    +0.000 HD
ENDBRANCH  21  24
ENDBRANCH  19  20
ENDBRANCH   4  19
TORSDOF 6
ENDMDL
