MODEL 1
REMARK VINA RESULT:    -7.557      0.000      0.000
REMARK INTER + INTRA:         -10.606
REMARK INTER:                  -9.766
REMARK INTRA:                  -0.839
REMARK UNBOUND:                -0.839
REMARK  Name = 
REMARK  6 active torsions:
REMARK  status: ('A' for Active; 'I' for Inactive)
REMARK    1  A    between atoms: C_1  and  N_2
REMARK    2  A    between atoms: N_2  and  C_3
REMARK    3  A    between atoms: C_3  and  C_4
REMARK    4  A    between atoms: C_7  and  C_8
REMARK    5  A    between atoms: C_8  and  N_9
REMARK    6  A    between atoms: C_17  and  C_19
REMARK                            x       y       z     vdW  Elec       q    Type
REMARK                         _______ _______ _______ _____ _____    ______ ____
ROOT
ATOM      1  C   UNL     1      46.556   8.578  12.382  0.00  0.00    +0.000 C 
ATOM      2  N   UNL     1      46.258   7.153  12.291  0.00  0.00    +0.000 N 
ATOM      3  C   UNL     1      45.007   6.810  11.747  0.00  0.00    +0.000 C 
ATOM      4  O   UNL     1      44.215   7.677  11.381  0.00  0.00    +0.000 OA
ENDROOT
BRANCH   3   5
ATOM      5  C   UNL     1      44.622   5.396  11.652  0.00  0.00    +0.000 A 
ATOM      6  C   UNL     1      43.877   4.721  12.609  0.00  0.00    +0.000 A 
ATOM      7  S   UNL     1      43.536   3.102  12.193  0.00  0.00    +0.000 S 
ATOM      8  C   UNL     1      44.236   3.296  10.654  0.00  0.00    +0.000 A 
ATOM      9  N   UNL     1      44.181   2.299   9.731  0.00  0.00    +0.000 NA
ATOM     10  C   UNL     1      44.688   2.613   8.585  0.00  0.00    +0.000 A 
ATOM     11  N   UNL     1      45.276   3.819   8.295  0.00  0.00    +0.000 N 
ATOM     12  C   UNL     1      45.481   4.802   9.238  0.00  0.00    +0.000 A 
ATOM     13  O   UNL     1      46.215   5.754   9.008  0.00  0.00    +0.000 OA
ATOM     14  C   UNL     1      44.814   4.543  10.502  0.00  0.00    +0.000 A 
ATOM     15  H   UNL     1      45.714   3.976   7.398  0.00  0.00    +0.000 HD
ENDBRANCH   3   5
BRANCH   2  16
ATOM     16  C   UNL     1      47.329   6.174  12.519  0.00  0.00    +0.000 C 
BRANCH  16  17
ATOM     17  C   UNL     1      47.577   5.746  13.940  0.00  0.00    +0.000 A 
ATOM     18  C   UNL     1      46.951   4.602  14.459  0.00  0.00    +0.000 A 
ATOM     19  C   UNL     1      47.162   4.219  15.783  0.00  0.00    +0.000 A 
ATOM     20  C   UNL     1      48.007   4.971  16.609  0.00  0.00    +0.000 A 
ATOM     21  C   UNL     1      48.635   6.111  16.087  0.00  0.00    +0.000 A 
ATOM     22  C   UNL     1      48.421   6.497  14.765  0.00  0.00    +0.000 A 
BRANCH  20  23
ATOM     23  C   UNL     1      48.207   4.589  18.058  0.00  0.00    +0.000 C 
BRANCH  23  24
ATOM     24  N   UNL     1      49.396   3.753  18.309  0.00  0.00    +0.000 NA
ATOM     25  C   UNL     1      49.608   2.780  17.223  0.00  0.00    +0.000 C 
ATOM     26  C   UNL     1      50.859   1.933  17.461  0.00  0.00    +0.000 C 
ATOM     27  C   UNL     1      52.092   2.809  17.634  0.00  0.00    +0.000 C 
ATOM     28  C   UNL     1      51.850   3.838  18.729  0.00  0.00    +0.000 C 
ATOM     29  C   UNL     1      50.570   4.629  18.470  0.00  0.00    +0.000 C 
ENDBRANCH  23  24
ENDBRANCH  20  23
ENDBRANCH  16  17
ENDBRANCH   2  16
TORSDOF 5
ENDMDL
MODEL 2
REMARK VINA RESULT:    -7.453      1.395      2.443
REMARK INTER + INTRA:         -10.472
REMARK INTER:                  -9.316
REMARK INTRA:                  -1.156
REMARK UNBOUND:                -0.839
REMARK  Name = 
REMARK  6 active torsions:
REMARK  status: ('A' for Active; 'I' for Inactive)
REMARK    1  A    between atoms: C_1  and  N_2
REMARK    2  A    between atoms: N_2  and  C_3
REMARK    3  A    between atoms: C_3  and  C_4
REMARK    4  A    between atoms: C_7  and  C_8
REMARK    5  A    between atoms: C_8  and  N_9
REMARK    6  A    between atoms: C_17  and  C_19
REMARK                            x       y       z     vdW  Elec       q    Type
REMARK                         _______ _______ _______ _____ _____    ______ ____
ROOT
ATOM      1  C   UNL     1      46.281   8.626  12.283  0.00  0.00    +0.000 C 
ATOM      2  N   UNL     1      46.067   7.186  12.186  0.00  0.00    +0.000 N 
ATOM      3  C   UNL     1      44.827   6.774  11.665  0.00  0.00    +0.000 C 
ATOM      4  O   UNL     1      43.978   7.594  11.322  0.00  0.00    +0.000 OA
ENDROOT
BRANCH   3   5
ATOM      5  C   UNL     1      44.526   5.340  11.565  0.00  0.00    +0.000 A 
ATOM      6  C   UNL     1      43.790   4.627  12.501  0.00  0.00    +0.000 A 
ATOM      7  S   UNL     1      43.553   2.990  12.084  0.00  0.00    +0.000 S 
ATOM      8  C   UNL     1      44.289   3.218  10.567  0.00  0.00    +0.000 A 
ATOM      9  N   UNL     1      44.319   2.216   9.647  0.00  0.00    +0.000 NA
ATOM     10  C   UNL     1      44.844   2.554   8.516  0.00  0.00    +0.000 A 
ATOM     11  N   UNL     1      45.373   3.791   8.238  0.00  0.00    +0.000 N 
ATOM     12  C   UNL     1      45.492   4.786   9.183  0.00  0.00    +0.000 A 
ATOM     13  O   UNL     1      46.179   5.777   8.970  0.00  0.00    +0.000 OA
ATOM     14  C   UNL     1      44.801   4.495  10.426  0.00  0.00    +0.000 A 
ATOM     15  H   UNL     1      45.829   3.969   7.355  0.00  0.00    +0.000 HD
ENDBRANCH   3   5
BRANCH   2  16
ATOM     16  C   UNL     1      47.199   6.271  12.383  0.00  0.00    +0.000 C 
BRANCH  16  17
ATOM     17  C   UNL     1      47.501   5.848  13.795  0.00  0.00    +0.000 A 
ATOM     18  C   UNL     1      48.390   6.592  14.587  0.00  0.00    +0.000 A 
ATOM     19  C   UNL     1      48.688   6.186  15.887  0.00  0.00    +0.000 A 
ATOM     20  C   UNL     1      48.097   5.033  16.419  0.00  0.00    +0.000 A 
ATOM     21  C   UNL     1      47.207   4.295  15.628  0.00  0.00    +0.000 A 
ATOM     22  C   UNL     1      46.912   4.696  14.327  0.00  0.00    +0.000 A 
BRANCH  20  23
ATOM     23  C   UNL     1      48.449   4.561  17.812  0.00  0.00    +0.000 C 
BRANCH  23  24
ATOM     24  N   UNL     1      48.578   5.643  18.807  0.00  0.00    +0.000 NA
ATOM     25  C   UNL     1      47.270   6.248  19.114  0.00  0.00    +0.000 C 
ATOM     26  C   UNL     1      47.393   7.349  20.171  0.00  0.00    +0.000 C 
ATOM     27  C   UNL     1      48.045   6.821  21.442  0.00  0.00    +0.000 C 
ATOM     28  C   UNL     1      49.375   6.161  21.110  0.00  0.00    +0.000 C 
ATOM     29  C   UNL     1      49.209   5.101  20.022  0.00  0.00    +0.000 C 
ENDBRANCH  23  24
ENDBRANCH  20  23
ENDBRANCH  16  17
ENDBRANCH   2  16
TORSDOF 5
ENDMDL
MODEL 3
REMARK VINA RESULT:    -7.223      1.900      3.149
REMARK INTER + INTRA:         -10.174
REMARK INTER:                  -9.172
REMARK INTRA:                  -1.002
REMARK UNBOUND:                -0.839
REMARK  Name = 
REMARK  6 active torsions:
REMARK  status: ('A' for Active; 'I' for Inactive)
REMARK    1  A    between atoms: C_1  and  N_2
REMARK    2  A    between atoms: N_2  and  C_3
REMARK    3  A    between atoms: C_3  and  C_4
REMARK    4  A    between atoms: C_7  and  C_8
REMARK    5  A    between atoms: C_8  and  N_9
REMARK    6  A    between atoms: C_17  and  C_19
REMARK                            x       y       z     vdW  Elec       q    Type
REMARK                         _______ _______ _______ _____ _____    ______ ____
ROOT
ATOM      1  C   UNL     1      46.440   8.609  13.296  0.00  0.00    +0.000 C 
ATOM      2  N   UNL     1      46.297   7.343  12.585  0.00  0.00    +0.000 N 
ATOM      3  C   UNL     1      45.286   7.288  11.608  0.00  0.00    +0.000 C 
ATOM      4  O   UNL     1      44.566   8.259  11.385  0.00  0.00    +0.000 OA
ENDROOT
BRANCH   3   5
ATOM      5  C   UNL     1      45.061   6.038  10.871  0.00  0.00    +0.000 A 
ATOM      6  C   UNL     1      45.623   5.744   9.637  0.00  0.00    +0.000 A 
ATOM      7  S   UNL     1      45.226   4.189   9.057  0.00  0.00    +0.000 S 
ATOM      8  C   UNL     1      44.422   3.799  10.505  0.00  0.00    +0.000 A 
ATOM      9  N   UNL     1      43.930   2.548  10.715  0.00  0.00    +0.000 NA
ATOM     10  C   UNL     1      43.410   2.377  11.886  0.00  0.00    +0.000 A 
ATOM     11  N   UNL     1      43.307   3.353  12.846  0.00  0.00    +0.000 N 
ATOM     12  C   UNL     1      43.662   4.666  12.624  0.00  0.00    +0.000 A 
ATOM     13  O   UNL     1      43.335   5.547  13.408  0.00  0.00    +0.000 OA
ATOM     14  C   UNL     1      44.366   4.874  11.372  0.00  0.00    +0.000 A 
ATOM     15  H   UNL     1      42.829   3.170  13.717  0.00  0.00    +0.000 HD
ENDBRANCH   3   5
BRANCH   2  16
ATOM     16  C   UNL     1      47.333   6.312  12.726  0.00  0.00    +0.000 C 
BRANCH  16  17
ATOM     17  C   UNL     1      47.580   5.773  14.110  0.00  0.00    +0.000 A 
ATOM     18  C   UNL     1      48.527   6.378  14.951  0.00  0.00    +0.000 A 
ATOM     19  C   UNL     1      48.772   5.863  16.224  0.00  0.00    +0.000 A 
ATOM     20  C   UNL     1      48.070   4.739  16.678  0.00  0.00    +0.000 A 
ATOM     21  C   UNL     1      47.122   4.141  15.837  0.00  0.00    +0.000 A 
ATOM     22  C   UNL     1      46.879   4.651  14.563  0.00  0.00    +0.000 A 
BRANCH  20  23
ATOM     23  C   UNL     1      48.362   4.149  18.039  0.00  0.00    +0.000 C 
BRANCH  23  24
ATOM     24  N   UNL     1      48.491   5.145  19.120  0.00  0.00    +0.000 NA
ATOM     25  C   UNL     1      47.250   5.918  19.289  0.00  0.00    +0.000 C 
ATOM     26  C   UNL     1      47.367   6.930  20.431  0.00  0.00    +0.000 C 
ATOM     27  C   UNL     1      47.746   6.244  21.737  0.00  0.00    +0.000 C 
ATOM     28  C   UNL     1      49.006   5.414  21.542  0.00  0.00    +0.000 C 
ATOM     29  C   UNL     1      48.856   4.450  20.367  0.00  0.00    +0.000 C 
ENDBRANCH  23  24
ENDBRANCH  20  23
ENDBRANCH  16  17
ENDBRANCH   2  16
TORSDOF 5
ENDMDL
MODEL 4
REMARK VINA RESULT:    -7.051      1.338      2.221
REMARK INTER + INTRA:          -9.951
REMARK INTER:                  -9.250
REMARK INTRA:                  -0.701
REMARK UNBOUND:                -0.839
REMARK  Name = 
REMARK  6 active torsions:
REMARK  status: ('A' for Active; 'I' for Inactive)
REMARK    1  A    between atoms: C_1  and  N_2
REMARK    2  A    between atoms: N_2  and  C_3
REMARK    3  A    between atoms: C_3  and  C_4
REMARK    4  A    between atoms: C_7  and  C_8
REMARK    5  A    between atoms: C_8  and  N_9
REMARK    6  A    between atoms: C_17  and  C_19
REMARK                            x       y       z     vdW  Elec       q    Type
REMARK                         _______ _______ _______ _____ _____    ______ ____
ROOT
ATOM      1  C   UNL     1      46.586   8.715  13.195  0.00  0.00    +0.000 C 
ATOM      2  N   UNL     1      46.422   7.426  12.531  0.00  0.00    +0.000 N 
ATOM      3  C   UNL     1      45.417   7.355  11.549  0.00  0.00    +0.000 C 
ATOM      4  O   UNL     1      44.718   8.331  11.284  0.00  0.00    +0.000 OA
ENDROOT
BRANCH   3   5
ATOM      5  C   UNL     1      45.170   6.083  10.859  0.00  0.00    +0.000 A 
ATOM      6  C   UNL     1      45.729   5.733   9.637  0.00  0.00    +0.000 A 
ATOM      7  S   UNL     1      45.305   4.165   9.115  0.00  0.00    +0.000 S 
ATOM      8  C   UNL     1      44.492   3.843  10.574  0.00  0.00    +0.000 A 
ATOM      9  N   UNL     1      43.978   2.610  10.830  0.00  0.00    +0.000 NA
ATOM     10  C   UNL     1      43.454   2.491  12.005  0.00  0.00    +0.000 A 
ATOM     11  N   UNL     1      43.367   3.504  12.928  0.00  0.00    +0.000 N 
ATOM     12  C   UNL     1      43.745   4.801  12.659  0.00  0.00    +0.000 A 
ATOM     13  O   UNL     1      43.433   5.716  13.409  0.00  0.00    +0.000 OA
ATOM     14  C   UNL     1      44.455   4.950  11.401  0.00  0.00    +0.000 A 
ATOM     15  H   UNL     1      42.884   3.361  13.804  0.00  0.00    +0.000 HD
ENDBRANCH   3   5
BRANCH   2  16
ATOM     16  C   UNL     1      47.435   6.380  12.720  0.00  0.00    +0.000 C 
BRANCH  16  17
ATOM     17  C   UNL     1      47.559   5.785  14.096  0.00  0.00    +0.000 A 
ATOM     18  C   UNL     1      48.405   6.371  15.052  0.00  0.00    +0.000 A 
ATOM     19  C   UNL     1      48.538   5.805  16.319  0.00  0.00    +0.000 A 
ATOM     20  C   UNL     1      47.822   4.648  16.655  0.00  0.00    +0.000 A 
ATOM     21  C   UNL     1      46.975   4.069  15.701  0.00  0.00    +0.000 A 
ATOM     22  C   UNL     1      46.845   4.630  14.432  0.00  0.00    +0.000 A 
BRANCH  20  23
ATOM     23  C   UNL     1      47.994   4.004  18.012  0.00  0.00    +0.000 C 
BRANCH  23  24
ATOM     24  N   UNL     1      49.308   3.366  18.221  0.00  0.00    +0.000 NA
ATOM     25  C   UNL     1      49.649   2.462  17.110  0.00  0.00    +0.000 C 
ATOM     26  C   UNL     1      51.025   1.823  17.305  0.00  0.00    +0.000 C 
ATOM     27  C   UNL     1      52.105   2.883  17.475  0.00  0.00    +0.000 C 
ATOM     28  C   UNL     1      51.725   3.838  18.597  0.00  0.00    +0.000 C 
ATOM     29  C   UNL     1      50.328   4.417  18.381  0.00  0.00    +0.000 C 
ENDBRANCH  23  24
ENDBRANCH  20  23
ENDBRANCH  16  17
ENDBRANCH   2  16
TORSDOF 5
ENDMDL
MODEL 5
REMARK VINA RESULT:    -6.937      3.486      8.096
REMARK INTER + INTRA:          -9.804
REMARK INTER:                  -9.016
REMARK INTRA:                  -0.788
REMARK UNBOUND:                -0.839
REMARK  Name = 
REMARK  6 active torsions:
REMARK  status: ('A' for Active; 'I' for Inactive)
REMARK    1  A    between atoms: C_1  and  N_2
REMARK    2  A    between atoms: N_2  and  C_3
REMARK    3  A    between atoms: C_3  and  C_4
REMARK    4  A    between atoms: C_7  and  C_8
REMARK    5  A    between atoms: C_8  and  N_9
REMARK    6  A    between atoms: C_17  and  C_19
REMARK                            x       y       z     vdW  Elec       q    Type
REMARK                         _______ _______ _______ _____ _____    ______ ____
ROOT
ATOM      1  C   UNL     1      49.617   7.294  12.475  0.00  0.00    +0.000 C 
ATOM      2  N   UNL     1      49.034   7.617  13.773  0.00  0.00    +0.000 N 
ATOM      3  C   UNL     1      49.930   7.697  14.856  0.00  0.00    +0.000 C 
ATOM      4  O   UNL     1      51.133   7.494  14.700  0.00  0.00    +0.000 OA
ENDROOT
BRANCH   3   5
ATOM      5  C   UNL     1      49.415   7.987  16.200  0.00  0.00    +0.000 A 
ATOM      6  C   UNL     1      49.435   9.241  16.793  0.00  0.00    +0.000 A 
ATOM      7  S   UNL     1      48.710   9.280  18.336  0.00  0.00    +0.000 S 
ATOM      8  C   UNL     1      48.206   7.661  18.197  0.00  0.00    +0.000 A 
ATOM      9  N   UNL     1      47.423   7.088  19.150  0.00  0.00    +0.000 NA
ATOM     10  C   UNL     1      47.058   5.879  18.876  0.00  0.00    +0.000 A 
ATOM     11  N   UNL     1      47.437   5.184  17.755  0.00  0.00    +0.000 N 
ATOM     12  C   UNL     1      48.341   5.672  16.837  0.00  0.00    +0.000 A 
ATOM     13  O   UNL     1      48.836   4.941  15.990  0.00  0.00    +0.000 OA
ATOM     14  C   UNL     1      48.675   7.071  17.038  0.00  0.00    +0.000 A 
ATOM     15  H   UNL     1      47.170   4.217  17.634  0.00  0.00    +0.000 HD
ENDBRANCH   3   5
BRANCH   2  16
ATOM     16  C   UNL     1      47.643   8.079  13.848  0.00  0.00    +0.000 C 
BRANCH  16  17
ATOM     17  C   UNL     1      46.609   7.265  13.117  0.00  0.00    +0.000 A 
ATOM     18  C   UNL     1      45.754   7.871  12.184  0.00  0.00    +0.000 A 
ATOM     19  C   UNL     1      44.781   7.120  11.525  0.00  0.00    +0.000 A 
ATOM     20  C   UNL     1      44.651   5.750  11.785  0.00  0.00    +0.000 A 
ATOM     21  C   UNL     1      45.510   5.146  12.713  0.00  0.00    +0.000 A 
ATOM     22  C   UNL     1      46.479   5.896  13.376  0.00  0.00    +0.000 A 
BRANCH  20  23
ATOM     23  C   UNL     1      43.570   4.938  11.108  0.00  0.00    +0.000 C 
BRANCH  23  24
ATOM     24  N   UNL     1      44.013   4.224   9.895  0.00  0.00    +0.000 NA
ATOM     25  C   UNL     1      45.252   4.806   9.352  0.00  0.00    +0.000 C 
ATOM     26  C   UNL     1      45.736   4.048   8.114  0.00  0.00    +0.000 C 
ATOM     27  C   UNL     1      45.933   2.569   8.416  0.00  0.00    +0.000 C 
ATOM     28  C   UNL     1      44.662   1.986   9.015  0.00  0.00    +0.000 C 
ATOM     29  C   UNL     1      44.196   2.799  10.221  0.00  0.00    +0.000 C 
ENDBRANCH  23  24
ENDBRANCH  20  23
ENDBRANCH  16  17
ENDBRANCH   2  16
TORSDOF 5
ENDMDL
MODEL 6
REMARK VINA RESULT:    -6.578      3.143      8.140
REMARK INTER + INTRA:          -9.340
REMARK INTER:                  -8.379
REMARK INTRA:                  -0.962
REMARK UNBOUND:                -0.839
REMARK  Name = 
REMARK  6 active torsions:
REMARK  status: ('A' for Active; 'I' for Inactive)
REMARK    1  A    between atoms: C_1  and  N_2
REMARK    2  A    between atoms: N_2  and  C_3
REMARK    3  A    between atoms: C_3  and  C_4
REMARK    4  A    between atoms: C_7  and  C_8
REMARK    5  A    between atoms: C_8  and  N_9
REMARK    6  A    between atoms: C_17  and  C_19
REMARK                            x       y       z     vdW  Elec       q    Type
REMARK                         _______ _______ _______ _____ _____    ______ ____
ROOT
ATOM      1  C   UNL     1      48.702   9.114  15.881  0.00  0.00    +0.000 C 
ATOM      2  N   UNL     1      48.887   7.672  15.997  0.00  0.00    +0.000 N 
ATOM      3  C   UNL     1      48.466   7.084  17.204  0.00  0.00    +0.000 C 
ATOM      4  O   UNL     1      47.979   7.765  18.105  0.00  0.00    +0.000 OA
ENDROOT
BRANCH   3   5
ATOM      5  C   UNL     1      48.648   5.642  17.408  0.00  0.00    +0.000 A 
ATOM      6  C   UNL     1      47.628   4.704  17.327  0.00  0.00    +0.000 A 
ATOM      7  S   UNL     1      48.156   3.097  17.551  0.00  0.00    +0.000 S 
ATOM      8  C   UNL     1      49.784   3.586  17.606  0.00  0.00    +0.000 A 
ATOM      9  N   UNL     1      50.787   2.669  17.673  0.00  0.00    +0.000 NA
ATOM     10  C   UNL     1      51.973   3.181  17.634  0.00  0.00    +0.000 A 
ATOM     11  N   UNL     1      52.242   4.526  17.572  0.00  0.00    +0.000 N 
ATOM     12  C   UNL     1      51.263   5.493  17.645  0.00  0.00    +0.000 A 
ATOM     13  O   UNL     1      51.551   6.668  17.829  0.00  0.00    +0.000 OA
ATOM     14  C   UNL     1      49.914   4.962  17.560  0.00  0.00    +0.000 A 
ATOM     15  H   UNL     1      53.193   4.863  17.612  0.00  0.00    +0.000 HD
ENDBRANCH   3   5
BRANCH   2  16
ATOM     16  C   UNL     1      49.247   6.890  14.807  0.00  0.00    +0.000 C 
BRANCH  16  17
ATOM     17  C   UNL     1      48.150   6.604  13.817  0.00  0.00    +0.000 A 
ATOM     18  C   UNL     1      47.277   5.523  14.016  0.00  0.00    +0.000 A 
ATOM     19  C   UNL     1      46.276   5.243  13.086  0.00  0.00    +0.000 A 
ATOM     20  C   UNL     1      46.127   6.043  11.946  0.00  0.00    +0.000 A 
ATOM     21  C   UNL     1      46.998   7.125  11.753  0.00  0.00    +0.000 A 
ATOM     22  C   UNL     1      48.002   7.403  12.679  0.00  0.00    +0.000 A 
BRANCH  20  23
ATOM     23  C   UNL     1      45.073   5.721  10.911  0.00  0.00    +0.000 C 
BRANCH  23  24
ATOM     24  N   UNL     1      45.400   4.571  10.047  0.00  0.00    +0.000 NA
ATOM     25  C   UNL     1      44.239   3.682   9.874  0.00  0.00    +0.000 C 
ATOM     26  C   UNL     1      44.562   2.505   8.951  0.00  0.00    +0.000 C 
ATOM     27  C   UNL     1      45.066   2.988   7.598  0.00  0.00    +0.000 C 
ATOM     28  C   UNL     1      46.239   3.939   7.788  0.00  0.00    +0.000 C 
ATOM     29  C   UNL     1      45.882   5.072   8.748  0.00  0.00    +0.000 C 
ENDBRANCH  23  24
ENDBRANCH  20  23
ENDBRANCH  16  17
ENDBRANCH   2  16
TORSDOF 5
ENDMDL
MODEL 7
REMARK VINA RESULT:    -6.489      3.365      7.803
REMARK INTER + INTRA:          -9.226
REMARK INTER:                  -7.870
REMARK INTRA:                  -1.356
REMARK UNBOUND:                -0.839
REMARK  Name = 
REMARK  6 active torsions:
REMARK  status: ('A' for Active; 'I' for Inactive)
REMARK    1  A    between atoms: C_1  and  N_2
REMARK    2  A    between atoms: N_2  and  C_3
REMARK    3  A    between atoms: C_3  and  C_4
REMARK    4  A    between atoms: C_7  and  C_8
REMARK    5  A    between atoms: C_8  and  N_9
REMARK    6  A    between atoms: C_17  and  C_19
REMARK                            x       y       z     vdW  Elec       q    Type
REMARK                         _______ _______ _______ _____ _____    ______ ____
ROOT
ATOM      1  C   UNL     1      47.717   9.227  17.883  0.00  0.00    +0.000 C 
ATOM      2  N   UNL     1      48.708   8.229  17.494  0.00  0.00    +0.000 N 
ATOM      3  C   UNL     1      48.761   7.064  18.281  0.00  0.00    +0.000 C 
ATOM      4  O   UNL     1      48.014   6.915  19.246  0.00  0.00    +0.000 OA
ENDROOT
BRANCH   3   5
ATOM      5  C   UNL     1      49.754   6.027  17.970  0.00  0.00    +0.000 A 
ATOM      6  C   UNL     1      51.108   6.129  18.255  0.00  0.00    +0.000 A 
ATOM      7  S   UNL     1      52.002   4.739  17.832  0.00  0.00    +0.000 S 
ATOM      8  C   UNL     1      50.588   3.897  17.401  0.00  0.00    +0.000 A 
ATOM      9  N   UNL     1      50.636   2.585  17.045  0.00  0.00    +0.000 NA
ATOM     10  C   UNL     1      49.479   2.059  16.815  0.00  0.00    +0.000 A 
ATOM     11  N   UNL     1      48.286   2.737  16.873  0.00  0.00    +0.000 N 
ATOM     12  C   UNL     1      48.203   4.095  17.089  0.00  0.00    +0.000 A 
ATOM     13  O   UNL     1      47.157   4.700  16.896  0.00  0.00    +0.000 OA
ATOM     14  C   UNL     1      49.464   4.700  17.478  0.00  0.00    +0.000 A 
ATOM     15  H   UNL     1      47.422   2.281  16.616  0.00  0.00    +0.000 HD
ENDBRANCH   3   5
BRANCH   2  16
ATOM     16  C   UNL     1      49.397   8.358  16.204  0.00  0.00    +0.000 C 
BRANCH  16  17
ATOM     17  C   UNL     1      48.646   7.914  14.977  0.00  0.00    +0.000 A 
ATOM     18  C   UNL     1      47.736   8.777  14.348  0.00  0.00    +0.000 A 
ATOM     19  C   UNL     1      47.023   8.357  13.226  0.00  0.00    +0.000 A 
ATOM     20  C   UNL     1      47.213   7.068  12.710  0.00  0.00    +0.000 A 
ATOM     21  C   UNL     1      48.127   6.210  13.338  0.00  0.00    +0.000 A 
ATOM     22  C   UNL     1      48.837   6.627  14.462  0.00  0.00    +0.000 A 
BRANCH  20  23
ATOM     23  C   UNL     1      46.412   6.589  11.521  0.00  0.00    +0.000 C 
BRANCH  23  24
ATOM     24  N   UNL     1      45.544   5.429  11.799  0.00  0.00    +0.000 NA
ATOM     25  C   UNL     1      44.421   5.797  12.678  0.00  0.00    +0.000 C 
ATOM     26  C   UNL     1      43.499   4.605  12.942  0.00  0.00    +0.000 C 
ATOM     27  C   UNL     1      42.979   4.012  11.640  0.00  0.00    +0.000 C 
ATOM     28  C   UNL     1      44.144   3.674  10.720  0.00  0.00    +0.000 C 
ATOM     29  C   UNL     1      45.058   4.881  10.520  0.00  0.00    +0.000 C 
ENDBRANCH  23  24
ENDBRANCH  20  23
ENDBRANCH  16  17
ENDBRANCH   2  16
TORSDOF 5
ENDMDL
MODEL 8
REMARK VINA RESULT:    -6.438      3.721      5.227
REMARK INTER + INTRA:          -9.159
REMARK INTER:                  -8.225
REMARK INTRA:                  -0.933
REMARK UNBOUND:                -0.839
REMARK  Name = 
REMARK  6 active torsions:
REMARK  status: ('A' for Active; 'I' for Inactive)
REMARK    1  A    between atoms: C_1  and  N_2
REMARK    2  A    between atoms: N_2  and  C_3
REMARK    3  A    between atoms: C_3  and  C_4
REMARK    4  A    between atoms: C_7  and  C_8
REMARK    5  A    between atoms: C_8  and  N_9
REMARK    6  A    between atoms: C_17  and  C_19
REMARK                            x       y       z     vdW  Elec       q    Type
REMARK                         _______ _______ _______ _____ _____    ______ ____
ROOT
ATOM      1  C   UNL     1      45.643   8.594  12.529  0.00  0.00    +0.000 C 
ATOM      2  N   UNL     1      45.546   7.142  12.415  0.00  0.00    +0.000 N 
ATOM      3  C   UNL     1      44.465   6.647  11.663  0.00  0.00    +0.000 C 
ATOM      4  O   UNL     1      43.650   7.408  11.146  0.00  0.00    +0.000 OA
ENDROOT
BRANCH   3   5
ATOM      5  C   UNL     1      44.283   5.196  11.529  0.00  0.00    +0.000 A 
ATOM      6  C   UNL     1      43.522   4.418  12.390  0.00  0.00    +0.000 A 
ATOM      7  S   UNL     1      43.449   2.774  11.943  0.00  0.00    +0.000 S 
ATOM      8  C   UNL     1      44.299   3.075  10.500  0.00  0.00    +0.000 A 
ATOM      9  N   UNL     1      44.488   2.090   9.582  0.00  0.00    +0.000 NA
ATOM     10  C   UNL     1      45.085   2.481   8.504  0.00  0.00    +0.000 A 
ATOM     11  N   UNL     1      45.541   3.757   8.283  0.00  0.00    +0.000 N 
ATOM     12  C   UNL     1      45.499   4.747   9.240  0.00  0.00    +0.000 A 
ATOM     13  O   UNL     1      46.125   5.788   9.097  0.00  0.00    +0.000 OA
ATOM     14  C   UNL     1      44.723   4.388  10.414  0.00  0.00    +0.000 A 
ATOM     15  H   UNL     1      46.060   3.979   7.446  0.00  0.00    +0.000 HD
ENDBRANCH   3   5
BRANCH   2  16
ATOM     16  C   UNL     1      46.673   6.306  12.848  0.00  0.00    +0.000 C 
BRANCH  16  17
ATOM     17  C   UNL     1      48.046   6.916  12.781  0.00  0.00    +0.000 A 
ATOM     18  C   UNL     1      48.770   7.174  13.956  0.00  0.00    +0.000 A 
ATOM     19  C   UNL     1      50.033   7.761  13.894  0.00  0.00    +0.000 A 
ATOM     20  C   UNL     1      50.596   8.096  12.656  0.00  0.00    +0.000 A 
ATOM     21  C   UNL     1      49.873   7.833  11.484  0.00  0.00    +0.000 A 
ATOM     22  C   UNL     1      48.609   7.251  11.544  0.00  0.00    +0.000 A 
BRANCH  20  23
ATOM     23  C   UNL     1      51.946   8.773  12.582  0.00  0.00    +0.000 C 
BRANCH  23  24
ATOM     24  N   UNL     1      52.673   8.547  11.319  0.00  0.00    +0.000 NA
ATOM     25  C   UNL     1      52.855   9.802  10.571  0.00  0.00    +0.000 C 
ATOM     26  C   UNL     1      53.638   9.578   9.276  0.00  0.00    +0.000 C 
ATOM     27  C   UNL     1      54.986   8.927   9.553  0.00  0.00    +0.000 C 
ATOM     28  C   UNL     1      54.792   7.653  10.362  0.00  0.00    +0.000 C 
ATOM     29  C   UNL     1      53.971   7.918  11.622  0.00  0.00    +0.000 C 
ENDBRANCH  23  24
ENDBRANCH  20  23
ENDBRANCH  16  17
ENDBRANCH   2  16
TORSDOF 5
ENDMDL
MODEL 9
REMARK VINA RESULT:    -5.822      2.929      4.182
REMARK INTER + INTRA:          -8.364
REMARK INTER:                  -7.540
REMARK INTRA:                  -0.824
REMARK UNBOUND:                -0.839
REMARK  Name = 
REMARK  6 active torsions:
REMARK  status: ('A' for Active; 'I' for Inactive)
REMARK    1  A    between atoms: C_1  and  N_2
REMARK    2  A    between atoms: N_2  and  C_3
REMARK    3  A    between atoms: C_3  and  C_4
REMARK    4  A    between atoms: C_7  and  C_8
REMARK    5  A    between atoms: C_8  and  N_9
REMARK    6  A    between atoms: C_17  and  C_19
REMARK                            x       y       z     vdW  Elec       q    Type
REMARK                         _______ _______ _______ _____ _____    ______ ____
ROOT
ATOM      1  C   UNL     1      51.230   9.349  13.048  0.00  0.00    +0.000 C 
ATOM      2  N   UNL     1      49.787   9.262  13.246  0.00  0.00    +0.000 N 
ATOM      3  C   UNL     1      49.065   8.554  12.268  0.00  0.00    +0.000 C 
ATOM      4  O   UNL     1      49.633   8.051  11.300  0.00  0.00    +0.000 OA
ENDROOT
BRANCH   3   5
ATOM      5  C   UNL     1      47.605   8.450  12.382  0.00  0.00    +0.000 A 
ATOM      6  C   UNL     1      46.716   9.441  11.989  0.00  0.00    +0.000 A 
ATOM      7  S   UNL     1      45.078   9.008  12.188  0.00  0.00    +0.000 S 
ATOM      8  C   UNL     1      45.499   7.427  12.655  0.00  0.00    +0.000 A 
ATOM      9  N   UNL     1      44.543   6.483  12.869  0.00  0.00    +0.000 NA
ATOM     10  C   UNL     1      45.012   5.311  13.146  0.00  0.00    +0.000 A 
ATOM     11  N   UNL     1      46.346   5.012  13.264  0.00  0.00    +0.000 N 
ATOM     12  C   UNL     1      47.340   5.964  13.196  0.00  0.00    +0.000 A 
ATOM     13  O   UNL     1      48.485   5.704  13.542  0.00  0.00    +0.000 OA
ATOM     14  C   UNL     1      46.868   7.266  12.760  0.00  0.00    +0.000 A 
ATOM     15  H   UNL     1      46.643   4.089  13.549  0.00  0.00    +0.000 HD
ENDBRANCH   3   5
BRANCH   2  16
ATOM     16  C   UNL     1      49.207   9.672  14.531  0.00  0.00    +0.000 C 
BRANCH  16  17
ATOM     17  C   UNL     1      49.321   8.702  15.677  0.00  0.00    +0.000 A 
ATOM     18  C   UNL     1      50.293   7.690  15.659  0.00  0.00    +0.000 A 
ATOM     19  C   UNL     1      50.383   6.777  16.709  0.00  0.00    +0.000 A 
ATOM     20  C   UNL     1      49.506   6.865  17.797  0.00  0.00    +0.000 A 
ATOM     21  C   UNL     1      48.539   7.880  17.815  0.00  0.00    +0.000 A 
ATOM     22  C   UNL     1      48.445   8.790  16.764  0.00  0.00    +0.000 A 
BRANCH  20  23
ATOM     23  C   UNL     1      49.567   5.853  18.919  0.00  0.00    +0.000 C 
BRANCH  23  24
ATOM     24  N   UNL     1      49.125   4.497  18.540  0.00  0.00    +0.000 NA
ATOM     25  C   UNL     1      47.895   4.540  17.733  0.00  0.00    +0.000 C 
ATOM     26  C   UNL     1      47.450   3.138  17.309  0.00  0.00    +0.000 C 
ATOM     27  C   UNL     1      48.556   2.415  16.552  0.00  0.00    +0.000 C 
ATOM     28  C   UNL     1      49.835   2.413  17.376  0.00  0.00    +0.000 C 
ATOM     29  C   UNL     1      50.216   3.827  17.810  0.00  0.00    +0.000 C 
ENDBRANCH  23  24
ENDBRANCH  20  23
ENDBRANCH  16  17
ENDBRANCH   2  16
TORSDOF 5
ENDMDL
