MODEL 1
REMARK VINA RESULT:    -8.731      0.000      0.000
REMARK INTER + INTRA:         -12.780
REMARK INTER:                 -11.794
REMARK INTRA:                  -0.987
REMARK UNBOUND:                -0.987
REMARK  Name = 
REMARK  6 active torsions:
REMARK  status: ('A' for Active; 'I' for Inactive)
REMARK    1  A    between atoms: C_2  and  C_4
REMARK    2  A    between atoms: C_7  and  O_8
REMARK    3  A    between atoms: O_8  and  C_9
REMARK    4  A    between atoms: C_9  and  C_10
REMARK    5  A    between atoms: C_10  and  C_11
REMARK    6  A    between atoms: C_15  and  C_16
REMARK                            x       y       z     vdW  Elec       q    Type
REMARK                         _______ _______ _______ _____ _____    ______ ____
ROOT
ATOM      1  C   UNL     1      43.264   4.975  12.406  0.00  0.00    +0.000 C 
ENDROOT
BRANCH   1   2
ATOM      2  C   UNL     1      44.707   5.218  12.773  0.00  0.00    +0.000 A 
ATOM      3  C   UNL     1      45.489   4.200  13.319  0.00  0.00    +0.000 A 
ATOM      4  C   UNL     1      46.828   4.441  13.616  0.00  0.00    +0.000 A 
ATOM      5  C   UNL     1      47.391   5.696  13.364  0.00  0.00    +0.000 A 
ATOM      6  C   UNL     1      46.649   6.735  12.769  0.00  0.00    +0.000 A 
ATOM      7  C   UNL     1      45.299   6.461  12.486  0.00  0.00    +0.000 A 
BRANCH   6   8
ATOM      8  C   UNL     1      47.298   8.009  12.352  0.00  0.00    +0.000 A 
ATOM      9  C   UNL     1      48.674   7.984  12.020  0.00  0.00    +0.000 A 
ATOM     10  C   UNL     1      49.350   9.111  11.544  0.00  0.00    +0.000 A 
ATOM     11  C   UNL     1      48.665  10.302  11.357  0.00  0.00    +0.000 A 
ATOM     12  C   UNL     1      47.314  10.372  11.688  0.00  0.00    +0.000 A 
ATOM     13  C   UNL     1      46.641   9.252  12.202  0.00  0.00    +0.000 A 
ATOM     14 CL   UNL     1      44.995   9.524  12.675  0.00  0.00    +0.000 Cl
ENDBRANCH   6   8
ENDBRANCH   1   2
BRANCH   1  15
ATOM     15  C   UNL     1      43.175   3.994  11.240  0.00  0.00    +0.000 C 
BRANCH  15  16
ATOM     16  O   UNL     1      43.707   4.594  10.058  0.00  0.00    +0.000 OA
BRANCH  16  20
ATOM     17  C   UNL     1      46.443   2.450   7.755  0.00  0.00    +0.000 A 
ATOM     18  C   UNL     1      45.642   1.751   8.657  0.00  0.00    +0.000 A 
ATOM     19  C   UNL     1      44.715   2.437   9.447  0.00  0.00    +0.000 A 
ATOM     20  C   UNL     1      44.591   3.825   9.351  0.00  0.00    +0.000 A 
ATOM     21  C   UNL     1      45.418   4.523   8.466  0.00  0.00    +0.000 A 
ATOM     22  C   UNL     1      46.347   3.844   7.673  0.00  0.00    +0.000 A 
BRANCH  17  24
ATOM     23  N   UNL     1      48.493   2.465   6.448  0.00  0.00    +0.000 N 
ATOM     24  C   UNL     1      47.415   1.746   6.879  0.00  0.00    +0.000 C 
ATOM     25  O   UNL     1      47.285   0.566   6.588  0.00  0.00    +0.000 OA
ATOM     26  H   UNL     1      49.211   1.941   5.949  0.00  0.00    +0.000 HD
ATOM     27  H   UNL     1      48.768   3.337   6.877  0.00  0.00    +0.000 HD
ENDBRANCH  17  24
ENDBRANCH  16  20
ENDBRANCH  15  16
ENDBRANCH   1  15
TORSDOF 6
ENDMDL
MODEL 2
REMARK VINA RESULT:    -8.617      2.123      3.768
REMARK INTER + INTRA:         -12.626
REMARK INTER:                 -11.610
REMARK INTRA:                  -1.016
REMARK UNBOUND:                -0.987
REMARK  Name = 
REMARK  6 active torsions:
REMARK  status: ('A' for Active; 'I' for Inactive)
REMARK    1  A    between atoms: C_2  and  C_4
REMARK    2  A    between atoms: C_7  and  O_8
REMARK    3  A    between atoms: O_8  and  C_9
REMARK    4  A    between atoms: C_9  and  C_10
REMARK    5  A    between atoms: C_10  and  C_11
REMARK    6  A    between atoms: C_15  and  C_16
REMARK                            x       y       z     vdW  Elec       q    Type
REMARK                         _______ _______ _______ _____ _____    ______ ____
ROOT
ATOM      1  C   UNL     1      43.672   5.173  12.150  0.00  0.00    +0.000 C 
ENDROOT
BRANCH   1   2
ATOM      2  C   UNL     1      45.120   5.481  12.437  0.00  0.00    +0.000 A 
ATOM      3  C   UNL     1      45.859   6.308  11.591  0.00  0.00    +0.000 A 
ATOM      4  C   UNL     1      47.184   6.604  11.897  0.00  0.00    +0.000 A 
ATOM      5  C   UNL     1      47.774   6.082  13.053  0.00  0.00    +0.000 A 
ATOM      6  C   UNL     1      47.049   5.283  13.959  0.00  0.00    +0.000 A 
ATOM      7  C   UNL     1      45.715   4.998  13.617  0.00  0.00    +0.000 A 
BRANCH   6   8
ATOM      8  C   UNL     1      47.633   4.870  15.265  0.00  0.00    +0.000 A 
ATOM      9  C   UNL     1      47.442   3.535  15.694  0.00  0.00    +0.000 A 
ATOM     10  C   UNL     1      48.017   3.034  16.865  0.00  0.00    +0.000 A 
ATOM     11  C   UNL     1      48.829   3.849  17.640  0.00  0.00    +0.000 A 
ATOM     12  C   UNL     1      49.028   5.174  17.262  0.00  0.00    +0.000 A 
ATOM     13  C   UNL     1      48.421   5.690  16.105  0.00  0.00    +0.000 A 
ATOM     14 CL   UNL     1      48.668   7.384  15.826  0.00  0.00    +0.000 Cl
ENDBRANCH   6   8
ENDBRANCH   1   2
BRANCH   1  15
ATOM     15  C   UNL     1      43.467   4.951  10.654  0.00  0.00    +0.000 C 
BRANCH  15  16
ATOM     16  O   UNL     1      43.523   3.555  10.357  0.00  0.00    +0.000 OA
BRANCH  16  20
ATOM     17  C   UNL     1      46.457   2.633   7.542  0.00  0.00    +0.000 A 
ATOM     18  C   UNL     1      45.928   1.599   8.313  0.00  0.00    +0.000 A 
ATOM     19  C   UNL     1      44.944   1.871   9.268  0.00  0.00    +0.000 A 
ATOM     20  C   UNL     1      44.492   3.178   9.468  0.00  0.00    +0.000 A 
ATOM     21  C   UNL     1      45.048   4.214   8.712  0.00  0.00    +0.000 A 
ATOM     22  C   UNL     1      46.032   3.949   7.756  0.00  0.00    +0.000 A 
BRANCH  17  24
ATOM     23  N   UNL     1      47.389   3.098   5.345  0.00  0.00    +0.000 N 
ATOM     24  C   UNL     1      47.481   2.371   6.498  0.00  0.00    +0.000 C 
ATOM     25  O   UNL     1      48.391   1.575   6.672  0.00  0.00    +0.000 OA
ATOM     26  H   UNL     1      48.162   2.997   4.688  0.00  0.00    +0.000 HD
ATOM     27  H   UNL     1      46.828   3.935   5.277  0.00  0.00    +0.000 HD
ENDBRANCH  17  24
ENDBRANCH  16  20
ENDBRANCH  15  16
ENDBRANCH   1  15
TORSDOF 6
ENDMDL
MODEL 3
REMARK VINA RESULT:    -8.149      1.658      2.167
REMARK INTER + INTRA:         -11.995
REMARK INTER:                 -11.090
REMARK INTRA:                  -0.904
REMARK UNBOUND:                -0.987
REMARK  Name = 
REMARK  6 active torsions:
REMARK  status: ('A' for Active; 'I' for Inactive)
REMARK    1  A    between atoms: C_2  and  C_4
REMARK    2  A    between atoms: C_7  and  O_8
REMARK    3  A    between atoms: O_8  and  C_9
REMARK    4  A    between atoms: C_9  and  C_10
REMARK    5  A    between atoms: C_10  and  C_11
REMARK    6  A    between atoms: C_15  and  C_16
REMARK                            x       y       z     vdW  Elec       q    Type
REMARK                         _______ _______ _______ _____ _____    ______ ____
ROOT
ATOM      1  C   UNL     1      44.856   3.186  12.290  0.00  0.00    +0.000 C 
ENDROOT
BRANCH   1   2
ATOM      2  C   UNL     1      45.082   4.677  12.353  0.00  0.00    +0.000 A 
ATOM      3  C   UNL     1      44.009   5.559  12.477  0.00  0.00    +0.000 A 
ATOM      4  C   UNL     1      44.246   6.928  12.569  0.00  0.00    +0.000 A 
ATOM      5  C   UNL     1      45.555   7.419  12.544  0.00  0.00    +0.000 A 
ATOM      6  C   UNL     1      46.669   6.559  12.469  0.00  0.00    +0.000 A 
ATOM      7  C   UNL     1      46.394   5.183  12.372  0.00  0.00    +0.000 A 
BRANCH   6   8
ATOM      8  C   UNL     1      48.058   7.077  12.610  0.00  0.00    +0.000 A 
ATOM      9  C   UNL     1      48.665   7.684  11.485  0.00  0.00    +0.000 A 
ATOM     10  C   UNL     1      49.934   8.268  11.543  0.00  0.00    +0.000 A 
ATOM     11  C   UNL     1      50.632   8.289  12.742  0.00  0.00    +0.000 A 
ATOM     12  C   UNL     1      50.076   7.687  13.867  0.00  0.00    +0.000 A 
ATOM     13  C   UNL     1      48.817   7.067  13.802  0.00  0.00    +0.000 A 
ATOM     14 CL   UNL     1      48.308   6.262  15.252  0.00  0.00    +0.000 Cl
ENDBRANCH   6   8
ENDBRANCH   1   2
BRANCH   1  15
ATOM     15  C   UNL     1      43.584   2.879  11.505  0.00  0.00    +0.000 C 
BRANCH  15  16
ATOM     16  O   UNL     1      43.600   3.578  10.260  0.00  0.00    +0.000 OA
BRANCH  16  20
ATOM     17  C   UNL     1      46.522   2.599   7.451  0.00  0.00    +0.000 A 
ATOM     18  C   UNL     1      45.953   1.573   8.202  0.00  0.00    +0.000 A 
ATOM     19  C   UNL     1      44.972   1.863   9.154  0.00  0.00    +0.000 A 
ATOM     20  C   UNL     1      44.563   3.182   9.371  0.00  0.00    +0.000 A 
ATOM     21  C   UNL     1      45.159   4.209   8.635  0.00  0.00    +0.000 A 
ATOM     22  C   UNL     1      46.141   3.926   7.681  0.00  0.00    +0.000 A 
BRANCH  17  24
ATOM     23  N   UNL     1      47.480   3.059   5.264  0.00  0.00    +0.000 N 
ATOM     24  C   UNL     1      47.545   2.319   6.410  0.00  0.00    +0.000 C 
ATOM     25  O   UNL     1      48.431   1.496   6.581  0.00  0.00    +0.000 OA
ATOM     26  H   UNL     1      48.253   2.942   4.610  0.00  0.00    +0.000 HD
ATOM     27  H   UNL     1      46.943   3.912   5.200  0.00  0.00    +0.000 HD
ENDBRANCH  17  24
ENDBRANCH  16  20
ENDBRANCH  15  16
ENDBRANCH   1  15
TORSDOF 6
ENDMDL
MODEL 4
REMARK VINA RESULT:    -7.800      1.746      2.623
REMARK INTER + INTRA:         -11.522
REMARK INTER:                 -10.741
REMARK INTRA:                  -0.781
REMARK UNBOUND:                -0.987
REMARK  Name = 
REMARK  6 active torsions:
REMARK  status: ('A' for Active; 'I' for Inactive)
REMARK    1  A    between atoms: C_2  and  C_4
REMARK    2  A    between atoms: C_7  and  O_8
REMARK    3  A    between atoms: O_8  and  C_9
REMARK    4  A    between atoms: C_9  and  C_10
REMARK    5  A    between atoms: C_10  and  C_11
REMARK    6  A    between atoms: C_15  and  C_16
REMARK                            x       y       z     vdW  Elec       q    Type
REMARK                         _______ _______ _______ _____ _____    ______ ____
ROOT
ATOM      1  C   UNL     1      43.575   4.848  12.171  0.00  0.00    +0.000 C 
ENDROOT
BRANCH   1   2
ATOM      2  C   UNL     1      44.696   5.856  12.127  0.00  0.00    +0.000 A 
ATOM      3  C   UNL     1      46.030   5.446  12.157  0.00  0.00    +0.000 A 
ATOM      4  C   UNL     1      47.046   6.395  12.080  0.00  0.00    +0.000 A 
ATOM      5  C   UNL     1      46.735   7.754  11.967  0.00  0.00    +0.000 A 
ATOM      6  C   UNL     1      45.403   8.205  11.885  0.00  0.00    +0.000 A 
ATOM      7  C   UNL     1      44.400   7.222  11.971  0.00  0.00    +0.000 A 
BRANCH   6   8
ATOM      8  C   UNL     1      45.085   9.631  11.598  0.00  0.00    +0.000 A 
ATOM      9  C   UNL     1      43.813   9.940  11.059  0.00  0.00    +0.000 A 
ATOM     10  C   UNL     1      43.395  11.254  10.831  0.00  0.00    +0.000 A 
ATOM     11  C   UNL     1      44.229  12.312  11.159  0.00  0.00    +0.000 A 
ATOM     12  C   UNL     1      45.495  12.050  11.675  0.00  0.00    +0.000 A 
ATOM     13  C   UNL     1      45.932  10.729  11.871  0.00  0.00    +0.000 A 
ATOM     14 CL   UNL     1      47.571  10.559  12.411  0.00  0.00    +0.000 Cl
ENDBRANCH   6   8
ENDBRANCH   1   2
BRANCH   1  15
ATOM     15  C   UNL     1      44.055   3.502  11.636  0.00  0.00    +0.000 C 
BRANCH  15  16
ATOM     16  O   UNL     1      43.573   3.308  10.306  0.00  0.00    +0.000 OA
BRANCH  16  20
ATOM     17  C   UNL     1      46.546   2.610   7.466  0.00  0.00    +0.000 A 
ATOM     18  C   UNL     1      46.085   3.914   7.638  0.00  0.00    +0.000 A 
ATOM     19  C   UNL     1      45.088   4.185   8.580  0.00  0.00    +0.000 A 
ATOM     20  C   UNL     1      44.536   3.155   9.345  0.00  0.00    +0.000 A 
ATOM     21  C   UNL     1      44.982   1.845   9.146  0.00  0.00    +0.000 A 
ATOM     22  C   UNL     1      45.978   1.566   8.206  0.00  0.00    +0.000 A 
BRANCH  17  24
ATOM     23  N   UNL     1      47.719   3.092   5.392  0.00  0.00    +0.000 N 
ATOM     24  C   UNL     1      47.626   2.294   6.496  0.00  0.00    +0.000 C 
ATOM     25  O   UNL     1      48.425   1.390   6.691  0.00  0.00    +0.000 OA
ATOM     26  H   UNL     1      48.533   2.942   4.797  0.00  0.00    +0.000 HD
ATOM     27  H   UNL     1      47.261   3.991   5.334  0.00  0.00    +0.000 HD
ENDBRANCH  17  24
ENDBRANCH  16  20
ENDBRANCH  15  16
ENDBRANCH   1  15
TORSDOF 6
ENDMDL
MODEL 5
REMARK VINA RESULT:    -7.794      1.901      2.657
REMARK INTER + INTRA:         -11.514
REMARK INTER:                 -10.683
REMARK INTRA:                  -0.831
REMARK UNBOUND:                -0.987
REMARK  Name = 
REMARK  6 active torsions:
REMARK  status: ('A' for Active; 'I' for Inactive)
REMARK    1  A    between atoms: C_2  and  C_4
REMARK    2  A    between atoms: C_7  and  O_8
REMARK    3  A    between atoms: O_8  and  C_9
REMARK    4  A    between atoms: C_9  and  C_10
REMARK    5  A    between atoms: C_10  and  C_11
REMARK    6  A    between atoms: C_15  and  C_16
REMARK                            x       y       z     vdW  Elec       q    Type
REMARK                         _______ _______ _______ _____ _____    ______ ____
ROOT
ATOM      1  C   UNL     1      45.175   4.395  12.008  0.00  0.00    +0.000 C 
ENDROOT
BRANCH   1   2
ATOM      2  C   UNL     1      45.642   5.793  12.330  0.00  0.00    +0.000 A 
ATOM      3  C   UNL     1      44.782   6.884  12.198  0.00  0.00    +0.000 A 
ATOM      4  C   UNL     1      45.227   8.159  12.536  0.00  0.00    +0.000 A 
ATOM      5  C   UNL     1      46.529   8.348  13.011  0.00  0.00    +0.000 A 
ATOM      6  C   UNL     1      47.412   7.268  13.204  0.00  0.00    +0.000 A 
ATOM      7  C   UNL     1      46.933   5.994  12.849  0.00  0.00    +0.000 A 
BRANCH   6   8
ATOM      8  C   UNL     1      48.733   7.456  13.866  0.00  0.00    +0.000 A 
ATOM      9  C   UNL     1      48.888   7.001  15.197  0.00  0.00    +0.000 A 
ATOM     10  C   UNL     1      50.111   7.063  15.872  0.00  0.00    +0.000 A 
ATOM     11  C   UNL     1      51.233   7.561  15.227  0.00  0.00    +0.000 A 
ATOM     12  C   UNL     1      51.118   8.035  13.923  0.00  0.00    +0.000 A 
ATOM     13  C   UNL     1      49.882   8.008  13.255  0.00  0.00    +0.000 A 
ATOM     14 CL   UNL     1      49.871   8.737  11.681  0.00  0.00    +0.000 Cl
ENDBRANCH   6   8
ENDBRANCH   1   2
BRANCH   1  15
ATOM     15  C   UNL     1      43.736   4.424  11.500  0.00  0.00    +0.000 C 
BRANCH  15  16
ATOM     16  O   UNL     1      43.722   4.623  10.087  0.00  0.00    +0.000 OA
BRANCH  16  20
ATOM     17  C   UNL     1      46.411   2.438   7.767  0.00  0.00    +0.000 A 
ATOM     18  C   UNL     1      45.550   1.744   8.616  0.00  0.00    +0.000 A 
ATOM     19  C   UNL     1      44.637   2.444   9.410  0.00  0.00    +0.000 A 
ATOM     20  C   UNL     1      44.586   3.840   9.371  0.00  0.00    +0.000 A 
ATOM     21  C   UNL     1      45.472   4.530   8.539  0.00  0.00    +0.000 A 
ATOM     22  C   UNL     1      46.389   3.837   7.742  0.00  0.00    +0.000 A 
BRANCH  17  24
ATOM     23  N   UNL     1      48.429   2.441   6.410  0.00  0.00    +0.000 N 
ATOM     24  C   UNL     1      47.371   1.721   6.888  0.00  0.00    +0.000 C 
ATOM     25  O   UNL     1      47.250   0.532   6.634  0.00  0.00    +0.000 OA
ATOM     26  H   UNL     1      49.141   1.913   5.908  0.00  0.00    +0.000 HD
ATOM     27  H   UNL     1      48.702   3.329   6.807  0.00  0.00    +0.000 HD
ENDBRANCH  17  24
ENDBRANCH  16  20
ENDBRANCH  15  16
ENDBRANCH   1  15
TORSDOF 6
ENDMDL
MODEL 6
REMARK VINA RESULT:    -7.713      1.288      2.139
REMARK INTER + INTRA:         -11.405
REMARK INTER:                 -10.778
REMARK INTRA:                  -0.627
REMARK UNBOUND:                -0.987
REMARK  Name = 
REMARK  6 active torsions:
REMARK  status: ('A' for Active; 'I' for Inactive)
REMARK    1  A    between atoms: C_2  and  C_4
REMARK    2  A    between atoms: C_7  and  O_8
REMARK    3  A    between atoms: O_8  and  C_9
REMARK    4  A    between atoms: C_9  and  C_10
REMARK    5  A    between atoms: C_10  and  C_11
REMARK    6  A    between atoms: C_15  and  C_16
REMARK                            x       y       z     vdW  Elec       q    Type
REMARK                         _______ _______ _______ _____ _____    ______ ____
ROOT
ATOM      1  C   UNL     1      45.493   4.892  11.754  0.00  0.00    +0.000 C 
ENDROOT
BRANCH   1   2
ATOM      2  C   UNL     1      45.849   6.335  12.017  0.00  0.00    +0.000 A 
ATOM      3  C   UNL     1      44.961   7.183  12.679  0.00  0.00    +0.000 A 
ATOM      4  C   UNL     1      45.328   8.500  12.940  0.00  0.00    +0.000 A 
ATOM      5  C   UNL     1      46.584   8.973  12.547  0.00  0.00    +0.000 A 
ATOM      6  C   UNL     1      47.528   8.137  11.920  0.00  0.00    +0.000 A 
ATOM      7  C   UNL     1      47.124   6.813  11.666  0.00  0.00    +0.000 A 
BRANCH   6   8
ATOM      8  C   UNL     1      48.919   8.600  11.657  0.00  0.00    +0.000 A 
ATOM      9  C   UNL     1      49.975   7.669  11.801  0.00  0.00    +0.000 A 
ATOM     10  C   UNL     1      51.302   7.989  11.501  0.00  0.00    +0.000 A 
ATOM     11  C   UNL     1      51.617   9.250  11.018  0.00  0.00    +0.000 A 
ATOM     12  C   UNL     1      50.609  10.200  10.878  0.00  0.00    +0.000 A 
ATOM     13  C   UNL     1      49.280   9.893  11.214  0.00  0.00    +0.000 A 
ATOM     14 CL   UNL     1      48.158  11.210  11.096  0.00  0.00    +0.000 Cl
ENDBRANCH   6   8
ENDBRANCH   1   2
BRANCH   1  15
ATOM     15  C   UNL     1      44.010   4.769  11.416  0.00  0.00    +0.000 C 
BRANCH  15  16
ATOM     16  O   UNL     1      43.834   4.748   9.999  0.00  0.00    +0.000 OA
BRANCH  16  20
ATOM     17  C   UNL     1      46.365   2.298   7.767  0.00  0.00    +0.000 A 
ATOM     18  C   UNL     1      45.482   1.699   8.663  0.00  0.00    +0.000 A 
ATOM     19  C   UNL     1      44.620   2.488   9.430  0.00  0.00    +0.000 A 
ATOM     20  C   UNL     1      44.644   3.881   9.316  0.00  0.00    +0.000 A 
ATOM     21  C   UNL     1      45.552   4.476   8.437  0.00  0.00    +0.000 A 
ATOM     22  C   UNL     1      46.418   3.693   7.667  0.00  0.00    +0.000 A 
BRANCH  17  24
ATOM     23  N   UNL     1      48.387   2.105   6.429  0.00  0.00    +0.000 N 
ATOM     24  C   UNL     1      47.272   1.485   6.916  0.00  0.00    +0.000 C 
ATOM     25  O   UNL     1      47.059   0.303   6.692  0.00  0.00    +0.000 OA
ATOM     26  H   UNL     1      49.059   1.509   5.948  0.00  0.00    +0.000 HD
ATOM     27  H   UNL     1      48.727   2.979   6.805  0.00  0.00    +0.000 HD
ENDBRANCH  17  24
ENDBRANCH  16  20
ENDBRANCH  15  16
ENDBRANCH   1  15
TORSDOF 6
ENDMDL
MODEL 7
REMARK VINA RESULT:    -7.463      4.082      7.469
REMARK INTER + INTRA:         -11.067
REMARK INTER:                  -9.649
REMARK INTRA:                  -1.418
REMARK UNBOUND:                -0.987
REMARK  Name = 
REMARK  6 active torsions:
REMARK  status: ('A' for Active; 'I' for Inactive)
REMARK    1  A    between atoms: C_2  and  C_4
REMARK    2  A    between atoms: C_7  and  O_8
REMARK    3  A    between atoms: O_8  and  C_9
REMARK    4  A    between atoms: C_9  and  C_10
REMARK    5  A    between atoms: C_10  and  C_11
REMARK    6  A    between atoms: C_15  and  C_16
REMARK                            x       y       z     vdW  Elec       q    Type
REMARK                         _______ _______ _______ _____ _____    ______ ____
ROOT
ATOM      1  C   UNL     1      48.864   8.188  12.096  0.00  0.00    +0.000 C 
ENDROOT
BRANCH   1   2
ATOM      2  C   UNL     1      47.394   7.886  11.941  0.00  0.00    +0.000 A 
ATOM      3  C   UNL     1      46.428   8.831  12.287  0.00  0.00    +0.000 A 
ATOM      4  C   UNL     1      45.079   8.541  12.101  0.00  0.00    +0.000 A 
ATOM      5  C   UNL     1      44.691   7.309  11.564  0.00  0.00    +0.000 A 
ATOM      6  C   UNL     1      45.636   6.347  11.156  0.00  0.00    +0.000 A 
ATOM      7  C   UNL     1      46.990   6.669  11.362  0.00  0.00    +0.000 A 
BRANCH   6   8
ATOM      8  C   UNL     1      45.221   5.112  10.434  0.00  0.00    +0.000 A 
ATOM      9  C   UNL     1      45.564   4.988   9.066  0.00  0.00    +0.000 A 
ATOM     10  C   UNL     1      45.288   3.835   8.326  0.00  0.00    +0.000 A 
ATOM     11  C   UNL     1      44.679   2.750   8.939  0.00  0.00    +0.000 A 
ATOM     12  C   UNL     1      44.311   2.838  10.278  0.00  0.00    +0.000 A 
ATOM     13  C   UNL     1      44.554   4.010  11.014  0.00  0.00    +0.000 A 
ATOM     14 CL   UNL     1      43.937   4.013  12.635  0.00  0.00    +0.000 Cl
ENDBRANCH   6   8
ENDBRANCH   1   2
BRANCH   1  15
ATOM     15  C   UNL     1      49.487   7.255  13.131  0.00  0.00    +0.000 C 
BRANCH  15  16
ATOM     16  O   UNL     1      49.075   7.640  14.443  0.00  0.00    +0.000 OA
BRANCH  16  20
ATOM     17  C   UNL     1      47.990   4.455  16.905  0.00  0.00    +0.000 A 
ATOM     18  C   UNL     1      48.975   5.334  17.352  0.00  0.00    +0.000 A 
ATOM     19  C   UNL     1      49.366   6.412  16.553  0.00  0.00    +0.000 A 
ATOM     20  C   UNL     1      48.785   6.611  15.298  0.00  0.00    +0.000 A 
ATOM     21  C   UNL     1      47.819   5.709  14.844  0.00  0.00    +0.000 A 
ATOM     22  C   UNL     1      47.424   4.628  15.638  0.00  0.00    +0.000 A 
BRANCH  17  24
ATOM     23  N   UNL     1      48.276   3.025  18.852  0.00  0.00    +0.000 N 
ATOM     24  C   UNL     1      47.531   3.318  17.745  0.00  0.00    +0.000 C 
ATOM     25  O   UNL     1      46.511   2.696  17.487  0.00  0.00    +0.000 OA
ATOM     26  H   UNL     1      47.888   2.325  19.482  0.00  0.00    +0.000 HD
ATOM     27  H   UNL     1      48.951   3.671  19.235  0.00  0.00    +0.000 HD
ENDBRANCH  17  24
ENDBRANCH  16  20
ENDBRANCH  15  16
ENDBRANCH   1  15
TORSDOF 6
ENDMDL
MODEL 8
REMARK VINA RESULT:    -7.340      1.919      2.726
REMARK INTER + INTRA:         -10.901
REMARK INTER:                 -10.351
REMARK INTRA:                  -0.550
REMARK UNBOUND:                -0.987
REMARK  Name = 
REMARK  6 active torsions:
REMARK  status: ('A' for Active; 'I' for Inactive)
REMARK    1  A    between atoms: C_2  and  C_4
REMARK    2  A    between atoms: C_7  and  O_8
REMARK    3  A    between atoms: O_8  and  C_9
REMARK    4  A    between atoms: C_9  and  C_10
REMARK    5  A    between atoms: C_10  and  C_11
REMARK    6  A    between atoms: C_15  and  C_16
REMARK                            x       y       z     vdW  Elec       q    Type
REMARK                         _______ _______ _______ _____ _____    ______ ____
ROOT
ATOM      1  C   UNL     1      45.495   5.167  11.440  0.00  0.00    +0.000 C 
ENDROOT
BRANCH   1   2
ATOM      2  C   UNL     1      45.759   6.531  12.029  0.00  0.00    +0.000 A 
ATOM      3  C   UNL     1      46.640   6.692  13.099  0.00  0.00    +0.000 A 
ATOM      4  C   UNL     1      46.892   7.965  13.601  0.00  0.00    +0.000 A 
ATOM      5  C   UNL     1      46.271   9.083  13.034  0.00  0.00    +0.000 A 
ATOM      6  C   UNL     1      45.413   8.969  11.922  0.00  0.00    +0.000 A 
ATOM      7  C   UNL     1      45.175   7.668  11.442  0.00  0.00    +0.000 A 
BRANCH   6   8
ATOM      8  C   UNL     1      44.890  10.175  11.222  0.00  0.00    +0.000 A 
ATOM      9  C   UNL     1      45.763  11.272  11.031  0.00  0.00    +0.000 A 
ATOM     10  C   UNL     1      45.387  12.414  10.318  0.00  0.00    +0.000 A 
ATOM     11  C   UNL     1      44.126  12.488   9.745  0.00  0.00    +0.000 A 
ATOM     12  C   UNL     1      43.232  11.436   9.924  0.00  0.00    +0.000 A 
ATOM     13  C   UNL     1      43.594  10.304  10.672  0.00  0.00    +0.000 A 
ATOM     14 CL   UNL     1      42.337   9.131  10.905  0.00  0.00    +0.000 Cl
ENDBRANCH   6   8
ENDBRANCH   1   2
BRANCH   1  15
ATOM     15  C   UNL     1      43.993   4.935  11.302  0.00  0.00    +0.000 C 
BRANCH  15  16
ATOM     16  O   UNL     1      43.666   4.663   9.939  0.00  0.00    +0.000 OA
BRANCH  16  20
ATOM     17  C   UNL     1      46.414   2.436   7.732  0.00  0.00    +0.000 A 
ATOM     18  C   UNL     1      45.598   1.768   8.643  0.00  0.00    +0.000 A 
ATOM     19  C   UNL     1      44.666   2.482   9.402  0.00  0.00    +0.000 A 
ATOM     20  C   UNL     1      44.553   3.868   9.265  0.00  0.00    +0.000 A 
ATOM     21  C   UNL     1      45.395   4.535   8.371  0.00  0.00    +0.000 A 
ATOM     22  C   UNL     1      46.330   3.827   7.610  0.00  0.00    +0.000 A 
BRANCH  17  24
ATOM     23  N   UNL     1      48.483   2.398   6.454  0.00  0.00    +0.000 N 
ATOM     24  C   UNL     1      47.392   1.700   6.889  0.00  0.00    +0.000 C 
ATOM     25  O   UNL     1      47.256   0.515   6.627  0.00  0.00    +0.000 OA
ATOM     26  H   UNL     1      49.202   1.856   5.979  0.00  0.00    +0.000 HD
ATOM     27  H   UNL     1      48.759   3.279   6.864  0.00  0.00    +0.000 HD
ENDBRANCH  17  24
ENDBRANCH  16  20
ENDBRANCH  15  16
ENDBRANCH   1  15
TORSDOF 6
ENDMDL
MODEL 9
REMARK VINA RESULT:    -7.270      5.075      7.912
REMARK INTER + INTRA:         -10.806
REMARK INTER:                  -9.911
REMARK INTRA:                  -0.895
REMARK UNBOUND:                -0.987
REMARK  Name = 
REMARK  6 active torsions:
REMARK  status: ('A' for Active; 'I' for Inactive)
REMARK    1  A    between atoms: C_2  and  C_4
REMARK    2  A    between atoms: C_7  and  O_8
REMARK    3  A    between atoms: O_8  and  C_9
REMARK    4  A    between atoms: C_9  and  C_10
REMARK    5  A    between atoms: C_10  and  C_11
REMARK    6  A    between atoms: C_15  and  C_16
REMARK                            x       y       z     vdW  Elec       q    Type
REMARK                         _______ _______ _______ _____ _____    ______ ____
ROOT
ATOM      1  C   UNL     1      47.916   5.963  14.428  0.00  0.00    +0.000 C 
ENDROOT
BRANCH   1   2
ATOM      2  C   UNL     1      46.887   6.317  13.383  0.00  0.00    +0.000 A 
ATOM      3  C   UNL     1      46.416   7.623  13.253  0.00  0.00    +0.000 A 
ATOM      4  C   UNL     1      45.493   7.930  12.257  0.00  0.00    +0.000 A 
ATOM      5  C   UNL     1      45.041   6.935  11.385  0.00  0.00    +0.000 A 
ATOM      6  C   UNL     1      45.527   5.614  11.451  0.00  0.00    +0.000 A 
ATOM      7  C   UNL     1      46.455   5.337  12.471  0.00  0.00    +0.000 A 
BRANCH   6   8
ATOM      8  C   UNL     1      45.168   4.605  10.416  0.00  0.00    +0.000 A 
ATOM      9  C   UNL     1      45.639   4.800   9.096  0.00  0.00    +0.000 A 
ATOM     10  C   UNL     1      45.420   3.869   8.077  0.00  0.00    +0.000 A 
ATOM     11  C   UNL     1      44.741   2.690   8.351  0.00  0.00    +0.000 A 
ATOM     12  C   UNL     1      44.247   2.468   9.633  0.00  0.00    +0.000 A 
ATOM     13  C   UNL     1      44.434   3.420  10.650  0.00  0.00    +0.000 A 
ATOM     14 CL   UNL     1      43.664   3.056  12.161  0.00  0.00    +0.000 Cl
ENDBRANCH   6   8
ENDBRANCH   1   2
BRANCH   1  15
ATOM     15  C   UNL     1      47.316   5.007  15.455  0.00  0.00    +0.000 C 
BRANCH  15  16
ATOM     16  O   UNL     1      47.959   5.185  16.718  0.00  0.00    +0.000 OA
BRANCH  16  20
ATOM     17  C   UNL     1      51.066   2.498  17.432  0.00  0.00    +0.000 A 
ATOM     18  C   UNL     1      51.300   3.855  17.645  0.00  0.00    +0.000 A 
ATOM     19  C   UNL     1      50.282   4.785  17.414  0.00  0.00    +0.000 A 
ATOM     20  C   UNL     1      49.030   4.367  16.957  0.00  0.00    +0.000 A 
ATOM     21  C   UNL     1      48.811   3.008  16.718  0.00  0.00    +0.000 A 
ATOM     22  C   UNL     1      49.825   2.072  16.946  0.00  0.00    +0.000 A 
BRANCH  17  24
ATOM     23  N   UNL     1      51.697   0.242  18.084  0.00  0.00    +0.000 N 
ATOM     24  C   UNL     1      52.118   1.482  17.698  0.00  0.00    +0.000 C 
ATOM     25  O   UNL     1      53.304   1.726  17.539  0.00  0.00    +0.000 OA
ATOM     26  H   UNL     1      52.416  -0.477  18.148  0.00  0.00    +0.000 HD
ATOM     27  H   UNL     1      50.742  -0.066  17.966  0.00  0.00    +0.000 HD
ENDBRANCH  17  24
ENDBRANCH  16  20
ENDBRANCH  15  16
ENDBRANCH   1  15
TORSDOF 6
ENDMDL
