MODEL 1
REMARK VINA RESULT:    -8.242      0.000      0.000
REMARK INTER + INTRA:         -11.099
REMARK INTER:                 -10.651
REMARK INTRA:                  -0.448
REMARK UNBOUND:                -0.448
REMARK  Name = 
REMARK  5 active torsions:
REMARK  status: ('A' for Active; 'I' for Inactive)
REMARK    1  A    between atoms: C_2  and  C_4
REMARK    2  A    between atoms: C_7  and  C_8
REMARK    3  A    between atoms: C_8  and  N_9
REMARK    4  A    between atoms: C_14  and  N_15
REMARK    5  A    between atoms: N_15  and  C_16
REMARK                            x       y       z     vdW  Elec       q    Type
REMARK                         _______ _______ _______ _____ _____    ______ ____
ROOT
ATOM      1  N   UNL     1      44.318   5.909  10.645  0.00  0.00    +0.000 N 
ATOM      2  C   UNL     1      45.158   6.034  11.768  0.00  0.00    +0.000 A 
ATOM      3  C   UNL     1      45.747   7.270  12.049  0.00  0.00    +0.000 A 
ATOM      4  N   UNL     1      46.617   7.472  13.064  0.00  0.00    +0.000 NA
ATOM      5  C   UNL     1      46.889   6.364  13.791  0.00  0.00    +0.000 A 
ATOM      6  C   UNL     1      46.294   5.119  13.568  0.00  0.00    +0.000 A 
ATOM      7  N   UNL     1      45.432   4.957  12.543  0.00  0.00    +0.000 NA
ATOM      8  H   UNL     1      43.549   6.573  10.710  0.00  0.00    +0.000 HD
ENDROOT
BRANCH   6   9
ATOM      9  N   UNL     1      46.647   4.013  14.380  0.00  0.00    +0.000 N 
ATOM     10  H   UNL     1      46.946   3.247  13.786  0.00  0.00    +0.000 HD
BRANCH   9  11
ATOM     11  C   UNL     1      47.542   4.147  15.496  0.00  0.00    +0.000 C 
ATOM     12  C   UNL     1      48.098   2.765  15.924  0.00  0.00    +0.000 C 
ATOM     13  C   UNL     1      48.009   3.268  17.377  0.00  0.00    +0.000 C 
ATOM     14  C   UNL     1      46.885   4.218  16.893  0.00  0.00    +0.000 C 
ENDBRANCH   9  11
ENDBRANCH   6   9
BRANCH   1  15
ATOM     15  C   UNL     1      43.848   4.546  10.441  0.00  0.00    +0.000 C 
BRANCH  15  19
ATOM     16  C   UNL     1      46.483   2.482   7.706  0.00  0.00    +0.000 A 
ATOM     17  C   UNL     1      46.360   3.875   7.638  0.00  0.00    +0.000 A 
ATOM     18  C   UNL     1      45.496   4.542   8.513  0.00  0.00    +0.000 A 
ATOM     19  C   UNL     1      44.747   3.827   9.461  0.00  0.00    +0.000 A 
ATOM     20  C   UNL     1      44.865   2.431   9.509  0.00  0.00    +0.000 A 
ATOM     21  C   UNL     1      45.724   1.762   8.635  0.00  0.00    +0.000 A 
BRANCH  16  23
ATOM     22  N   UNL     1      48.525   2.354   6.386  0.00  0.00    +0.000 N 
ATOM     23  C   UNL     1      47.387   1.724   6.805  0.00  0.00    +0.000 C 
ATOM     24  O   UNL     1      47.154   0.567   6.481  0.00  0.00    +0.000 OA
ATOM     25  H   UNL     1      49.184   1.784   5.871  0.00  0.00    +0.000 HD
ATOM     26  H   UNL     1      48.878   3.187   6.834  0.00  0.00    +0.000 HD
ENDBRANCH  16  23
ENDBRANCH  15  19
ENDBRANCH   1  15
TORSDOF 5
ENDMDL
MODEL 2
REMARK VINA RESULT:    -7.851      1.691      3.788
REMARK INTER + INTRA:         -10.593
REMARK INTER:                 -10.181
REMARK INTRA:                  -0.413
REMARK UNBOUND:                -0.448
REMARK  Name = 
REMARK  5 active torsions:
REMARK  status: ('A' for Active; 'I' for Inactive)
REMARK    1  A    between atoms: C_2  and  C_4
REMARK    2  A    between atoms: C_7  and  C_8
REMARK    3  A    between atoms: C_8  and  N_9
REMARK    4  A    between atoms: C_14  and  N_15
REMARK    5  A    between atoms: N_15  and  C_16
REMARK                            x       y       z     vdW  Elec       q    Type
REMARK                         _______ _______ _______ _____ _____    ______ ____
ROOT
ATOM      1  N   UNL     1      44.928   3.000  11.954  0.00  0.00    +0.000 N 
ATOM      2  C   UNL     1      45.756   3.977  12.537  0.00  0.00    +0.000 A 
ATOM      3  C   UNL     1      46.446   3.678  13.715  0.00  0.00    +0.000 A 
ATOM      4  N   UNL     1      47.212   4.570  14.382  0.00  0.00    +0.000 NA
ATOM      5  C   UNL     1      47.248   5.800  13.821  0.00  0.00    +0.000 A 
ATOM      6  C   UNL     1      46.603   6.132  12.626  0.00  0.00    +0.000 A 
ATOM      7  N   UNL     1      45.846   5.214  11.990  0.00  0.00    +0.000 NA
ATOM      8  H   UNL     1      45.469   2.161  11.751  0.00  0.00    +0.000 HD
ENDROOT
BRANCH   6   9
ATOM      9  N   UNL     1      46.695   7.452  12.118  0.00  0.00    +0.000 N 
ATOM     10  H   UNL     1      46.771   7.413  11.107  0.00  0.00    +0.000 HD
BRANCH   9  11
ATOM     11  C   UNL     1      45.767   8.479  12.502  0.00  0.00    +0.000 C 
ATOM     12  C   UNL     1      44.640   8.625  11.448  0.00  0.00    +0.000 C 
ATOM     13  C   UNL     1      44.696  10.141  11.717  0.00  0.00    +0.000 C 
ATOM     14  C   UNL     1      46.168   9.929  12.149  0.00  0.00    +0.000 C 
ENDBRANCH   9  11
ENDBRANCH   6   9
BRANCH   1  15
ATOM     15  C   UNL     1      44.216   3.489  10.781  0.00  0.00    +0.000 C 
BRANCH  15  19
ATOM     16  C   UNL     1      46.586   2.679   7.259  0.00  0.00    +0.000 A 
ATOM     17  C   UNL     1      46.205   3.993   7.556  0.00  0.00    +0.000 A 
ATOM     18  C   UNL     1      45.425   4.254   8.687  0.00  0.00    +0.000 A 
ATOM     19  C   UNL     1      45.018   3.208   9.530  0.00  0.00    +0.000 A 
ATOM     20  C   UNL     1      45.390   1.894   9.214  0.00  0.00    +0.000 A 
ATOM     21  C   UNL     1      46.165   1.630   8.084  0.00  0.00    +0.000 A 
BRANCH  16  23
ATOM     22  N   UNL     1      47.331   3.182   4.995  0.00  0.00    +0.000 N 
ATOM     23  C   UNL     1      47.416   2.346   6.073  0.00  0.00    +0.000 C 
ATOM     24  O   UNL     1      48.181   1.391   6.069  0.00  0.00    +0.000 OA
ATOM     25  H   UNL     1      47.988   3.007   4.246  0.00  0.00    +0.000 HD
ATOM     26  H   UNL     1      46.927   4.106   5.058  0.00  0.00    +0.000 HD
ENDBRANCH  16  23
ENDBRANCH  15  19
ENDBRANCH   1  15
TORSDOF 5
ENDMDL
MODEL 3
REMARK VINA RESULT:    -7.783      1.768      3.602
REMARK INTER + INTRA:         -10.506
REMARK INTER:                 -10.033
REMARK INTRA:                  -0.473
REMARK UNBOUND:                -0.448
REMARK  Name = 
REMARK  5 active torsions:
REMARK  status: ('A' for Active; 'I' for Inactive)
REMARK    1  A    between atoms: C_2  and  C_4
REMARK    2  A    between atoms: C_7  and  C_8
REMARK    3  A    between atoms: C_8  and  N_9
REMARK    4  A    between atoms: C_14  and  N_15
REMARK    5  A    between atoms: N_15  and  C_16
REMARK                            x       y       z     vdW  Elec       q    Type
REMARK                         _______ _______ _______ _____ _____    ______ ____
ROOT
ATOM      1  N   UNL     1      45.061   2.909  11.973  0.00  0.00    +0.000 N 
ATOM      2  C   UNL     1      45.873   3.851  12.632  0.00  0.00    +0.000 A 
ATOM      3  C   UNL     1      46.598   3.461  13.762  0.00  0.00    +0.000 A 
ATOM      4  N   UNL     1      47.352   4.308  14.497  0.00  0.00    +0.000 NA
ATOM      5  C   UNL     1      47.341   5.588  14.056  0.00  0.00    +0.000 A 
ATOM      6  C   UNL     1      46.660   6.012  12.911  0.00  0.00    +0.000 A 
ATOM      7  N   UNL     1      45.916   5.136  12.205  0.00  0.00    +0.000 NA
ATOM      8  H   UNL     1      45.621   2.110  11.681  0.00  0.00    +0.000 HD
ENDROOT
BRANCH   6   9
ATOM      9  N   UNL     1      46.703   7.377  12.531  0.00  0.00    +0.000 N 
ATOM     10  H   UNL     1      45.925   7.865  12.963  0.00  0.00    +0.000 HD
BRANCH   9  11
ATOM     11  C   UNL     1      47.901   8.160  12.649  0.00  0.00    +0.000 C 
ATOM     12  C   UNL     1      47.692   9.577  12.057  0.00  0.00    +0.000 C 
ATOM     13  C   UNL     1      49.143   9.489  11.546  0.00  0.00    +0.000 C 
ATOM     14  C   UNL     1      48.965   7.950  11.549  0.00  0.00    +0.000 C 
ENDBRANCH   9  11
ENDBRANCH   6   9
BRANCH   1  15
ATOM     15  C   UNL     1      44.309   3.485  10.868  0.00  0.00    +0.000 C 
BRANCH  15  19
ATOM     16  C   UNL     1      46.556   2.954   7.214  0.00  0.00    +0.000 A 
ATOM     17  C   UNL     1      46.197   4.241   7.630  0.00  0.00    +0.000 A 
ATOM     18  C   UNL     1      45.457   4.413   8.804  0.00  0.00    +0.000 A 
ATOM     19  C   UNL     1      45.068   3.304   9.572  0.00  0.00    +0.000 A 
ATOM     20  C   UNL     1      45.418   2.018   9.136  0.00  0.00    +0.000 A 
ATOM     21  C   UNL     1      46.153   1.843   7.963  0.00  0.00    +0.000 A 
BRANCH  16  23
ATOM     22  N   UNL     1      48.655   2.359   6.129  0.00  0.00    +0.000 N 
ATOM     23  C   UNL     1      47.344   2.714   5.977  0.00  0.00    +0.000 C 
ATOM     24  O   UNL     1      46.837   2.785   4.866  0.00  0.00    +0.000 OA
ATOM     25  H   UNL     1      49.141   2.087   5.285  0.00  0.00    +0.000 HD
ATOM     26  H   UNL     1      49.029   2.036   7.010  0.00  0.00    +0.000 HD
ENDBRANCH  16  23
ENDBRANCH  15  19
ENDBRANCH   1  15
TORSDOF 5
ENDMDL
MODEL 4
REMARK VINA RESULT:    -7.469      3.711      8.199
REMARK INTER + INTRA:         -10.099
REMARK INTER:                  -9.691
REMARK INTRA:                  -0.408
REMARK UNBOUND:                -0.448
REMARK  Name = 
REMARK  5 active torsions:
REMARK  status: ('A' for Active; 'I' for Inactive)
REMARK    1  A    between atoms: C_2  and  C_4
REMARK    2  A    between atoms: C_7  and  C_8
REMARK    3  A    between atoms: C_8  and  N_9
REMARK    4  A    between atoms: C_14  and  N_15
REMARK    5  A    between atoms: N_15  and  C_16
REMARK                            x       y       z     vdW  Elec       q    Type
REMARK                         _______ _______ _______ _____ _____    ______ ____
ROOT
ATOM      1  N   UNL     1      45.807   5.359  14.047  0.00  0.00    +0.000 N 
ATOM      2  C   UNL     1      44.951   4.906  13.025  0.00  0.00    +0.000 A 
ATOM      3  C   UNL     1      43.662   5.437  12.925  0.00  0.00    +0.000 A 
ATOM      4  N   UNL     1      42.748   5.019  12.020  0.00  0.00    +0.000 NA
ATOM      5  C   UNL     1      43.180   4.021  11.215  0.00  0.00    +0.000 A 
ATOM      6  C   UNL     1      44.471   3.487  11.257  0.00  0.00    +0.000 A 
ATOM      7  N   UNL     1      45.354   3.930  12.176  0.00  0.00    +0.000 NA
ATOM      8  H   UNL     1      45.928   6.367  13.978  0.00  0.00    +0.000 HD
ENDROOT
BRANCH   6   9
ATOM      9  N   UNL     1      44.829   2.438  10.375  0.00  0.00    +0.000 N 
ATOM     10  H   UNL     1      44.307   1.604  10.624  0.00  0.00    +0.000 HD
BRANCH   9  11
ATOM     11  C   UNL     1      44.826   2.611   8.949  0.00  0.00    +0.000 C 
ATOM     12  C   UNL     1      46.039   1.892   8.305  0.00  0.00    +0.000 C 
ATOM     13  C   UNL     1      46.115   3.074   7.320  0.00  0.00    +0.000 C 
ATOM     14  C   UNL     1      45.436   3.929   8.420  0.00  0.00    +0.000 C 
ENDBRANCH   9  11
ENDBRANCH   6   9
BRANCH   1  15
ATOM     15  C   UNL     1      47.081   4.654  14.070  0.00  0.00    +0.000 C 
BRANCH  15  19
ATOM     16  C   UNL     1      48.584   4.607  18.122  0.00  0.00    +0.000 A 
ATOM     17  C   UNL     1      48.854   5.702  17.292  0.00  0.00    +0.000 A 
ATOM     18  C   UNL     1      48.381   5.711  15.975  0.00  0.00    +0.000 A 
ATOM     19  C   UNL     1      47.637   4.629  15.476  0.00  0.00    +0.000 A 
ATOM     20  C   UNL     1      47.388   3.531  16.311  0.00  0.00    +0.000 A 
ATOM     21  C   UNL     1      47.861   3.518  17.624  0.00  0.00    +0.000 A 
BRANCH  16  23
ATOM     22  N   UNL     1      48.414   3.686  20.371  0.00  0.00    +0.000 N 
ATOM     23  C   UNL     1      49.059   4.547  19.528  0.00  0.00    +0.000 C 
ATOM     24  O   UNL     1      50.018   5.204  19.914  0.00  0.00    +0.000 OA
ATOM     25  H   UNL     1      48.825   3.572  21.288  0.00  0.00    +0.000 HD
ATOM     26  H   UNL     1      47.811   2.950  20.033  0.00  0.00    +0.000 HD
ENDBRANCH  16  23
ENDBRANCH  15  19
ENDBRANCH   1  15
TORSDOF 5
ENDMDL
MODEL 5
REMARK VINA RESULT:    -7.177      2.631      5.288
REMARK INTER + INTRA:          -9.722
REMARK INTER:                  -9.267
REMARK INTRA:                  -0.455
REMARK UNBOUND:                -0.448
REMARK  Name = 
REMARK  5 active torsions:
REMARK  status: ('A' for Active; 'I' for Inactive)
REMARK    1  A    between atoms: C_2  and  C_4
REMARK    2  A    between atoms: C_7  and  C_8
REMARK    3  A    between atoms: C_8  and  N_9
REMARK    4  A    between atoms: C_14  and  N_15
REMARK    5  A    between atoms: N_15  and  C_16
REMARK                            x       y       z     vdW  Elec       q    Type
REMARK                         _______ _______ _______ _____ _____    ______ ____
ROOT
ATOM      1  N   UNL     1      45.006   5.013  11.796  0.00  0.00    +0.000 N 
ATOM      2  C   UNL     1      45.097   6.411  11.928  0.00  0.00    +0.000 A 
ATOM      3  C   UNL     1      45.827   6.954  12.990  0.00  0.00    +0.000 A 
ATOM      4  N   UNL     1      45.918   8.281  13.235  0.00  0.00    +0.000 NA
ATOM      5  C   UNL     1      45.224   9.055  12.369  0.00  0.00    +0.000 A 
ATOM      6  C   UNL     1      44.513   8.556  11.274  0.00  0.00    +0.000 A 
ATOM      7  N   UNL     1      44.445   7.225  11.063  0.00  0.00    +0.000 NA
ATOM      8  H   UNL     1      45.938   4.609  11.727  0.00  0.00    +0.000 HD
ENDROOT
BRANCH   6   9
ATOM      9  N   UNL     1      43.812   9.447  10.424  0.00  0.00    +0.000 N 
ATOM     10  H   UNL     1      43.693   9.012   9.515  0.00  0.00    +0.000 HD
BRANCH   9  11
ATOM     11  C   UNL     1      42.588  10.079  10.830  0.00  0.00    +0.000 C 
ATOM     12  C   UNL     1      41.865  10.711   9.614  0.00  0.00    +0.000 C 
ATOM     13  C   UNL     1      41.456  11.860  10.556  0.00  0.00    +0.000 C 
ATOM     14  C   UNL     1      42.714  11.513  11.392  0.00  0.00    +0.000 C 
ENDBRANCH   9  11
ENDBRANCH   6   9
BRANCH   1  15
ATOM     15  C   UNL     1      44.148   4.604  10.694  0.00  0.00    +0.000 C 
BRANCH  15  19
ATOM     16  C   UNL     1      46.439   2.784   7.512  0.00  0.00    +0.000 A 
ATOM     17  C   UNL     1      45.726   1.977   8.407  0.00  0.00    +0.000 A 
ATOM     18  C   UNL     1      44.996   2.565   9.446  0.00  0.00    +0.000 A 
ATOM     19  C   UNL     1      44.973   3.960   9.602  0.00  0.00    +0.000 A 
ATOM     20  C   UNL     1      45.704   4.757   8.711  0.00  0.00    +0.000 A 
ATOM     21  C   UNL     1      46.436   4.174   7.675  0.00  0.00    +0.000 A 
BRANCH  16  23
ATOM     22  N   UNL     1      47.194   2.882   5.199  0.00  0.00    +0.000 N 
ATOM     23  C   UNL     1      47.227   2.213   6.390  0.00  0.00    +0.000 C 
ATOM     24  O   UNL     1      47.916   1.211   6.530  0.00  0.00    +0.000 OA
ATOM     25  H   UNL     1      47.827   2.546   4.484  0.00  0.00    +0.000 HD
ATOM     26  H   UNL     1      46.863   3.833   5.121  0.00  0.00    +0.000 HD
ENDBRANCH  16  23
ENDBRANCH  15  19
ENDBRANCH   1  15
TORSDOF 5
ENDMDL
MODEL 6
REMARK VINA RESULT:    -6.898      3.587      6.970
REMARK INTER + INTRA:          -9.362
REMARK INTER:                  -8.790
REMARK INTRA:                  -0.572
REMARK UNBOUND:                -0.448
REMARK  Name = 
REMARK  5 active torsions:
REMARK  status: ('A' for Active; 'I' for Inactive)
REMARK    1  A    between atoms: C_2  and  C_4
REMARK    2  A    between atoms: C_7  and  C_8
REMARK    3  A    between atoms: C_8  and  N_9
REMARK    4  A    between atoms: C_14  and  N_15
REMARK    5  A    between atoms: N_15  and  C_16
REMARK                            x       y       z     vdW  Elec       q    Type
REMARK                         _______ _______ _______ _____ _____    ______ ____
ROOT
ATOM      1  N   UNL     1      45.790   6.134  13.499  0.00  0.00    +0.000 N 
ATOM      2  C   UNL     1      44.935   5.314  12.739  0.00  0.00    +0.000 A 
ATOM      3  C   UNL     1      43.552   5.415  12.915  0.00  0.00    +0.000 A 
ATOM      4  N   UNL     1      42.656   4.626  12.279  0.00  0.00    +0.000 NA
ATOM      5  C   UNL     1      43.212   3.707  11.456  0.00  0.00    +0.000 A 
ATOM      6  C   UNL     1      44.585   3.596  11.223  0.00  0.00    +0.000 A 
ATOM      7  N   UNL     1      45.448   4.401  11.879  0.00  0.00    +0.000 NA
ATOM      8  H   UNL     1      45.561   7.114  13.343  0.00  0.00    +0.000 HD
ENDROOT
BRANCH   6   9
ATOM      9  N   UNL     1      45.073   2.597  10.346  0.00  0.00    +0.000 N 
ATOM     10  H   UNL     1      44.732   1.692  10.653  0.00  0.00    +0.000 HD
BRANCH   9  11
ATOM     11  C   UNL     1      44.947   2.711   8.920  0.00  0.00    +0.000 C 
ATOM     12  C   UNL     1      46.117   1.988   8.204  0.00  0.00    +0.000 C 
ATOM     13  C   UNL     1      46.084   3.130   7.171  0.00  0.00    +0.000 C 
ATOM     14  C   UNL     1      45.482   4.016   8.289  0.00  0.00    +0.000 C 
ENDBRANCH   9  11
ENDBRANCH   6   9
BRANCH   1  15
ATOM     15  C   UNL     1      47.199   5.855  13.262  0.00  0.00    +0.000 C 
BRANCH  15  19
ATOM     16  C   UNL     1      49.125   9.353  11.608  0.00  0.00    +0.000 A 
ATOM     17  C   UNL     1      49.842   8.157  11.736  0.00  0.00    +0.000 A 
ATOM     18  C   UNL     1      49.224   7.029  12.285  0.00  0.00    +0.000 A 
ATOM     19  C   UNL     1      47.888   7.084  12.712  0.00  0.00    +0.000 A 
ATOM     20  C   UNL     1      47.184   8.291  12.595  0.00  0.00    +0.000 A 
ATOM     21  C   UNL     1      47.799   9.419  12.051  0.00  0.00    +0.000 A 
BRANCH  16  23
ATOM     22  N   UNL     1      51.021  10.864  11.377  0.00  0.00    +0.000 N 
ATOM     23  C   UNL     1      49.731  10.579  11.029  0.00  0.00    +0.000 C 
ATOM     24  O   UNL     1      49.123  11.287  10.236  0.00  0.00    +0.000 OA
ATOM     25  H   UNL     1      51.454  11.634  10.883  0.00  0.00    +0.000 HD
ATOM     26  H   UNL     1      51.630  10.180  11.803  0.00  0.00    +0.000 HD
ENDBRANCH  16  23
ENDBRANCH  15  19
ENDBRANCH   1  15
TORSDOF 5
ENDMDL
MODEL 7
REMARK VINA RESULT:    -6.869      3.877      7.106
REMARK INTER + INTRA:          -9.324
REMARK INTER:                  -8.831
REMARK INTRA:                  -0.493
REMARK UNBOUND:                -0.448
REMARK  Name = 
REMARK  5 active torsions:
REMARK  status: ('A' for Active; 'I' for Inactive)
REMARK    1  A    between atoms: C_2  and  C_4
REMARK    2  A    between atoms: C_7  and  C_8
REMARK    3  A    between atoms: C_8  and  N_9
REMARK    4  A    between atoms: C_14  and  N_15
REMARK    5  A    between atoms: N_15  and  C_16
REMARK                            x       y       z     vdW  Elec       q    Type
REMARK                         _______ _______ _______ _____ _____    ______ ____
ROOT
ATOM      1  N   UNL     1      43.798   6.043  12.199  0.00  0.00    +0.000 N 
ATOM      2  C   UNL     1      43.785   4.835  11.477  0.00  0.00    +0.000 A 
ATOM      3  C   UNL     1      43.301   3.675  12.088  0.00  0.00    +0.000 A 
ATOM      4  N   UNL     1      43.310   2.458  11.498  0.00  0.00    +0.000 NA
ATOM      5  C   UNL     1      43.844   2.448  10.255  0.00  0.00    +0.000 A 
ATOM      6  C   UNL     1      44.305   3.589   9.593  0.00  0.00    +0.000 A 
ATOM      7  N   UNL     1      44.282   4.786  10.217  0.00  0.00    +0.000 NA
ATOM      8  H   UNL     1      42.857   6.269  12.516  0.00  0.00    +0.000 HD
ENDROOT
BRANCH   6   9
ATOM      9  N   UNL     1      44.855   3.476   8.292  0.00  0.00    +0.000 N 
ATOM     10  H   UNL     1      44.609   4.302   7.756  0.00  0.00    +0.000 HD
BRANCH   9  11
ATOM     11  C   UNL     1      46.235   3.144   8.078  0.00  0.00    +0.000 C 
ATOM     12  C   UNL     1      46.642   3.404   6.605  0.00  0.00    +0.000 C 
ATOM     13  C   UNL     1      47.519   2.142   6.708  0.00  0.00    +0.000 C 
ATOM     14  C   UNL     1      46.546   1.654   7.810  0.00  0.00    +0.000 C 
ENDBRANCH   9  11
ENDBRANCH   6   9
BRANCH   1  15
ATOM     15  C   UNL     1      44.404   7.139  11.458  0.00  0.00    +0.000 C 
BRANCH  15  19
ATOM     16  C   UNL     1      48.256   8.044  13.199  0.00  0.00    +0.000 A 
ATOM     17  C   UNL     1      47.142   8.825  13.527  0.00  0.00    +0.000 A 
ATOM     18  C   UNL     1      45.898   8.543  12.952  0.00  0.00    +0.000 A 
ATOM     19  C   UNL     1      45.755   7.481  12.045  0.00  0.00    +0.000 A 
ATOM     20  C   UNL     1      46.881   6.715  11.711  0.00  0.00    +0.000 A 
ATOM     21  C   UNL     1      48.124   6.996  12.280  0.00  0.00    +0.000 A 
BRANCH  16  23
ATOM     22  N   UNL     1      50.200   7.263  14.441  0.00  0.00    +0.000 N 
ATOM     23  C   UNL     1      49.598   8.297  13.782  0.00  0.00    +0.000 C 
ATOM     24  O   UNL     1      50.169   9.372  13.644  0.00  0.00    +0.000 OA
ATOM     25  H   UNL     1      51.159   7.417  14.727  0.00  0.00    +0.000 HD
ATOM     26  H   UNL     1      49.888   6.307  14.346  0.00  0.00    +0.000 HD
ENDBRANCH  16  23
ENDBRANCH  15  19
ENDBRANCH   1  15
TORSDOF 5
ENDMDL
MODEL 8
REMARK VINA RESULT:    -6.335      3.897      5.115
REMARK INTER + INTRA:          -8.635
REMARK INTER:                  -8.059
REMARK INTRA:                  -0.575
REMARK UNBOUND:                -0.448
REMARK  Name = 
REMARK  5 active torsions:
REMARK  status: ('A' for Active; 'I' for Inactive)
REMARK    1  A    between atoms: C_2  and  C_4
REMARK    2  A    between atoms: C_7  and  C_8
REMARK    3  A    between atoms: C_8  and  N_9
REMARK    4  A    between atoms: C_14  and  N_15
REMARK    5  A    between atoms: N_15  and  C_16
REMARK                            x       y       z     vdW  Elec       q    Type
REMARK                         _______ _______ _______ _____ _____    ______ ____
ROOT
ATOM      1  N   UNL     1      48.498   7.762  13.727  0.00  0.00    +0.000 N 
ATOM      2  C   UNL     1      48.883   7.556  15.065  0.00  0.00    +0.000 A 
ATOM      3  C   UNL     1      49.027   8.656  15.915  0.00  0.00    +0.000 A 
ATOM      4  N   UNL     1      49.453   8.563  17.195  0.00  0.00    +0.000 NA
ATOM      5  C   UNL     1      49.749   7.304  17.592  0.00  0.00    +0.000 A 
ATOM      6  C   UNL     1      49.584   6.173  16.787  0.00  0.00    +0.000 A 
ATOM      7  N   UNL     1      49.158   6.307  15.514  0.00  0.00    +0.000 NA
ATOM      8  H   UNL     1      47.609   8.256  13.693  0.00  0.00    +0.000 HD
ENDROOT
BRANCH   6   9
ATOM      9  N   UNL     1      49.927   4.893  17.291  0.00  0.00    +0.000 N 
ATOM     10  H   UNL     1      50.751   4.978  17.877  0.00  0.00    +0.000 HD
BRANCH   9  11
ATOM     11  C   UNL     1      48.958   4.043  17.924  0.00  0.00    +0.000 C 
ATOM     12  C   UNL     1      48.715   2.764  17.082  0.00  0.00    +0.000 C 
ATOM     13  C   UNL     1      47.235   2.868  17.499  0.00  0.00    +0.000 C 
ATOM     14  C   UNL     1      47.474   4.389  17.669  0.00  0.00    +0.000 C 
ENDBRANCH   9  11
ENDBRANCH   6   9
BRANCH   1  15
ATOM     15  C   UNL     1      48.471   6.531  12.950  0.00  0.00    +0.000 C 
BRANCH  15  19
ATOM     16  C   UNL     1      44.423   5.375  11.973  0.00  0.00    +0.000 A 
ATOM     17  C   UNL     1      45.140   6.204  11.102  0.00  0.00    +0.000 A 
ATOM     18  C   UNL     1      46.445   6.591  11.425  0.00  0.00    +0.000 A 
ATOM     19  C   UNL     1      47.044   6.156  12.618  0.00  0.00    +0.000 A 
ATOM     20  C   UNL     1      46.311   5.340  13.491  0.00  0.00    +0.000 A 
ATOM     21  C   UNL     1      45.007   4.955  13.173  0.00  0.00    +0.000 A 
BRANCH  16  23
ATOM     22  N   UNL     1      42.047   5.869  11.767  0.00  0.00    +0.000 N 
ATOM     23  C   UNL     1      43.036   4.931  11.678  0.00  0.00    +0.000 C 
ATOM     24  O   UNL     1      42.787   3.786  11.324  0.00  0.00    +0.000 OA
ATOM     25  H   UNL     1      41.131   5.579  11.449  0.00  0.00    +0.000 HD
ATOM     26  H   UNL     1      42.242   6.860  11.791  0.00  0.00    +0.000 HD
ENDBRANCH  16  23
ENDBRANCH  15  19
ENDBRANCH   1  15
TORSDOF 5
ENDMDL
MODEL 9
REMARK VINA RESULT:    -6.292      3.932      7.942
REMARK INTER + INTRA:          -8.579
REMARK INTER:                  -8.108
REMARK INTRA:                  -0.471
REMARK UNBOUND:                -0.448
REMARK  Name = 
REMARK  5 active torsions:
REMARK  status: ('A' for Active; 'I' for Inactive)
REMARK    1  A    between atoms: C_2  and  C_4
REMARK    2  A    between atoms: C_7  and  C_8
REMARK    3  A    between atoms: C_8  and  N_9
REMARK    4  A    between atoms: C_14  and  N_15
REMARK    5  A    between atoms: N_15  and  C_16
REMARK                            x       y       z     vdW  Elec       q    Type
REMARK                         _______ _______ _______ _____ _____    ______ ____
ROOT
ATOM      1  N   UNL     1      48.682   6.427  16.273  0.00  0.00    +0.000 N 
ATOM      2  C   UNL     1      48.157   6.241  14.980  0.00  0.00    +0.000 A 
ATOM      3  C   UNL     1      48.383   7.213  14.001  0.00  0.00    +0.000 A 
ATOM      4  N   UNL     1      47.866   7.154  12.753  0.00  0.00    +0.000 NA
ATOM      5  C   UNL     1      47.089   6.070  12.525  0.00  0.00    +0.000 A 
ATOM      6  C   UNL     1      46.867   5.057  13.462  0.00  0.00    +0.000 A 
ATOM      7  N   UNL     1      47.399   5.154  14.698  0.00  0.00    +0.000 NA
ATOM      8  H   UNL     1      49.692   6.542  16.225  0.00  0.00    +0.000 HD
ENDROOT
BRANCH   6   9
ATOM      9  N   UNL     1      46.032   3.962  13.131  0.00  0.00    +0.000 N 
ATOM     10  H   UNL     1      45.729   3.506  13.986  0.00  0.00    +0.000 HD
BRANCH   9  11
ATOM     11  C   UNL     1      44.923   4.098  12.229  0.00  0.00    +0.000 C 
ATOM     12  C   UNL     1      43.649   3.442  12.819  0.00  0.00    +0.000 C 
ATOM     13  C   UNL     1      43.311   2.996  11.384  0.00  0.00    +0.000 C 
ATOM     14  C   UNL     1      44.832   3.052  11.095  0.00  0.00    +0.000 C 
ENDBRANCH   9  11
ENDBRANCH   6   9
BRANCH   1  15
ATOM     15  C   UNL     1      48.294   5.372  17.198  0.00  0.00    +0.000 C 
BRANCH  15  19
ATOM     16  C   UNL     1      51.414   2.408  17.595  0.00  0.00    +0.000 A 
ATOM     17  C   UNL     1      51.705   3.759  17.814  0.00  0.00    +0.000 A 
ATOM     18  C   UNL     1      50.699   4.721  17.671  0.00  0.00    +0.000 A 
ATOM     19  C   UNL     1      49.397   4.343  17.307  0.00  0.00    +0.000 A 
ATOM     20  C   UNL     1      49.121   2.989  17.074  0.00  0.00    +0.000 A 
ATOM     21  C   UNL     1      50.123   2.028  17.212  0.00  0.00    +0.000 A 
BRANCH  16  23
ATOM     22  N   UNL     1      52.028   0.131  18.206  0.00  0.00    +0.000 N 
ATOM     23  C   UNL     1      52.442   1.345  17.737  0.00  0.00    +0.000 C 
ATOM     24  O   UNL     1      53.607   1.527  17.406  0.00  0.00    +0.000 OA
ATOM     25  H   UNL     1      52.715  -0.611  18.184  0.00  0.00    +0.000 HD
ATOM     26  H   UNL     1      51.053  -0.134  18.234  0.00  0.00    +0.000 HD
ENDBRANCH  16  23
ENDBRANCH  15  19
ENDBRANCH   1  15
TORSDOF 5
ENDMDL
