MODEL 1
REMARK VINA RESULT:    -7.947      0.000      0.000
REMARK INTER + INTRA:         -11.342
REMARK INTER:                 -10.270
REMARK INTRA:                  -1.072
REMARK UNBOUND:                -1.072
REMARK  Name = 
REMARK  5 active torsions:
REMARK  status: ('A' for Active; 'I' for Inactive)
REMARK    1  A    between atoms: N_2  and  C_4
REMARK    2  A    between atoms: C_8  and  O_9
REMARK    3  A    between atoms: O_9  and  C_10
REMARK    4  A    between atoms: C_10  and  C_11
REMARK    5  A    between atoms: C_15  and  C_16
REMARK                            x       y       z     vdW  Elec       q    Type
REMARK                         _______ _______ _______ _____ _____    ______ ____
ROOT
ATOM      1  C   UNL     1      43.913   4.478  11.275  0.00  0.00    +0.000 C 
ATOM      2  C   UNL     1      42.519   4.746  11.834  0.00  0.00    +0.000 C 
ATOM      3  C   UNL     1      43.177   5.784  10.992  0.00  0.00    +0.000 C 
ENDROOT
BRANCH   1   4
ATOM      4  C   UNL     1      45.136   4.604  12.160  0.00  0.00    +0.000 A 
ATOM      5  C   UNL     1      45.560   3.522  12.946  0.00  0.00    +0.000 A 
ATOM      6  C   UNL     1      46.773   3.554  13.623  0.00  0.00    +0.000 A 
ATOM      7  C   UNL     1      47.595   4.671  13.518  0.00  0.00    +0.000 A 
ATOM      8  C   UNL     1      47.196   5.799  12.790  0.00  0.00    +0.000 A 
ATOM      9  C   UNL     1      45.946   5.752  12.150  0.00  0.00    +0.000 A 
BRANCH   8  10
ATOM     10  C   UNL     1      48.088   7.013  12.546  0.00  0.00    +0.000 C 
ATOM     11  C   UNL     1      49.087   7.347  13.667  0.00  0.00    +0.000 C 
ATOM     12  C   UNL     1      48.424   8.071  14.840  0.00  0.00    +0.000 C 
ATOM     13  N   UNL     1      47.724   9.280  14.413  0.00  0.00    +0.000 NA
ATOM     14  C   UNL     1      46.708   8.973  13.404  0.00  0.00    +0.000 C 
ATOM     15  C   UNL     1      47.309   8.291  12.179  0.00  0.00    +0.000 C 
ATOM     16  H   UNL     1      48.400   9.935  14.019  0.00  0.00    +0.000 HD
ENDBRANCH   8  10
ENDBRANCH   1   4
BRANCH   1  17
ATOM     17  O   UNL     1      43.937   3.372  10.325  0.00  0.00    +0.000 OA
BRANCH  17  22
ATOM     18  C   UNL     1      46.390   2.170   7.936  0.00  0.00    +0.000 A 
ATOM     19  C   UNL     1      46.756   3.357   7.282  0.00  0.00    +0.000 A 
ATOM     20  C   UNL     1      46.244   4.575   7.728  0.00  0.00    +0.000 A 
ATOM     21  C   UNL     1      45.341   4.602   8.786  0.00  0.00    +0.000 A 
ATOM     22  C   UNL     1      44.923   3.408   9.376  0.00  0.00    +0.000 A 
ATOM     23  C   UNL     1      45.479   2.190   8.994  0.00  0.00    +0.000 A 
BRANCH  18  25
ATOM     24  O   UNL     1      46.527  -0.142   8.022  0.00  0.00    +0.000 OA
ATOM     25  N   UNL     1      46.923   0.891   7.466  0.00  0.00    +0.000 N 
ATOM     26  O   UNL     1      47.746   0.914   6.538  0.00  0.00    +0.000 OA
ENDBRANCH  18  25
ENDBRANCH  17  22
ENDBRANCH   1  17
TORSDOF 5
ENDMDL
MODEL 2
REMARK VINA RESULT:    -6.701      4.061      7.729
REMARK INTER + INTRA:          -9.731
REMARK INTER:                  -8.712
REMARK INTRA:                  -1.019
REMARK UNBOUND:                -1.072
REMARK  Name = 
REMARK  5 active torsions:
REMARK  status: ('A' for Active; 'I' for Inactive)
REMARK    1  A    between atoms: N_2  and  C_4
REMARK    2  A    between atoms: C_8  and  O_9
REMARK    3  A    between atoms: O_9  and  C_10
REMARK    4  A    between atoms: C_10  and  C_11
REMARK    5  A    between atoms: C_15  and  C_16
REMARK                            x       y       z     vdW  Elec       q    Type
REMARK                         _______ _______ _______ _____ _____    ______ ____
ROOT
ATOM      1  C   UNL     1      49.031   7.655  13.818  0.00  0.00    +0.000 C 
ATOM      2  C   UNL     1      50.076   8.246  12.875  0.00  0.00    +0.000 C 
ATOM      3  C   UNL     1      49.467   9.113  13.922  0.00  0.00    +0.000 C 
ENDROOT
BRANCH   1   4
ATOM      4  C   UNL     1      47.606   7.438  13.352  0.00  0.00    +0.000 A 
ATOM      5  C   UNL     1      46.690   8.500  13.344  0.00  0.00    +0.000 A 
ATOM      6  C   UNL     1      45.438   8.369  12.755  0.00  0.00    +0.000 A 
ATOM      7  C   UNL     1      45.080   7.167  12.153  0.00  0.00    +0.000 A 
ATOM      8  C   UNL     1      45.934   6.059  12.180  0.00  0.00    +0.000 A 
ATOM      9  C   UNL     1      47.178   6.211  12.818  0.00  0.00    +0.000 A 
BRANCH   8  10
ATOM     10  C   UNL     1      45.652   4.748  11.451  0.00  0.00    +0.000 C 
ATOM     11  C   UNL     1      44.691   4.841  10.254  0.00  0.00    +0.000 C 
ATOM     12  C   UNL     1      43.226   4.915  10.689  0.00  0.00    +0.000 C 
ATOM     13  N   UNL     1      42.852   3.793  11.548  0.00  0.00    +0.000 NA
ATOM     14  C   UNL     1      43.703   3.735  12.738  0.00  0.00    +0.000 C 
ATOM     15  C   UNL     1      45.180   3.612  12.379  0.00  0.00    +0.000 C 
ATOM     16  H   UNL     1      42.951   2.924  11.023  0.00  0.00    +0.000 HD
ENDBRANCH   8  10
ENDBRANCH   1   4
BRANCH   1  17
ATOM     17  O   UNL     1      49.575   6.612  14.680  0.00  0.00    +0.000 OA
BRANCH  17  22
ATOM     18  C   UNL     1      47.987   4.964  17.496  0.00  0.00    +0.000 A 
ATOM     19  C   UNL     1      47.961   5.993  18.451  0.00  0.00    +0.000 A 
ATOM     20  C   UNL     1      48.389   7.272  18.097  0.00  0.00    +0.000 A 
ATOM     21  C   UNL     1      48.880   7.509  16.817  0.00  0.00    +0.000 A 
ATOM     22  C   UNL     1      48.975   6.459  15.901  0.00  0.00    +0.000 A 
ATOM     23  C   UNL     1      48.484   5.194  16.212  0.00  0.00    +0.000 A 
BRANCH  18  25
ATOM     24  O   UNL     1      46.527   3.173  17.319  0.00  0.00    +0.000 OA
ATOM     25  N   UNL     1      47.542   3.621  17.868  0.00  0.00    +0.000 N 
ATOM     26  O   UNL     1      48.207   3.006  18.716  0.00  0.00    +0.000 OA
ENDBRANCH  18  25
ENDBRANCH  17  22
ENDBRANCH   1  17
TORSDOF 5
ENDMDL
MODEL 3
REMARK VINA RESULT:    -6.686      3.772      7.254
REMARK INTER + INTRA:          -9.712
REMARK INTER:                  -8.923
REMARK INTRA:                  -0.790
REMARK UNBOUND:                -1.072
REMARK  Name = 
REMARK  5 active torsions:
REMARK  status: ('A' for Active; 'I' for Inactive)
REMARK    1  A    between atoms: N_2  and  C_4
REMARK    2  A    between atoms: C_8  and  O_9
REMARK    3  A    between atoms: O_9  and  C_10
REMARK    4  A    between atoms: C_10  and  C_11
REMARK    5  A    between atoms: C_15  and  C_16
REMARK                            x       y       z     vdW  Elec       q    Type
REMARK                         _______ _______ _______ _____ _____    ______ ____
ROOT
ATOM      1  C   UNL     1      48.265   7.889  12.582  0.00  0.00    +0.000 C 
ATOM      2  C   UNL     1      49.781   7.843  12.751  0.00  0.00    +0.000 C 
ATOM      3  C   UNL     1      49.203   7.919  11.380  0.00  0.00    +0.000 C 
ENDROOT
BRANCH   1   4
ATOM      4  C   UNL     1      47.434   6.631  12.724  0.00  0.00    +0.000 A 
ATOM      5  C   UNL     1      47.500   5.862  13.895  0.00  0.00    +0.000 A 
ATOM      6  C   UNL     1      46.619   4.810  14.119  0.00  0.00    +0.000 A 
ATOM      7  C   UNL     1      45.644   4.512  13.172  0.00  0.00    +0.000 A 
ATOM      8  C   UNL     1      45.569   5.212  11.962  0.00  0.00    +0.000 A 
ATOM      9  C   UNL     1      46.500   6.244  11.748  0.00  0.00    +0.000 A 
BRANCH   8  10
ATOM     10  C   UNL     1      44.465   5.009  10.928  0.00  0.00    +0.000 C 
ATOM     11  C   UNL     1      43.193   4.309  11.436  0.00  0.00    +0.000 C 
ATOM     12  C   UNL     1      43.368   2.793  11.546  0.00  0.00    +0.000 C 
ATOM     13  N   UNL     1      43.799   2.198  10.284  0.00  0.00    +0.000 NA
ATOM     14  C   UNL     1      45.055   2.793   9.823  0.00  0.00    +0.000 C 
ATOM     15  C   UNL     1      44.940   4.303   9.644  0.00  0.00    +0.000 C 
ATOM     16  H   UNL     1      43.078   2.352   9.579  0.00  0.00    +0.000 HD
ENDBRANCH   8  10
ENDBRANCH   1   4
BRANCH   1  17
ATOM     17  O   UNL     1      47.671   9.098  13.142  0.00  0.00    +0.000 OA
BRANCH  17  22
ATOM     18  C   UNL     1      44.868  10.595  11.391  0.00  0.00    +0.000 A 
ATOM     19  C   UNL     1      45.491  11.647  10.702  0.00  0.00    +0.000 A 
ATOM     20  C   UNL     1      46.878  11.779  10.755  0.00  0.00    +0.000 A 
ATOM     21  C   UNL     1      47.630  10.896  11.524  0.00  0.00    +0.000 A 
ATOM     22  C   UNL     1      46.991   9.902  12.268  0.00  0.00    +0.000 A 
ATOM     23  C   UNL     1      45.616   9.709  12.169  0.00  0.00    +0.000 A 
BRANCH  18  25
ATOM     24  O   UNL     1      42.939   9.539  10.659  0.00  0.00    +0.000 OA
ATOM     25  N   UNL     1      43.412  10.458  11.339  0.00  0.00    +0.000 N 
ATOM     26  O   UNL     1      42.732  11.275  11.981  0.00  0.00    +0.000 OA
ENDBRANCH  18  25
ENDBRANCH  17  22
ENDBRANCH   1  17
TORSDOF 5
ENDMDL
MODEL 4
REMARK VINA RESULT:    -6.536      2.911      5.393
REMARK INTER + INTRA:          -9.519
REMARK INTER:                  -8.291
REMARK INTRA:                  -1.228
REMARK UNBOUND:                -1.072
REMARK  Name = 
REMARK  5 active torsions:
REMARK  status: ('A' for Active; 'I' for Inactive)
REMARK    1  A    between atoms: N_2  and  C_4
REMARK    2  A    between atoms: C_8  and  O_9
REMARK    3  A    between atoms: O_9  and  C_10
REMARK    4  A    between atoms: C_10  and  C_11
REMARK    5  A    between atoms: C_15  and  C_16
REMARK                            x       y       z     vdW  Elec       q    Type
REMARK                         _______ _______ _______ _____ _____    ______ ____
ROOT
ATOM      1  C   UNL     1      48.124   7.760  12.843  0.00  0.00    +0.000 C 
ATOM      2  C   UNL     1      49.033   8.367  11.777  0.00  0.00    +0.000 C 
ATOM      3  C   UNL     1      49.147   6.915  12.089  0.00  0.00    +0.000 C 
ENDROOT
BRANCH   1   4
ATOM      4  C   UNL     1      48.415   7.968  14.314  0.00  0.00    +0.000 A 
ATOM      5  C   UNL     1      48.181   9.213  14.918  0.00  0.00    +0.000 A 
ATOM      6  C   UNL     1      48.270   9.376  16.295  0.00  0.00    +0.000 A 
ATOM      7  C   UNL     1      48.587   8.287  17.101  0.00  0.00    +0.000 A 
ATOM      8  C   UNL     1      48.884   7.036  16.547  0.00  0.00    +0.000 A 
ATOM      9  C   UNL     1      48.825   6.913  15.147  0.00  0.00    +0.000 A 
BRANCH   8  10
ATOM     10  C   UNL     1      49.136   5.778  17.372  0.00  0.00    +0.000 C 
ATOM     11  C   UNL     1      48.709   4.452  16.720  0.00  0.00    +0.000 C 
ATOM     12  C   UNL     1      47.201   4.214  16.818  0.00  0.00    +0.000 C 
ATOM     13  N   UNL     1      46.726   4.271  18.198  0.00  0.00    +0.000 NA
ATOM     14  C   UNL     1      47.049   5.560  18.814  0.00  0.00    +0.000 C 
ATOM     15  C   UNL     1      48.548   5.842  18.795  0.00  0.00    +0.000 C 
ATOM     16  H   UNL     1      47.168   3.524  18.734  0.00  0.00    +0.000 HD
ENDBRANCH   8  10
ENDBRANCH   1   4
BRANCH   1  17
ATOM     17  O   UNL     1      46.714   7.798  12.471  0.00  0.00    +0.000 OA
BRANCH  17  22
ATOM     18  C   UNL     1      45.334   4.943  10.708  0.00  0.00    +0.000 A 
ATOM     19  C   UNL     1      45.093   4.047  11.761  0.00  0.00    +0.000 A 
ATOM     20  C   UNL     1      45.304   4.458  13.076  0.00  0.00    +0.000 A 
ATOM     21  C   UNL     1      45.793   5.735  13.334  0.00  0.00    +0.000 A 
ATOM     22  C   UNL     1      46.105   6.589  12.275  0.00  0.00    +0.000 A 
ATOM     23  C   UNL     1      45.831   6.223  10.960  0.00  0.00    +0.000 A 
BRANCH  18  25
ATOM     24  O   UNL     1      44.237   3.668   9.113  0.00  0.00    +0.000 OA
ATOM     25  N   UNL     1      45.117   4.512   9.326  0.00  0.00    +0.000 N 
ATOM     26  O   UNL     1      45.831   5.015   8.445  0.00  0.00    +0.000 OA
ENDBRANCH  18  25
ENDBRANCH  17  22
ENDBRANCH   1  17
TORSDOF 5
ENDMDL
MODEL 5
REMARK VINA RESULT:    -6.398      2.028      2.939
REMARK INTER + INTRA:          -9.340
REMARK INTER:                  -9.111
REMARK INTRA:                  -0.229
REMARK UNBOUND:                -1.072
REMARK  Name = 
REMARK  5 active torsions:
REMARK  status: ('A' for Active; 'I' for Inactive)
REMARK    1  A    between atoms: N_2  and  C_4
REMARK    2  A    between atoms: C_8  and  O_9
REMARK    3  A    between atoms: O_9  and  C_10
REMARK    4  A    between atoms: C_10  and  C_11
REMARK    5  A    between atoms: C_15  and  C_16
REMARK                            x       y       z     vdW  Elec       q    Type
REMARK                         _______ _______ _______ _____ _____    ______ ____
ROOT
ATOM      1  C   UNL     1      44.380   4.588  11.754  0.00  0.00    +0.000 C 
ATOM      2  C   UNL     1      43.005   4.789  12.386  0.00  0.00    +0.000 C 
ATOM      3  C   UNL     1      43.485   5.760  11.363  0.00  0.00    +0.000 C 
ENDROOT
BRANCH   1   4
ATOM      4  C   UNL     1      45.638   4.959  12.511  0.00  0.00    +0.000 A 
ATOM      5  C   UNL     1      46.540   5.893  11.978  0.00  0.00    +0.000 A 
ATOM      6  C   UNL     1      47.602   6.381  12.731  0.00  0.00    +0.000 A 
ATOM      7  C   UNL     1      47.778   5.947  14.041  0.00  0.00    +0.000 A 
ATOM      8  C   UNL     1      46.940   4.976  14.603  0.00  0.00    +0.000 A 
ATOM      9  C   UNL     1      45.899   4.473  13.803  0.00  0.00    +0.000 A 
BRANCH   8  10
ATOM     10  C   UNL     1      47.009   4.534  16.062  0.00  0.00    +0.000 C 
ATOM     11  C   UNL     1      47.888   5.397  16.983  0.00  0.00    +0.000 C 
ATOM     12  C   UNL     1      49.378   5.091  16.819  0.00  0.00    +0.000 C 
ATOM     13  N   UNL     1      49.672   3.675  17.026  0.00  0.00    +0.000 NA
ATOM     14  C   UNL     1      48.907   2.837  16.101  0.00  0.00    +0.000 C 
ATOM     15  C   UNL     1      47.404   3.055  16.243  0.00  0.00    +0.000 C 
ATOM     16  H   UNL     1      49.432   3.420  17.984  0.00  0.00    +0.000 HD
ENDBRANCH   8  10
ENDBRANCH   1   4
BRANCH   1  17
ATOM     17  O   UNL     1      44.463   3.367  10.960  0.00  0.00    +0.000 OA
BRANCH  17  22
ATOM     18  C   UNL     1      46.330   2.261   8.052  0.00  0.00    +0.000 A 
ATOM     19  C   UNL     1      46.493   3.462   7.344  0.00  0.00    +0.000 A 
ATOM     20  C   UNL     1      46.056   4.659   7.909  0.00  0.00    +0.000 A 
ATOM     21  C   UNL     1      45.424   4.651   9.149  0.00  0.00    +0.000 A 
ATOM     22  C   UNL     1      45.198   3.441   9.808  0.00  0.00    +0.000 A 
ATOM     23  C   UNL     1      45.692   2.245   9.294  0.00  0.00    +0.000 A 
BRANCH  18  25
ATOM     24  O   UNL     1      46.429  -0.054   7.994  0.00  0.00    +0.000 OA
ATOM     25  N   UNL     1      46.784   1.004   7.457  0.00  0.00    +0.000 N 
ATOM     26  O   UNL     1      47.503   1.068   6.448  0.00  0.00    +0.000 OA
ENDBRANCH  18  25
ENDBRANCH  17  22
ENDBRANCH   1  17
TORSDOF 5
ENDMDL
MODEL 6
REMARK VINA RESULT:    -6.001      3.867      7.647
REMARK INTER + INTRA:          -8.827
REMARK INTER:                  -7.770
REMARK INTRA:                  -1.057
REMARK UNBOUND:                -1.072
REMARK  Name = 
REMARK  5 active torsions:
REMARK  status: ('A' for Active; 'I' for Inactive)
REMARK    1  A    between atoms: N_2  and  C_4
REMARK    2  A    between atoms: C_8  and  O_9
REMARK    3  A    between atoms: O_9  and  C_10
REMARK    4  A    between atoms: C_10  and  C_11
REMARK    5  A    between atoms: C_15  and  C_16
REMARK                            x       y       z     vdW  Elec       q    Type
REMARK                         _______ _______ _______ _____ _____    ______ ____
ROOT
ATOM      1  C   UNL     1      49.104   8.483  15.463  0.00  0.00    +0.000 C 
ATOM      2  C   UNL     1      49.403   9.919  15.887  0.00  0.00    +0.000 C 
ATOM      3  C   UNL     1      48.143   9.271  16.348  0.00  0.00    +0.000 C 
ENDROOT
BRANCH   1   4
ATOM      4  C   UNL     1      48.599   8.180  14.068  0.00  0.00    +0.000 A 
ATOM      5  C   UNL     1      49.490   8.119  12.985  0.00  0.00    +0.000 A 
ATOM      6  C   UNL     1      49.078   7.669  11.737  0.00  0.00    +0.000 A 
ATOM      7  C   UNL     1      47.762   7.260  11.548  0.00  0.00    +0.000 A 
ATOM      8  C   UNL     1      46.819   7.351  12.579  0.00  0.00    +0.000 A 
ATOM      9  C   UNL     1      47.257   7.849  13.820  0.00  0.00    +0.000 A 
BRANCH   8  10
ATOM     10  C   UNL     1      45.390   6.824  12.475  0.00  0.00    +0.000 C 
ATOM     11  C   UNL     1      45.090   5.543  13.272  0.00  0.00    +0.000 C 
ATOM     12  C   UNL     1      45.604   4.286  12.569  0.00  0.00    +0.000 C 
ATOM     13  N   UNL     1      45.083   4.167  11.209  0.00  0.00    +0.000 NA
ATOM     14  C   UNL     1      45.431   5.341  10.406  0.00  0.00    +0.000 C 
ATOM     15  C   UNL     1      44.905   6.632  11.026  0.00  0.00    +0.000 C 
ATOM     16  H   UNL     1      44.068   4.076  11.248  0.00  0.00    +0.000 HD
ENDBRANCH   8  10
ENDBRANCH   1   4
BRANCH   1  17
ATOM     17  O   UNL     1      50.059   7.524  16.006  0.00  0.00    +0.000 OA
BRANCH  17  22
ATOM     18  C   UNL     1      48.256   4.594  17.162  0.00  0.00    +0.000 A 
ATOM     19  C   UNL     1      48.677   4.509  18.498  0.00  0.00    +0.000 A 
ATOM     20  C   UNL     1      49.492   5.508  19.028  0.00  0.00    +0.000 A 
ATOM     21  C   UNL     1      49.917   6.558  18.219  0.00  0.00    +0.000 A 
ATOM     22  C   UNL     1      49.556   6.590  16.871  0.00  0.00    +0.000 A 
ATOM     23  C   UNL     1      48.685   5.642  16.343  0.00  0.00    +0.000 A 
BRANCH  18  25
ATOM     24  O   UNL     1      46.532   3.055  17.332  0.00  0.00    +0.000 OA
ATOM     25  N   UNL     1      47.405   3.544  16.603  0.00  0.00    +0.000 N 
ATOM     26  O   UNL     1      47.608   3.199  15.428  0.00  0.00    +0.000 OA
ENDBRANCH  18  25
ENDBRANCH  17  22
ENDBRANCH   1  17
TORSDOF 5
ENDMDL
MODEL 7
REMARK VINA RESULT:    -5.885      4.430      8.401
REMARK INTER + INTRA:          -8.677
REMARK INTER:                  -8.002
REMARK INTRA:                  -0.675
REMARK UNBOUND:                -1.072
REMARK  Name = 
REMARK  5 active torsions:
REMARK  status: ('A' for Active; 'I' for Inactive)
REMARK    1  A    between atoms: N_2  and  C_4
REMARK    2  A    between atoms: C_8  and  O_9
REMARK    3  A    between atoms: O_9  and  C_10
REMARK    4  A    between atoms: C_10  and  C_11
REMARK    5  A    between atoms: C_15  and  C_16
REMARK                            x       y       z     vdW  Elec       q    Type
REMARK                         _______ _______ _______ _____ _____    ______ ____
ROOT
ATOM      1  C   UNL     1      48.690   7.453  14.343  0.00  0.00    +0.000 C 
ATOM      2  C   UNL     1      49.790   8.364  13.803  0.00  0.00    +0.000 C 
ATOM      3  C   UNL     1      48.946   8.835  14.937  0.00  0.00    +0.000 C 
ENDROOT
BRANCH   1   4
ATOM      4  C   UNL     1      47.379   7.302  13.598  0.00  0.00    +0.000 A 
ATOM      5  C   UNL     1      46.557   8.416  13.371  0.00  0.00    +0.000 A 
ATOM      6  C   UNL     1      45.446   8.336  12.540  0.00  0.00    +0.000 A 
ATOM      7  C   UNL     1      45.140   7.134  11.910  0.00  0.00    +0.000 A 
ATOM      8  C   UNL     1      45.895   5.978  12.144  0.00  0.00    +0.000 A 
ATOM      9  C   UNL     1      46.989   6.082  13.021  0.00  0.00    +0.000 A 
BRANCH   8  10
ATOM     10  C   UNL     1      45.681   4.658  11.409  0.00  0.00    +0.000 C 
ATOM     11  C   UNL     1      44.725   4.709  10.205  0.00  0.00    +0.000 C 
ATOM     12  C   UNL     1      43.255   4.711  10.630  0.00  0.00    +0.000 C 
ATOM     13  N   UNL     1      42.930   3.570  11.482  0.00  0.00    +0.000 NA
ATOM     14  C   UNL     1      43.773   3.548  12.679  0.00  0.00    +0.000 C 
ATOM     15  C   UNL     1      45.258   3.497  12.330  0.00  0.00    +0.000 C 
ATOM     16  H   UNL     1      43.074   2.708  10.956  0.00  0.00    +0.000 HD
ENDBRANCH   8  10
ENDBRANCH   1   4
BRANCH   1  17
ATOM     17  O   UNL     1      49.213   6.232  14.945  0.00  0.00    +0.000 OA
BRANCH  17  22
ATOM     18  C   UNL     1      48.242   6.381  18.438  0.00  0.00    +0.000 A 
ATOM     19  C   UNL     1      47.354   5.298  18.533  0.00  0.00    +0.000 A 
ATOM     20  C   UNL     1      47.169   4.460  17.434  0.00  0.00    +0.000 A 
ATOM     21  C   UNL     1      47.831   4.727  16.240  0.00  0.00    +0.000 A 
ATOM     22  C   UNL     1      48.650   5.853  16.133  0.00  0.00    +0.000 A 
ATOM     23  C   UNL     1      48.904   6.658  17.240  0.00  0.00    +0.000 A 
BRANCH  18  25
ATOM     24  O   UNL     1      48.908   8.389  19.385  0.00  0.00    +0.000 OA
ATOM     25  N   UNL     1      48.433   7.264  19.589  0.00  0.00    +0.000 N 
ATOM     26  O   UNL     1      48.109   6.834  20.707  0.00  0.00    +0.000 OA
ENDBRANCH  18  25
ENDBRANCH  17  22
ENDBRANCH   1  17
TORSDOF 5
ENDMDL
MODEL 8
REMARK VINA RESULT:    -5.872      3.602      5.903
REMARK INTER + INTRA:          -8.660
REMARK INTER:                  -8.004
REMARK INTRA:                  -0.655
REMARK UNBOUND:                -1.072
REMARK  Name = 
REMARK  5 active torsions:
REMARK  status: ('A' for Active; 'I' for Inactive)
REMARK    1  A    between atoms: N_2  and  C_4
REMARK    2  A    between atoms: C_8  and  O_9
REMARK    3  A    between atoms: O_9  and  C_10
REMARK    4  A    between atoms: C_10  and  C_11
REMARK    5  A    between atoms: C_15  and  C_16
REMARK                            x       y       z     vdW  Elec       q    Type
REMARK                         _______ _______ _______ _____ _____    ______ ____
ROOT
ATOM      1  C   UNL     1      48.379   7.917  13.296  0.00  0.00    +0.000 C 
ATOM      2  C   UNL     1      48.827   9.090  12.427  0.00  0.00    +0.000 C 
ATOM      3  C   UNL     1      48.858   7.711  11.862  0.00  0.00    +0.000 C 
ENDROOT
BRANCH   1   4
ATOM      4  C   UNL     1      49.291   7.360  14.369  0.00  0.00    +0.000 A 
ATOM      5  C   UNL     1      50.625   7.786  14.463  0.00  0.00    +0.000 A 
ATOM      6  C   UNL     1      51.423   7.427  15.542  0.00  0.00    +0.000 A 
ATOM      7  C   UNL     1      50.897   6.637  16.559  0.00  0.00    +0.000 A 
ATOM      8  C   UNL     1      49.590   6.139  16.488  0.00  0.00    +0.000 A 
ATOM      9  C   UNL     1      48.820   6.487  15.364  0.00  0.00    +0.000 A 
BRANCH   8  10
ATOM     10  C   UNL     1      48.915   5.357  17.612  0.00  0.00    +0.000 C 
ATOM     11  C   UNL     1      49.764   4.251  18.262  0.00  0.00    +0.000 C 
ATOM     12  C   UNL     1      49.817   2.982  17.410  0.00  0.00    +0.000 C 
ATOM     13  N   UNL     1      48.482   2.474  17.101  0.00  0.00    +0.000 NA
ATOM     14  C   UNL     1      47.682   3.485  16.405  0.00  0.00    +0.000 C 
ATOM     15  C   UNL     1      47.547   4.766  17.222  0.00  0.00    +0.000 C 
ATOM     16  H   UNL     1      48.013   2.216  17.969  0.00  0.00    +0.000 HD
ENDBRANCH   8  10
ENDBRANCH   1   4
BRANCH   1  17
ATOM     17  O   UNL     1      46.965   7.983  13.647  0.00  0.00    +0.000 OA
BRANCH  17  22
ATOM     18  C   UNL     1      45.219   5.015  12.503  0.00  0.00    +0.000 A 
ATOM     19  C   UNL     1      44.268   5.562  11.629  0.00  0.00    +0.000 A 
ATOM     20  C   UNL     1      44.292   6.929  11.354  0.00  0.00    +0.000 A 
ATOM     21  C   UNL     1      45.229   7.746  11.980  0.00  0.00    +0.000 A 
ATOM     22  C   UNL     1      46.119   7.202  12.907  0.00  0.00    +0.000 A 
ATOM     23  C   UNL     1      46.158   5.830  13.139  0.00  0.00    +0.000 A 
BRANCH  18  25
ATOM     24  O   UNL     1      46.241   3.047  13.180  0.00  0.00    +0.000 OA
ATOM     25  N   UNL     1      45.192   3.581  12.797  0.00  0.00    +0.000 N 
ATOM     26  O   UNL     1      44.118   2.980  12.642  0.00  0.00    +0.000 OA
ENDBRANCH  18  25
ENDBRANCH  17  22
ENDBRANCH   1  17
TORSDOF 5
ENDMDL
MODEL 9
REMARK VINA RESULT:    -5.706      3.141      5.174
REMARK INTER + INTRA:          -8.445
REMARK INTER:                  -8.659
REMARK INTRA:                   0.214
REMARK UNBOUND:                -1.072
REMARK  Name = 
REMARK  5 active torsions:
REMARK  status: ('A' for Active; 'I' for Inactive)
REMARK    1  A    between atoms: N_2  and  C_4
REMARK    2  A    between atoms: C_8  and  O_9
REMARK    3  A    between atoms: O_9  and  C_10
REMARK    4  A    between atoms: C_10  and  C_11
REMARK    5  A    between atoms: C_15  and  C_16
REMARK                            x       y       z     vdW  Elec       q    Type
REMARK                         _______ _______ _______ _____ _____    ______ ____
ROOT
ATOM      1  C   UNL     1      47.523   7.433  12.694  0.00  0.00    +0.000 C 
ATOM      2  C   UNL     1      48.055   8.660  11.958  0.00  0.00    +0.000 C 
ATOM      3  C   UNL     1      48.300   7.306  11.387  0.00  0.00    +0.000 C 
ENDROOT
BRANCH   1   4
ATOM      4  C   UNL     1      48.232   6.903  13.922  0.00  0.00    +0.000 A 
ATOM      5  C   UNL     1      49.371   7.552  14.423  0.00  0.00    +0.000 A 
ATOM      6  C   UNL     1      49.929   7.192  15.644  0.00  0.00    +0.000 A 
ATOM      7  C   UNL     1      49.349   6.176  16.396  0.00  0.00    +0.000 A 
ATOM      8  C   UNL     1      48.245   5.459  15.918  0.00  0.00    +0.000 A 
ATOM      9  C   UNL     1      47.728   5.820  14.662  0.00  0.00    +0.000 A 
BRANCH   8  10
ATOM     10  C   UNL     1      47.496   4.407  16.732  0.00  0.00    +0.000 C 
ATOM     11  C   UNL     1      47.283   4.738  18.219  0.00  0.00    +0.000 C 
ATOM     12  C   UNL     1      48.540   4.490  19.056  0.00  0.00    +0.000 C 
ATOM     13  N   UNL     1      49.035   3.124  18.911  0.00  0.00    +0.000 NA
ATOM     14  C   UNL     1      49.324   2.814  17.509  0.00  0.00    +0.000 C 
ATOM     15  C   UNL     1      48.098   2.993  16.620  0.00  0.00    +0.000 C 
ATOM     16  H   UNL     1      48.329   2.474  19.258  0.00  0.00    +0.000 HD
ENDBRANCH   8  10
ENDBRANCH   1   4
BRANCH   1  17
ATOM     17  O   UNL     1      46.066   7.394  12.745  0.00  0.00    +0.000 OA
BRANCH  17  22
ATOM     18  C   UNL     1      45.137   4.699  10.500  0.00  0.00    +0.000 A 
ATOM     19  C   UNL     1      44.515   3.798  11.378  0.00  0.00    +0.000 A 
ATOM     20  C   UNL     1      44.323   4.157  12.711  0.00  0.00    +0.000 A 
ATOM     21  C   UNL     1      44.786   5.386  13.172  0.00  0.00    +0.000 A 
ATOM     22  C   UNL     1      45.474   6.240  12.308  0.00  0.00    +0.000 A 
ATOM     23  C   UNL     1      45.611   5.930  10.958  0.00  0.00    +0.000 A 
BRANCH  18  25
ATOM     24  O   UNL     1      44.872   3.244   8.716  0.00  0.00    +0.000 OA
ATOM     25  N   UNL     1      45.345   4.321   9.102  0.00  0.00    +0.000 N 
ATOM     26  O   UNL     1      45.986   5.101   8.381  0.00  0.00    +0.000 OA
ENDBRANCH  18  25
ENDBRANCH  17  22
ENDBRANCH   1  17
TORSDOF 5
ENDMDL
