MODEL 1
REMARK VINA RESULT:    -8.388      0.000      0.000
REMARK INTER + INTRA:         -12.401
REMARK INTER:                 -11.330
REMARK INTRA:                  -1.071
REMARK UNBOUND:                -1.071
REMARK  Name = 
REMARK  8 active torsions:
REMARK  status: ('A' for Active; 'I' for Inactive)
REMARK    1  A    between atoms: C_1  and  C_2
REMARK    2  A    between atoms: C_6  and  C_7
REMARK    3  A    between atoms: N_9  and  C_10
REMARK    4  A    between atoms: C_10  and  C_11
REMARK    5  A    between atoms: C_14  and  C_15
REMARK    6  A    between atoms: C_15  and  C_16
REMARK    7  A    between atoms: C_15  and  N_17
REMARK    8  A    between atoms: C_18  and  C_20
REMARK                            x       y       z     vdW  Elec       q    Type
REMARK                         _______ _______ _______ _____ _____    ______ ____
ROOT
ATOM      1  C   UNL     1      45.670   4.396  12.714  0.00  0.00    +0.000 A 
ATOM      2  C   UNL     1      45.586   5.780  12.571  0.00  0.00    +0.000 A 
ATOM      3  C   UNL     1      46.455   6.601  13.287  0.00  0.00    +0.000 A 
ATOM      4  C   UNL     1      47.405   6.025  14.136  0.00  0.00    +0.000 A 
ATOM      5  N   UNL     1      47.522   4.680  14.261  0.00  0.00    +0.000 NA
ATOM      6  C   UNL     1      46.662   3.904  13.554  0.00  0.00    +0.000 A 
ENDROOT
BRANCH   4   7
ATOM      7  C   UNL     1      48.351   6.904  14.955  0.00  0.00    +0.000 C 
ATOM      8  C   UNL     1      48.989   7.967  14.053  0.00  0.00    +0.000 C 
BRANCH   7   9
ATOM      9  N   UNL     1      49.358   6.087  15.621  0.00  0.00    +0.000 N 
ATOM     10  C   UNL     1      49.400   5.869  16.974  0.00  0.00    +0.000 C 
ATOM     11  O   UNL     1      48.585   6.346  17.755  0.00  0.00    +0.000 OA
ATOM     12  H   UNL     1      49.962   5.544  15.011  0.00  0.00    +0.000 HD
BRANCH  10  13
ATOM     13  C   UNL     1      50.509   5.046  17.439  0.00  0.00    +0.000 A 
ATOM     14  C   UNL     1      51.652   5.567  18.020  0.00  0.00    +0.000 A 
ATOM     15  O   UNL     1      52.542   4.590  18.332  0.00  0.00    +0.000 OA
ATOM     16  C   UNL     1      51.991   3.404  17.953  0.00  0.00    +0.000 A 
ATOM     17  N   UNL     1      52.611   2.208  18.095  0.00  0.00    +0.000 NA
ATOM     18  C   UNL     1      51.918   1.211  17.649  0.00  0.00    +0.000 A 
ATOM     19  N   UNL     1      50.666   1.308  17.085  0.00  0.00    +0.000 N 
ATOM     20  C   UNL     1      50.003   2.504  16.938  0.00  0.00    +0.000 A 
ATOM     21  O   UNL     1      48.879   2.570  16.451  0.00  0.00    +0.000 OA
ATOM     22  C   UNL     1      50.745   3.642  17.407  0.00  0.00    +0.000 A 
ATOM     23  H   UNL     1      50.177   0.487  16.764  0.00  0.00    +0.000 HD
ENDBRANCH  10  13
ENDBRANCH   7   9
ENDBRANCH   4   7
BRANCH   1  24
ATOM     24  C   UNL     1      44.717   3.481  12.007  0.00  0.00    +0.000 C 
BRANCH  24  27
ATOM     25  C   UNL     1      45.066   3.271   9.590  0.00  0.00    +0.000 C 
ATOM     26  O   UNL     1      44.358   4.241   9.340  0.00  0.00    +0.000 OA
ATOM     27  N   UNL     1      45.305   2.817  10.872  0.00  0.00    +0.000 N 
ATOM     28  H   UNL     1      45.899   1.999  10.977  0.00  0.00    +0.000 HD
BRANCH  25  34
ATOM     29  C   UNL     1      47.214   3.098   5.071  0.00  0.00    +0.000 C 
ATOM     30  C   UNL     1      46.772   2.420   6.333  0.00  0.00    +0.000 A 
ATOM     31  C   UNL     1      46.980   1.055   6.541  0.00  0.00    +0.000 A 
ATOM     32  C   UNL     1      46.551   0.484   7.733  0.00  0.00    +0.000 A 
ATOM     33  N   UNL     1      45.939   1.168   8.724  0.00  0.00    +0.000 NA
ATOM     34  C   UNL     1      45.743   2.495   8.499  0.00  0.00    +0.000 A 
ATOM     35  C   UNL     1      46.137   3.154   7.337  0.00  0.00    +0.000 A 
ENDBRANCH  25  34
ENDBRANCH  24  27
ENDBRANCH   1  24
TORSDOF 6
ENDMDL
MODEL 2
REMARK VINA RESULT:    -8.254      2.844     10.312
REMARK INTER + INTRA:         -12.221
REMARK INTER:                 -11.240
REMARK INTRA:                  -0.980
REMARK UNBOUND:                -1.071
REMARK  Name = 
REMARK  8 active torsions:
REMARK  status: ('A' for Active; 'I' for Inactive)
REMARK    1  A    between atoms: C_1  and  C_2
REMARK    2  A    between atoms: C_6  and  C_7
REMARK    3  A    between atoms: N_9  and  C_10
REMARK    4  A    between atoms: C_10  and  C_11
REMARK    5  A    between atoms: C_14  and  C_15
REMARK    6  A    between atoms: C_15  and  C_16
REMARK    7  A    between atoms: C_15  and  N_17
REMARK    8  A    between atoms: C_18  and  C_20
REMARK                            x       y       z     vdW  Elec       q    Type
REMARK                         _______ _______ _______ _____ _____    ______ ____
ROOT
ATOM      1  C   UNL     1      47.742   6.066  14.806  0.00  0.00    +0.000 A 
ATOM      2  C   UNL     1      47.381   6.961  13.799  0.00  0.00    +0.000 A 
ATOM      3  C   UNL     1      46.344   6.637  12.928  0.00  0.00    +0.000 A 
ATOM      4  C   UNL     1      45.673   5.419  13.077  0.00  0.00    +0.000 A 
ATOM      5  N   UNL     1      45.989   4.552  14.071  0.00  0.00    +0.000 NA
ATOM      6  C   UNL     1      47.003   4.893  14.905  0.00  0.00    +0.000 A 
ENDROOT
BRANCH   4   7
ATOM      7  C   UNL     1      44.551   5.026  12.116  0.00  0.00    +0.000 C 
ATOM      8  C   UNL     1      43.336   4.525  12.907  0.00  0.00    +0.000 C 
BRANCH   7   9
ATOM      9  N   UNL     1      45.021   4.030  11.162  0.00  0.00    +0.000 N 
ATOM     10  C   UNL     1      44.505   3.865   9.903  0.00  0.00    +0.000 C 
ATOM     11  O   UNL     1      43.590   4.550   9.460  0.00  0.00    +0.000 OA
ATOM     12  H   UNL     1      45.875   3.542  11.416  0.00  0.00    +0.000 HD
BRANCH  10  13
ATOM     13  C   UNL     1      45.098   2.790   9.120  0.00  0.00    +0.000 A 
ATOM     14  C   UNL     1      44.762   1.457   9.281  0.00  0.00    +0.000 A 
ATOM     15  O   UNL     1      45.484   0.657   8.454  0.00  0.00    +0.000 OA
ATOM     16  C   UNL     1      46.314   1.462   7.735  0.00  0.00    +0.000 A 
ATOM     17  N   UNL     1      47.199   1.002   6.818  0.00  0.00    +0.000 NA
ATOM     18  C   UNL     1      47.904   1.937   6.268  0.00  0.00    +0.000 A 
ATOM     19  N   UNL     1      47.794   3.280   6.549  0.00  0.00    +0.000 N 
ATOM     20  C   UNL     1      46.898   3.781   7.463  0.00  0.00    +0.000 A 
ATOM     21  O   UNL     1      46.799   4.984   7.687  0.00  0.00    +0.000 OA
ATOM     22  C   UNL     1      46.103   2.775   8.111  0.00  0.00    +0.000 A 
ATOM     23  H   UNL     1      48.372   3.957   6.075  0.00  0.00    +0.000 HD
ENDBRANCH  10  13
ENDBRANCH   7   9
ENDBRANCH   4   7
BRANCH   1  24
ATOM     24  C   UNL     1      48.888   6.351  15.728  0.00  0.00    +0.000 C 
BRANCH  24  27
ATOM     25  C   UNL     1      48.267   6.394  18.098  0.00  0.00    +0.000 C 
ATOM     26  O   UNL     1      48.375   5.178  18.213  0.00  0.00    +0.000 OA
ATOM     27  N   UNL     1      48.498   7.067  16.915  0.00  0.00    +0.000 N 
ATOM     28  H   UNL     1      48.373   8.075  16.916  0.00  0.00    +0.000 HD
BRANCH  25  34
ATOM     29  C   UNL     1      46.647  10.774  19.904  0.00  0.00    +0.000 C 
ATOM     30  C   UNL     1      47.095   9.360  20.117  0.00  0.00    +0.000 A 
ATOM     31  C   UNL     1      47.154   8.796  21.394  0.00  0.00    +0.000 A 
ATOM     32  C   UNL     1      47.574   7.479  21.528  0.00  0.00    +0.000 A 
ATOM     33  N   UNL     1      47.934   6.688  20.493  0.00  0.00    +0.000 NA
ATOM     34  C   UNL     1      47.874   7.258  19.259  0.00  0.00    +0.000 A 
ATOM     35  C   UNL     1      47.465   8.569  19.027  0.00  0.00    +0.000 A 
ENDBRANCH  25  34
ENDBRANCH  24  27
ENDBRANCH   1  24
TORSDOF 6
ENDMDL
MODEL 3
REMARK VINA RESULT:    -8.184      1.654      2.012
REMARK INTER + INTRA:         -12.125
REMARK INTER:                 -10.914
REMARK INTRA:                  -1.211
REMARK UNBOUND:                -1.071
REMARK  Name = 
REMARK  8 active torsions:
REMARK  status: ('A' for Active; 'I' for Inactive)
REMARK    1  A    between atoms: C_1  and  C_2
REMARK    2  A    between atoms: C_6  and  C_7
REMARK    3  A    between atoms: N_9  and  C_10
REMARK    4  A    between atoms: C_10  and  C_11
REMARK    5  A    between atoms: C_14  and  C_15
REMARK    6  A    between atoms: C_15  and  C_16
REMARK    7  A    between atoms: C_15  and  N_17
REMARK    8  A    between atoms: C_18  and  C_20
REMARK                            x       y       z     vdW  Elec       q    Type
REMARK                         _______ _______ _______ _____ _____    ______ ____
ROOT
ATOM      1  C   UNL     1      44.883   6.123  11.435  0.00  0.00    +0.000 A 
ATOM      2  C   UNL     1      45.685   5.397  12.314  0.00  0.00    +0.000 A 
ATOM      3  C   UNL     1      46.504   6.070  13.217  0.00  0.00    +0.000 A 
ATOM      4  C   UNL     1      46.509   7.468  13.234  0.00  0.00    +0.000 A 
ATOM      5  N   UNL     1      45.711   8.190  12.408  0.00  0.00    +0.000 NA
ATOM      6  C   UNL     1      44.925   7.509  11.538  0.00  0.00    +0.000 A 
ENDROOT
BRANCH   4   7
ATOM      7  C   UNL     1      47.421   8.233  14.195  0.00  0.00    +0.000 C 
ATOM      8  C   UNL     1      48.251   9.263  13.419  0.00  0.00    +0.000 C 
BRANCH   7   9
ATOM      9  N   UNL     1      48.267   7.309  14.939  0.00  0.00    +0.000 N 
ATOM     10  C   UNL     1      48.745   7.550  16.201  0.00  0.00    +0.000 C 
ATOM     11  O   UNL     1      48.501   8.576  16.825  0.00  0.00    +0.000 OA
ATOM     12  H   UNL     1      48.371   6.382  14.537  0.00  0.00    +0.000 HD
BRANCH  10  13
ATOM     13  C   UNL     1      49.600   6.508  16.754  0.00  0.00    +0.000 A 
ATOM     14  C   UNL     1      50.894   6.737  17.190  0.00  0.00    +0.000 A 
ATOM     15  O   UNL     1      51.482   5.594  17.627  0.00  0.00    +0.000 OA
ATOM     16  C   UNL     1      50.575   4.590  17.479  0.00  0.00    +0.000 A 
ATOM     17  N   UNL     1      50.827   3.297  17.798  0.00  0.00    +0.000 NA
ATOM     18  C   UNL     1      49.833   2.504  17.558  0.00  0.00    +0.000 A 
ATOM     19  N   UNL     1      48.620   2.892  17.037  0.00  0.00    +0.000 N 
ATOM     20  C   UNL     1      48.327   4.196  16.716  0.00  0.00    +0.000 A 
ATOM     21  O   UNL     1      47.232   4.528  16.271  0.00  0.00    +0.000 OA
ATOM     22  C   UNL     1      49.410   5.111  16.952  0.00  0.00    +0.000 A 
ATOM     23  H   UNL     1      47.884   2.220  16.882  0.00  0.00    +0.000 HD
ENDBRANCH  10  13
ENDBRANCH   7   9
ENDBRANCH   4   7
BRANCH   1  24
ATOM     24  C   UNL     1      44.032   5.438  10.410  0.00  0.00    +0.000 C 
BRANCH  24  27
ATOM     25  C   UNL     1      44.640   3.259   9.468  0.00  0.00    +0.000 C 
ATOM     26  O   UNL     1      43.873   2.654  10.211  0.00  0.00    +0.000 OA
ATOM     27  N   UNL     1      44.790   4.631   9.490  0.00  0.00    +0.000 N 
ATOM     28  H   UNL     1      45.458   5.040   8.842  0.00  0.00    +0.000 HD
BRANCH  25  34
ATOM     29  C   UNL     1      47.169   3.226   5.147  0.00  0.00    +0.000 C 
ATOM     30  C   UNL     1      46.694   2.530   6.387  0.00  0.00    +0.000 A 
ATOM     31  C   UNL     1      47.024   1.199   6.650  0.00  0.00    +0.000 A 
ATOM     32  C   UNL     1      46.558   0.609   7.818  0.00  0.00    +0.000 A 
ATOM     33  N   UNL     1      45.796   1.244   8.736  0.00  0.00    +0.000 NA
ATOM     34  C   UNL     1      45.483   2.538   8.459  0.00  0.00    +0.000 A 
ATOM     35  C   UNL     1      45.904   3.212   7.315  0.00  0.00    +0.000 A 
ENDBRANCH  25  34
ENDBRANCH  24  27
ENDBRANCH   1  24
TORSDOF 6
ENDMDL
MODEL 4
REMARK VINA RESULT:    -7.999      2.540      3.450
REMARK INTER + INTRA:         -11.876
REMARK INTER:                 -10.763
REMARK INTRA:                  -1.113
REMARK UNBOUND:                -1.071
REMARK  Name = 
REMARK  8 active torsions:
REMARK  status: ('A' for Active; 'I' for Inactive)
REMARK    1  A    between atoms: C_1  and  C_2
REMARK    2  A    between atoms: C_6  and  C_7
REMARK    3  A    between atoms: N_9  and  C_10
REMARK    4  A    between atoms: C_10  and  C_11
REMARK    5  A    between atoms: C_14  and  C_15
REMARK    6  A    between atoms: C_15  and  C_16
REMARK    7  A    between atoms: C_15  and  N_17
REMARK    8  A    between atoms: C_18  and  C_20
REMARK                            x       y       z     vdW  Elec       q    Type
REMARK                         _______ _______ _______ _____ _____    ______ ____
ROOT
ATOM      1  C   UNL     1      45.828   6.684  12.045  0.00  0.00    +0.000 A 
ATOM      2  C   UNL     1      46.783   5.805  12.553  0.00  0.00    +0.000 A 
ATOM      3  C   UNL     1      47.714   6.260  13.483  0.00  0.00    +0.000 A 
ATOM      4  C   UNL     1      47.677   7.594  13.900  0.00  0.00    +0.000 A 
ATOM      5  N   UNL     1      46.735   8.455  13.440  0.00  0.00    +0.000 NA
ATOM      6  C   UNL     1      45.841   7.985  12.534  0.00  0.00    +0.000 A 
ENDROOT
BRANCH   4   7
ATOM      7  C   UNL     1      48.706   8.128  14.898  0.00  0.00    +0.000 C 
ATOM      8  C   UNL     1      50.116   7.698  14.475  0.00  0.00    +0.000 C 
BRANCH   7   9
ATOM      9  N   UNL     1      48.388   7.680  16.248  0.00  0.00    +0.000 N 
ATOM     10  C   UNL     1      48.526   8.458  17.369  0.00  0.00    +0.000 C 
ATOM     11  O   UNL     1      48.934   9.612  17.336  0.00  0.00    +0.000 OA
ATOM     12  H   UNL     1      47.901   6.792  16.316  0.00  0.00    +0.000 HD
BRANCH  10  13
ATOM     13  C   UNL     1      48.181   7.807  18.626  0.00  0.00    +0.000 A 
ATOM     14  C   UNL     1      47.441   8.419  19.622  0.00  0.00    +0.000 A 
ATOM     15  O   UNL     1      47.291   7.609  20.701  0.00  0.00    +0.000 OA
ATOM     16  C   UNL     1      47.939   6.444  20.426  0.00  0.00    +0.000 A 
ATOM     17  N   UNL     1      48.015   5.404  21.291  0.00  0.00    +0.000 NA
ATOM     18  C   UNL     1      48.698   4.404  20.836  0.00  0.00    +0.000 A 
ATOM     19  N   UNL     1      49.299   4.354  19.599  0.00  0.00    +0.000 N 
ATOM     20  C   UNL     1      49.229   5.385  18.692  0.00  0.00    +0.000 A 
ATOM     21  O   UNL     1      49.754   5.316  17.585  0.00  0.00    +0.000 OA
ATOM     22  C   UNL     1      48.493   6.525  19.163  0.00  0.00    +0.000 A 
ATOM     23  H   UNL     1      49.811   3.537  19.304  0.00  0.00    +0.000 HD
ENDBRANCH  10  13
ENDBRANCH   7   9
ENDBRANCH   4   7
BRANCH   1  24
ATOM     24  C   UNL     1      44.846   6.249  11.000  0.00  0.00    +0.000 C 
BRANCH  24  27
ATOM     25  C   UNL     1      44.950   4.197   9.663  0.00  0.00    +0.000 C 
ATOM     26  O   UNL     1      44.003   3.689  10.254  0.00  0.00    +0.000 OA
ATOM     27  N   UNL     1      45.442   5.454   9.958  0.00  0.00    +0.000 N 
ATOM     28  H   UNL     1      46.237   5.784   9.419  0.00  0.00    +0.000 HD
BRANCH  25  34
ATOM     29  C   UNL     1      46.709  -0.040   7.659  0.00  0.00    +0.000 C 
ATOM     30  C   UNL     1      46.495   1.442   7.598  0.00  0.00    +0.000 A 
ATOM     31  C   UNL     1      46.934   2.200   6.509  0.00  0.00    +0.000 A 
ATOM     32  C   UNL     1      46.703   3.570   6.508  0.00  0.00    +0.000 A 
ATOM     33  N   UNL     1      46.071   4.234   7.501  0.00  0.00    +0.000 NA
ATOM     34  C   UNL     1      45.656   3.478   8.553  0.00  0.00    +0.000 A 
ATOM     35  C   UNL     1      45.842   2.100   8.643  0.00  0.00    +0.000 A 
ENDBRANCH  25  34
ENDBRANCH  24  27
ENDBRANCH   1  24
TORSDOF 6
ENDMDL
MODEL 5
REMARK VINA RESULT:    -7.765      2.702      4.669
REMARK INTER + INTRA:         -11.560
REMARK INTER:                 -10.582
REMARK INTRA:                  -0.978
REMARK UNBOUND:                -1.071
REMARK  Name = 
REMARK  8 active torsions:
REMARK  status: ('A' for Active; 'I' for Inactive)
REMARK    1  A    between atoms: C_1  and  C_2
REMARK    2  A    between atoms: C_6  and  C_7
REMARK    3  A    between atoms: N_9  and  C_10
REMARK    4  A    between atoms: C_10  and  C_11
REMARK    5  A    between atoms: C_14  and  C_15
REMARK    6  A    between atoms: C_15  and  C_16
REMARK    7  A    between atoms: C_15  and  N_17
REMARK    8  A    between atoms: C_18  and  C_20
REMARK                            x       y       z     vdW  Elec       q    Type
REMARK                         _______ _______ _______ _____ _____    ______ ____
ROOT
ATOM      1  C   UNL     1      45.617   4.756  12.415  0.00  0.00    +0.000 A 
ATOM      2  C   UNL     1      46.207   5.927  12.888  0.00  0.00    +0.000 A 
ATOM      3  C   UNL     1      46.998   5.888  14.034  0.00  0.00    +0.000 A 
ATOM      4  C   UNL     1      47.194   4.671  14.694  0.00  0.00    +0.000 A 
ATOM      5  N   UNL     1      46.655   3.517  14.230  0.00  0.00    +0.000 NA
ATOM      6  C   UNL     1      45.888   3.585  13.113  0.00  0.00    +0.000 A 
ENDROOT
BRANCH   4   7
ATOM      7  C   UNL     1      48.033   4.604  15.971  0.00  0.00    +0.000 C 
ATOM      8  C   UNL     1      47.747   3.295  16.717  0.00  0.00    +0.000 C 
BRANCH   7   9
ATOM      9  N   UNL     1      47.780   5.769  16.810  0.00  0.00    +0.000 N 
ATOM     10  C   UNL     1      48.547   6.121  17.890  0.00  0.00    +0.000 C 
ATOM     11  O   UNL     1      49.527   5.481  18.252  0.00  0.00    +0.000 OA
ATOM     12  H   UNL     1      47.079   6.418  16.465  0.00  0.00    +0.000 HD
BRANCH  10  13
ATOM     13  C   UNL     1      48.102   7.305  18.612  0.00  0.00    +0.000 A 
ATOM     14  C   UNL     1      47.660   7.275  19.924  0.00  0.00    +0.000 A 
ATOM     15  O   UNL     1      47.272   8.505  20.347  0.00  0.00    +0.000 OA
ATOM     16  C   UNL     1      47.452   9.367  19.308  0.00  0.00    +0.000 A 
ATOM     17  N   UNL     1      47.150  10.686  19.365  0.00  0.00    +0.000 NA
ATOM     18  C   UNL     1      47.379  11.315  18.258  0.00  0.00    +0.000 A 
ATOM     19  N   UNL     1      47.887  10.744  17.114  0.00  0.00    +0.000 N 
ATOM     20  C   UNL     1      48.217   9.412  17.027  0.00  0.00    +0.000 A 
ATOM     21  O   UNL     1      48.688   8.923  16.004  0.00  0.00    +0.000 OA
ATOM     22  C   UNL     1      47.963   8.670  18.230  0.00  0.00    +0.000 A 
ATOM     23  H   UNL     1      48.048  11.297  16.286  0.00  0.00    +0.000 HD
ENDBRANCH  10  13
ENDBRANCH   7   9
ENDBRANCH   4   7
BRANCH   1  24
ATOM     24  C   UNL     1      44.714   4.766  11.220  0.00  0.00    +0.000 C 
BRANCH  24  27
ATOM     25  C   UNL     1      45.719   4.448   9.007  0.00  0.00    +0.000 C 
ATOM     26  O   UNL     1      45.847   5.655   8.822  0.00  0.00    +0.000 OA
ATOM     27  N   UNL     1      45.172   3.911  10.156  0.00  0.00    +0.000 N 
ATOM     28  H   UNL     1      45.100   2.899  10.212  0.00  0.00    +0.000 HD
BRANCH  25  34
ATOM     29  C   UNL     1      46.705  -0.280   7.688  0.00  0.00    +0.000 C 
ATOM     30  C   UNL     1      46.631   1.180   7.355  0.00  0.00    +0.000 A 
ATOM     31  C   UNL     1      46.961   1.658   6.085  0.00  0.00    +0.000 A 
ATOM     32  C   UNL     1      46.870   3.021   5.836  0.00  0.00    +0.000 A 
ATOM     33  N   UNL     1      46.475   3.935   6.749  0.00  0.00    +0.000 NA
ATOM     34  C   UNL     1      46.162   3.449   7.981  0.00  0.00    +0.000 A 
ATOM     35  C   UNL     1      46.223   2.100   8.324  0.00  0.00    +0.000 A 
ENDBRANCH  25  34
ENDBRANCH  24  27
ENDBRANCH   1  24
TORSDOF 6
ENDMDL
MODEL 6
REMARK VINA RESULT:    -7.674      2.313      9.746
REMARK INTER + INTRA:         -11.437
REMARK INTER:                 -10.522
REMARK INTRA:                  -0.915
REMARK UNBOUND:                -1.071
REMARK  Name = 
REMARK  8 active torsions:
REMARK  status: ('A' for Active; 'I' for Inactive)
REMARK    1  A    between atoms: C_1  and  C_2
REMARK    2  A    between atoms: C_6  and  C_7
REMARK    3  A    between atoms: N_9  and  C_10
REMARK    4  A    between atoms: C_10  and  C_11
REMARK    5  A    between atoms: C_14  and  C_15
REMARK    6  A    between atoms: C_15  and  C_16
REMARK    7  A    between atoms: C_15  and  N_17
REMARK    8  A    between atoms: C_18  and  C_20
REMARK                            x       y       z     vdW  Elec       q    Type
REMARK                         _______ _______ _______ _____ _____    ______ ____
ROOT
ATOM      1  C   UNL     1      48.054   7.082  13.846  0.00  0.00    +0.000 A 
ATOM      2  C   UNL     1      47.245   7.820  12.984  0.00  0.00    +0.000 A 
ATOM      3  C   UNL     1      46.135   7.219  12.395  0.00  0.00    +0.000 A 
ATOM      4  C   UNL     1      45.843   5.882  12.680  0.00  0.00    +0.000 A 
ATOM      5  N   UNL     1      46.600   5.158  13.541  0.00  0.00    +0.000 NA
ATOM      6  C   UNL     1      47.676   5.768  14.099  0.00  0.00    +0.000 A 
ENDROOT
BRANCH   4   7
ATOM      7  C   UNL     1      44.647   5.189  12.024  0.00  0.00    +0.000 C 
ATOM      8  C   UNL     1      43.726   4.604  13.102  0.00  0.00    +0.000 C 
BRANCH   7   9
ATOM      9  N   UNL     1      45.100   4.167  11.089  0.00  0.00    +0.000 N 
ATOM     10  C   UNL     1      44.537   3.946   9.859  0.00  0.00    +0.000 C 
ATOM     11  O   UNL     1      43.592   4.597   9.429  0.00  0.00    +0.000 OA
ATOM     12  H   UNL     1      45.973   3.706  11.326  0.00  0.00    +0.000 HD
BRANCH  10  13
ATOM     13  C   UNL     1      45.121   2.854   9.092  0.00  0.00    +0.000 A 
ATOM     14  C   UNL     1      44.771   1.527   9.271  0.00  0.00    +0.000 A 
ATOM     15  O   UNL     1      45.486   0.708   8.457  0.00  0.00    +0.000 OA
ATOM     16  C   UNL     1      46.325   1.495   7.728  0.00  0.00    +0.000 A 
ATOM     17  N   UNL     1      47.207   1.013   6.820  0.00  0.00    +0.000 NA
ATOM     18  C   UNL     1      47.922   1.933   6.257  0.00  0.00    +0.000 A 
ATOM     19  N   UNL     1      47.826   3.280   6.519  0.00  0.00    +0.000 N 
ATOM     20  C   UNL     1      46.933   3.804   7.425  0.00  0.00    +0.000 A 
ATOM     21  O   UNL     1      46.847   5.010   7.632  0.00  0.00    +0.000 OA
ATOM     22  C   UNL     1      46.128   2.814   8.086  0.00  0.00    +0.000 A 
ATOM     23  H   UNL     1      48.412   3.945   6.038  0.00  0.00    +0.000 HD
ENDBRANCH  10  13
ENDBRANCH   7   9
ENDBRANCH   4   7
BRANCH   1  24
ATOM     24  C   UNL     1      49.288   7.674  14.454  0.00  0.00    +0.000 C 
BRANCH  24  27
ATOM     25  C   UNL     1      49.372   7.119  16.840  0.00  0.00    +0.000 C 
ATOM     26  O   UNL     1      48.537   7.968  17.132  0.00  0.00    +0.000 OA
ATOM     27  N   UNL     1      49.810   6.897  15.549  0.00  0.00    +0.000 N 
ATOM     28  H   UNL     1      50.512   6.176  15.409  0.00  0.00    +0.000 HD
BRANCH  25  34
ATOM     29  C   UNL     1      52.228   3.200  18.087  0.00  0.00    +0.000 C 
ATOM     30  C   UNL     1      51.361   4.359  18.475  0.00  0.00    +0.000 A 
ATOM     31  C   UNL     1      51.105   4.664  19.814  0.00  0.00    +0.000 A 
ATOM     32  C   UNL     1      50.296   5.753  20.112  0.00  0.00    +0.000 A 
ATOM     33  N   UNL     1      49.731   6.555  19.183  0.00  0.00    +0.000 NA
ATOM     34  C   UNL     1      49.989   6.238  17.885  0.00  0.00    +0.000 A 
ATOM     35  C   UNL     1      50.787   5.167  17.491  0.00  0.00    +0.000 A 
ENDBRANCH  25  34
ENDBRANCH  24  27
ENDBRANCH   1  24
TORSDOF 6
ENDMDL
MODEL 7
REMARK VINA RESULT:    -7.673      2.606      3.560
REMARK INTER + INTRA:         -11.435
REMARK INTER:                 -10.614
REMARK INTRA:                  -0.822
REMARK UNBOUND:                -1.071
REMARK  Name = 
REMARK  8 active torsions:
REMARK  status: ('A' for Active; 'I' for Inactive)
REMARK    1  A    between atoms: C_1  and  C_2
REMARK    2  A    between atoms: C_6  and  C_7
REMARK    3  A    between atoms: N_9  and  C_10
REMARK    4  A    between atoms: C_10  and  C_11
REMARK    5  A    between atoms: C_14  and  C_15
REMARK    6  A    between atoms: C_15  and  C_16
REMARK    7  A    between atoms: C_15  and  N_17
REMARK    8  A    between atoms: C_18  and  C_20
REMARK                            x       y       z     vdW  Elec       q    Type
REMARK                         _______ _______ _______ _____ _____    ______ ____
ROOT
ATOM      1  C   UNL     1      45.592   6.662  11.826  0.00  0.00    +0.000 A 
ATOM      2  C   UNL     1      46.614   5.831  12.282  0.00  0.00    +0.000 A 
ATOM      3  C   UNL     1      47.495   6.292  13.257  0.00  0.00    +0.000 A 
ATOM      4  C   UNL     1      47.340   7.583  13.771  0.00  0.00    +0.000 A 
ATOM      5  N   UNL     1      46.332   8.393  13.363  0.00  0.00    +0.000 NA
ATOM      6  C   UNL     1      45.489   7.919  12.411  0.00  0.00    +0.000 A 
ENDROOT
BRANCH   4   7
ATOM      7  C   UNL     1      48.311   8.125  14.821  0.00  0.00    +0.000 C 
ATOM      8  C   UNL     1      49.670   8.419  14.173  0.00  0.00    +0.000 C 
BRANCH   7   9
ATOM      9  N   UNL     1      48.434   7.192  15.933  0.00  0.00    +0.000 N 
ATOM     10  C   UNL     1      48.820   7.549  17.199  0.00  0.00    +0.000 C 
ATOM     11  O   UNL     1      49.098   8.700  17.514  0.00  0.00    +0.000 OA
ATOM     12  H   UNL     1      48.068   6.259  15.770  0.00  0.00    +0.000 HD
BRANCH  10  13
ATOM     13  C   UNL     1      48.909   6.456  18.157  0.00  0.00    +0.000 A 
ATOM     14  C   UNL     1      49.529   5.249  17.879  0.00  0.00    +0.000 A 
ATOM     15  O   UNL     1      49.442   4.391  18.928  0.00  0.00    +0.000 OA
ATOM     16  C   UNL     1      48.754   5.027  19.916  0.00  0.00    +0.000 A 
ATOM     17  N   UNL     1      48.460   4.462  21.111  0.00  0.00    +0.000 NA
ATOM     18  C   UNL     1      47.780   5.235  21.894  0.00  0.00    +0.000 A 
ATOM     19  N   UNL     1      47.380   6.516  21.589  0.00  0.00    +0.000 N 
ATOM     20  C   UNL     1      47.674   7.125  20.391  0.00  0.00    +0.000 A 
ATOM     21  O   UNL     1      47.326   8.275  20.143  0.00  0.00    +0.000 OA
ATOM     22  C   UNL     1      48.415   6.295  19.483  0.00  0.00    +0.000 A 
ATOM     23  H   UNL     1      46.857   7.067  22.252  0.00  0.00    +0.000 HD
ENDBRANCH  10  13
ENDBRANCH   7   9
ENDBRANCH   4   7
BRANCH   1  24
ATOM     24  C   UNL     1      44.659   6.225  10.738  0.00  0.00    +0.000 C 
BRANCH  24  27
ATOM     25  C   UNL     1      44.898   4.117   9.510  0.00  0.00    +0.000 C 
ATOM     26  O   UNL     1      43.995   3.575  10.140  0.00  0.00    +0.000 OA
ATOM     27  N   UNL     1      45.300   5.419   9.731  0.00  0.00    +0.000 N 
ATOM     28  H   UNL     1      46.065   5.776   9.165  0.00  0.00    +0.000 HD
BRANCH  25  34
ATOM     29  C   UNL     1      46.735  -0.131   7.601  0.00  0.00    +0.000 C 
ATOM     30  C   UNL     1      46.519   1.350   7.521  0.00  0.00    +0.000 A 
ATOM     31  C   UNL     1      46.992   2.100   6.442  0.00  0.00    +0.000 A 
ATOM     32  C   UNL     1      46.757   3.469   6.421  0.00  0.00    +0.000 A 
ATOM     33  N   UNL     1      46.091   4.139   7.387  0.00  0.00    +0.000 NA
ATOM     34  C   UNL     1      45.642   3.391   8.430  0.00  0.00    +0.000 A 
ATOM     35  C   UNL     1      45.829   2.014   8.537  0.00  0.00    +0.000 A 
ENDBRANCH  25  34
ENDBRANCH  24  27
ENDBRANCH   1  24
TORSDOF 6
ENDMDL
MODEL 8
REMARK VINA RESULT:    -7.377      3.868      5.286
REMARK INTER + INTRA:         -11.036
REMARK INTER:                 -10.252
REMARK INTRA:                  -0.784
REMARK UNBOUND:                -1.071
REMARK  Name = 
REMARK  8 active torsions:
REMARK  status: ('A' for Active; 'I' for Inactive)
REMARK    1  A    between atoms: C_1  and  C_2
REMARK    2  A    between atoms: C_6  and  C_7
REMARK    3  A    between atoms: N_9  and  C_10
REMARK    4  A    between atoms: C_10  and  C_11
REMARK    5  A    between atoms: C_14  and  C_15
REMARK    6  A    between atoms: C_15  and  C_16
REMARK    7  A    between atoms: C_15  and  N_17
REMARK    8  A    between atoms: C_18  and  C_20
REMARK                            x       y       z     vdW  Elec       q    Type
REMARK                         _______ _______ _______ _____ _____    ______ ____
ROOT
ATOM      1  C   UNL     1      45.778   6.770  12.019  0.00  0.00    +0.000 A 
ATOM      2  C   UNL     1      46.983   6.158  12.364  0.00  0.00    +0.000 A 
ATOM      3  C   UNL     1      47.880   6.822  13.197  0.00  0.00    +0.000 A 
ATOM      4  C   UNL     1      47.560   8.094  13.682  0.00  0.00    +0.000 A 
ATOM      5  N   UNL     1      46.379   8.690  13.383  0.00  0.00    +0.000 NA
ATOM      6  C   UNL     1      45.524   8.021  12.569  0.00  0.00    +0.000 A 
ENDROOT
BRANCH   4   7
ATOM      7  C   UNL     1      48.540   8.857  14.574  0.00  0.00    +0.000 C 
ATOM      8  C   UNL     1      49.979   8.448  14.238  0.00  0.00    +0.000 C 
BRANCH   7   9
ATOM      9  N   UNL     1      48.230   8.635  15.980  0.00  0.00    +0.000 N 
ATOM     10  C   UNL     1      48.425   9.565  16.968  0.00  0.00    +0.000 C 
ATOM     11  O   UNL     1      48.882  10.682  16.754  0.00  0.00    +0.000 OA
ATOM     12  H   UNL     1      47.706   7.790  16.189  0.00  0.00    +0.000 HD
BRANCH  10  13
ATOM     13  C   UNL     1      48.077   9.129  18.314  0.00  0.00    +0.000 A 
ATOM     14  C   UNL     1      48.376   7.871  18.806  0.00  0.00    +0.000 A 
ATOM     15  O   UNL     1      47.914   7.709  20.073  0.00  0.00    +0.000 OA
ATOM     16  C   UNL     1      47.296   8.868  20.430  0.00  0.00    +0.000 A 
ATOM     17  N   UNL     1      46.696   9.062  21.629  0.00  0.00    +0.000 NA
ATOM     18  C   UNL     1      46.153  10.230  21.751  0.00  0.00    +0.000 A 
ATOM     19  N   UNL     1      46.165  11.212  20.788  0.00  0.00    +0.000 N 
ATOM     20  C   UNL     1      46.776  11.054  19.566  0.00  0.00    +0.000 A 
ATOM     21  O   UNL     1      46.794  11.948  18.726  0.00  0.00    +0.000 OA
ATOM     22  C   UNL     1      47.380   9.764  19.381  0.00  0.00    +0.000 A 
ATOM     23  H   UNL     1      45.726  12.105  20.953  0.00  0.00    +0.000 HD
ENDBRANCH  10  13
ENDBRANCH   7   9
ENDBRANCH   4   7
BRANCH   1  24
ATOM     24  C   UNL     1      44.812   6.114  11.081  0.00  0.00    +0.000 C 
BRANCH  24  27
ATOM     25  C   UNL     1      44.815   4.232   9.512  0.00  0.00    +0.000 C 
ATOM     26  O   UNL     1      43.688   3.875   9.839  0.00  0.00    +0.000 OA
ATOM     27  N   UNL     1      45.457   5.322  10.066  0.00  0.00    +0.000 N 
ATOM     28  H   UNL     1      46.394   5.532   9.735  0.00  0.00    +0.000 HD
BRANCH  25  34
ATOM     29  C   UNL     1      46.744  -0.025   7.715  0.00  0.00    +0.000 C 
ATOM     30  C   UNL     1      46.514   1.452   7.606  0.00  0.00    +0.000 A 
ATOM     31  C   UNL     1      47.004   2.190   6.526  0.00  0.00    +0.000 A 
ATOM     32  C   UNL     1      46.755   3.556   6.478  0.00  0.00    +0.000 A 
ATOM     33  N   UNL     1      46.058   4.234   7.417  0.00  0.00    +0.000 NA
ATOM     34  C   UNL     1      45.593   3.497   8.461  0.00  0.00    +0.000 A 
ATOM     35  C   UNL     1      45.793   2.124   8.595  0.00  0.00    +0.000 A 
ENDBRANCH  25  34
ENDBRANCH  24  27
ENDBRANCH   1  24
TORSDOF 6
ENDMDL
MODEL 9
REMARK VINA RESULT:    -7.276      5.158      7.495
REMARK INTER + INTRA:         -10.899
REMARK INTER:                 -10.053
REMARK INTRA:                  -0.845
REMARK UNBOUND:                -1.071
REMARK  Name = 
REMARK  8 active torsions:
REMARK  status: ('A' for Active; 'I' for Inactive)
REMARK    1  A    between atoms: C_1  and  C_2
REMARK    2  A    between atoms: C_6  and  C_7
REMARK    3  A    between atoms: N_9  and  C_10
REMARK    4  A    between atoms: C_10  and  C_11
REMARK    5  A    between atoms: C_14  and  C_15
REMARK    6  A    between atoms: C_15  and  C_16
REMARK    7  A    between atoms: C_15  and  N_17
REMARK    8  A    between atoms: C_18  and  C_20
REMARK                            x       y       z     vdW  Elec       q    Type
REMARK                         _______ _______ _______ _____ _____    ______ ____
ROOT
ATOM      1  C   UNL     1      44.725   9.050  11.814  0.00  0.00    +0.000 A 
ATOM      2  C   UNL     1      44.057   7.914  11.358  0.00  0.00    +0.000 A 
ATOM      3  C   UNL     1      44.510   6.651  11.731  0.00  0.00    +0.000 A 
ATOM      4  C   UNL     1      45.627   6.537  12.564  0.00  0.00    +0.000 A 
ATOM      5  N   UNL     1      46.269   7.632  13.043  0.00  0.00    +0.000 NA
ATOM      6  C   UNL     1      45.807   8.849  12.663  0.00  0.00    +0.000 A 
ENDROOT
BRANCH   4   7
ATOM      7  C   UNL     1      46.163   5.162  12.965  0.00  0.00    +0.000 C 
ATOM      8  C   UNL     1      45.059   4.108  12.818  0.00  0.00    +0.000 C 
BRANCH   7   9
ATOM      9  N   UNL     1      46.698   5.198  14.320  0.00  0.00    +0.000 N 
ATOM     10  C   UNL     1      47.280   4.126  14.946  0.00  0.00    +0.000 C 
ATOM     11  O   UNL     1      47.404   3.028  14.417  0.00  0.00    +0.000 OA
ATOM     12  H   UNL     1      46.763   6.118  14.746  0.00  0.00    +0.000 HD
BRANCH  10  13
ATOM     13  C   UNL     1      47.721   4.366  16.313  0.00  0.00    +0.000 A 
ATOM     14  C   UNL     1      47.278   3.629  17.397  0.00  0.00    +0.000 A 
ATOM     15  O   UNL     1      47.816   4.077  18.560  0.00  0.00    +0.000 OA
ATOM     16  C   UNL     1      48.626   5.128  18.252  0.00  0.00    +0.000 A 
ATOM     17  N   UNL     1      49.317   5.840  19.174  0.00  0.00    +0.000 NA
ATOM     18  C   UNL     1      50.007   6.809  18.667  0.00  0.00    +0.000 A 
ATOM     19  N   UNL     1      50.068   7.120  17.328  0.00  0.00    +0.000 N 
ATOM     20  C   UNL     1      49.390   6.411  16.364  0.00  0.00    +0.000 A 
ATOM     21  O   UNL     1      49.471   6.689  15.172  0.00  0.00    +0.000 OA
ATOM     22  C   UNL     1      48.597   5.332  16.886  0.00  0.00    +0.000 A 
ATOM     23  H   UNL     1      50.634   7.888  16.999  0.00  0.00    +0.000 HD
ENDBRANCH  10  13
ENDBRANCH   7   9
ENDBRANCH   4   7
BRANCH   1  24
ATOM     24  C   UNL     1      44.305  10.424  11.390  0.00  0.00    +0.000 C 
BRANCH  24  27
ATOM     25  C   UNL     1      41.970  10.859  10.782  0.00  0.00    +0.000 C 
ATOM     26  O   UNL     1      42.189  10.711   9.584  0.00  0.00    +0.000 OA
ATOM     27  N   UNL     1      42.947  10.739  11.751  0.00  0.00    +0.000 N 
ATOM     28  H   UNL     1      42.670  10.889  12.717  0.00  0.00    +0.000 HD
BRANCH  25  34
ATOM     29  C   UNL     1      37.280   9.455  11.828  0.00  0.00    +0.000 C 
ATOM     30  C   UNL     1      38.352  10.502  11.793  0.00  0.00    +0.000 A 
ATOM     31  C   UNL     1      38.116  11.805  12.238  0.00  0.00    +0.000 A 
ATOM     32  C   UNL     1      39.150  12.731  12.183  0.00  0.00    +0.000 A 
ATOM     33  N   UNL     1      40.391  12.456  11.725  0.00  0.00    +0.000 NA
ATOM     34  C   UNL     1      40.598  11.183  11.293  0.00  0.00    +0.000 A 
ATOM     35  C   UNL     1      39.623  10.187  11.309  0.00  0.00    +0.000 A 
ENDBRANCH  25  34
ENDBRANCH  24  27
ENDBRANCH   1  24
TORSDOF 6
ENDMDL
