MODEL 1
REMARK VINA RESULT:    -8.551      0.000      0.000
REMARK INTER + INTRA:         -12.069
REMARK INTER:                 -11.050
REMARK INTRA:                  -1.018
REMARK UNBOUND:                -1.018
REMARK  Name = 
REMARK  5 active torsions:
REMARK  status: ('A' for Active; 'I' for Inactive)
REMARK    1  A    between atoms: C_2  and  C_4
REMARK    2  A    between atoms: C_8  and  O_9
REMARK    3  A    between atoms: O_9  and  C_10
REMARK    4  A    between atoms: C_10  and  C_11
REMARK    5  A    between atoms: C_16  and  C_17
REMARK                            x       y       z     vdW  Elec       q    Type
REMARK                         _______ _______ _______ _____ _____    ______ ____
ROOT
ATOM      1  C   UNL     1      43.703   6.437  10.927  0.00  0.00    +0.000 C 
ENDROOT
BRANCH   1   2
ATOM      2  C   UNL     1      43.929   4.965  10.696  0.00  0.00    +0.000 A 
ATOM      3  C   UNL     1      43.244   4.011  11.452  0.00  0.00    +0.000 A 
ATOM      4  C   UNL     1      43.436   2.663  11.187  0.00  0.00    +0.000 A 
ATOM      5  F   UNL     1      42.754   1.751  11.891  0.00  0.00    +0.000 F 
ATOM      6  C   UNL     1      44.294   2.240  10.173  0.00  0.00    +0.000 A 
ATOM      7  C   UNL     1      44.984   3.169   9.380  0.00  0.00    +0.000 A 
ATOM      8  C   UNL     1      44.809   4.533   9.688  0.00  0.00    +0.000 A 
BRANCH   7   9
ATOM      9  C   UNL     1      45.781   2.752   8.199  0.00  0.00    +0.000 A 
ATOM     10  C   UNL     1      46.074   3.665   7.171  0.00  0.00    +0.000 A 
ATOM     11  C   UNL     1      46.912   3.323   6.103  0.00  0.00    +0.000 A 
ATOM     12  C   UNL     1      47.480   2.055   6.045  0.00  0.00    +0.000 A 
ATOM     13  C   UNL     1      47.190   1.123   7.037  0.00  0.00    +0.000 A 
ATOM     14  C   UNL     1      46.341   1.465   8.096  0.00  0.00    +0.000 A 
ENDBRANCH   7   9
ENDBRANCH   1   2
BRANCH   1  15
ATOM     15  O   UNL     1      44.141   6.777  12.239  0.00  0.00    +0.000 OA
BRANCH  15  20
ATOM     16  C   UNL     1      46.992   5.236  13.879  0.00  0.00    +0.000 A 
ATOM     17  C   UNL     1      48.077   5.872  13.269  0.00  0.00    +0.000 A 
ATOM     18  C   UNL     1      47.856   6.827  12.278  0.00  0.00    +0.000 A 
ATOM     19  C   UNL     1      46.551   7.157  11.902  0.00  0.00    +0.000 A 
ATOM     20  C   UNL     1      45.461   6.537  12.517  0.00  0.00    +0.000 A 
ATOM     21  C   UNL     1      45.685   5.581  13.511  0.00  0.00    +0.000 A 
BRANCH  16  23
ATOM     22  N   UNL     1      47.120   4.596  16.225  0.00  0.00    +0.000 N 
ATOM     23  C   UNL     1      47.271   4.215  14.922  0.00  0.00    +0.000 C 
ATOM     24  O   UNL     1      47.580   3.067  14.631  0.00  0.00    +0.000 OA
ATOM     25  H   UNL     1      47.206   3.865  16.919  0.00  0.00    +0.000 HD
ATOM     26  H   UNL     1      46.641   5.444  16.492  0.00  0.00    +0.000 HD
ENDBRANCH  16  23
ENDBRANCH  15  20
ENDBRANCH   1  15
TORSDOF 5
ENDMDL
MODEL 2
REMARK VINA RESULT:    -8.350      3.228      6.419
REMARK INTER + INTRA:         -11.809
REMARK INTER:                 -11.039
REMARK INTRA:                  -0.770
REMARK UNBOUND:                -1.018
REMARK  Name = 
REMARK  5 active torsions:
REMARK  status: ('A' for Active; 'I' for Inactive)
REMARK    1  A    between atoms: C_2  and  C_4
REMARK    2  A    between atoms: C_8  and  O_9
REMARK    3  A    between atoms: O_9  and  C_10
REMARK    4  A    between atoms: C_10  and  C_11
REMARK    5  A    between atoms: C_16  and  C_17
REMARK                            x       y       z     vdW  Elec       q    Type
REMARK                         _______ _______ _______ _____ _____    ______ ____
ROOT
ATOM      1  C   UNL     1      43.252   3.882  11.442  0.00  0.00    +0.000 C 
ENDROOT
BRANCH   1   2
ATOM      2  C   UNL     1      44.482   4.387  12.151  0.00  0.00    +0.000 A 
ATOM      3  C   UNL     1      45.332   3.505  12.823  0.00  0.00    +0.000 A 
ATOM      4  C   UNL     1      46.482   3.992  13.428  0.00  0.00    +0.000 A 
ATOM      5  F   UNL     1      47.311   3.140  14.043  0.00  0.00    +0.000 F 
ATOM      6  C   UNL     1      46.812   5.345  13.372  0.00  0.00    +0.000 A 
ATOM      7  C   UNL     1      45.992   6.258  12.689  0.00  0.00    +0.000 A 
ATOM      8  C   UNL     1      44.808   5.755  12.114  0.00  0.00    +0.000 A 
BRANCH   7   9
ATOM      9  C   UNL     1      46.398   7.671  12.484  0.00  0.00    +0.000 A 
ATOM     10  C   UNL     1      47.737   8.002  12.213  0.00  0.00    +0.000 A 
ATOM     11  C   UNL     1      48.123   9.313  11.910  0.00  0.00    +0.000 A 
ATOM     12  C   UNL     1      47.170  10.324  11.867  0.00  0.00    +0.000 A 
ATOM     13  C   UNL     1      45.840  10.031  12.152  0.00  0.00    +0.000 A 
ATOM     14  C   UNL     1      45.460   8.720  12.468  0.00  0.00    +0.000 A 
ENDBRANCH   7   9
ENDBRANCH   1   2
BRANCH   1  15
ATOM     15  O   UNL     1      43.611   2.783  10.611  0.00  0.00    +0.000 OA
BRANCH  15  20
ATOM     16  C   UNL     1      46.141   2.127   8.089  0.00  0.00    +0.000 A 
ATOM     17  C   UNL     1      46.293   3.374   7.475  0.00  0.00    +0.000 A 
ATOM     18  C   UNL     1      45.525   4.456   7.901  0.00  0.00    +0.000 A 
ATOM     19  C   UNL     1      44.612   4.299   8.947  0.00  0.00    +0.000 A 
ATOM     20  C   UNL     1      44.466   3.061   9.576  0.00  0.00    +0.000 A 
ATOM     21  C   UNL     1      45.237   1.976   9.148  0.00  0.00    +0.000 A 
BRANCH  16  23
ATOM     22  N   UNL     1      48.090   1.306   6.879  0.00  0.00    +0.000 N 
ATOM     23  C   UNL     1      46.970   0.996   7.597  0.00  0.00    +0.000 C 
ATOM     24  O   UNL     1      46.690  -0.168   7.859  0.00  0.00    +0.000 OA
ATOM     25  H   UNL     1      48.701   0.536   6.644  0.00  0.00    +0.000 HD
ATOM     26  H   UNL     1      48.476   2.239   6.852  0.00  0.00    +0.000 HD
ENDBRANCH  16  23
ENDBRANCH  15  20
ENDBRANCH   1  15
TORSDOF 5
ENDMDL
MODEL 3
REMARK VINA RESULT:    -8.069      3.402      6.721
REMARK INTER + INTRA:         -11.446
REMARK INTER:                 -10.412
REMARK INTRA:                  -1.034
REMARK UNBOUND:                -1.018
REMARK  Name = 
REMARK  5 active torsions:
REMARK  status: ('A' for Active; 'I' for Inactive)
REMARK    1  A    between atoms: C_2  and  C_4
REMARK    2  A    between atoms: C_8  and  O_9
REMARK    3  A    between atoms: O_9  and  C_10
REMARK    4  A    between atoms: C_10  and  C_11
REMARK    5  A    between atoms: C_16  and  C_17
REMARK                            x       y       z     vdW  Elec       q    Type
REMARK                         _______ _______ _______ _____ _____    ______ ____
ROOT
ATOM      1  C   UNL     1      44.024   4.852  10.668  0.00  0.00    +0.000 C 
ENDROOT
BRANCH   1   2
ATOM      2  C   UNL     1      45.163   5.164  11.603  0.00  0.00    +0.000 A 
ATOM      3  C   UNL     1      45.528   4.266  12.609  0.00  0.00    +0.000 A 
ATOM      4  C   UNL     1      46.612   4.558  13.426  0.00  0.00    +0.000 A 
ATOM      5  F   UNL     1      46.979   3.680  14.368  0.00  0.00    +0.000 F 
ATOM      6  C   UNL     1      47.350   5.727  13.258  0.00  0.00    +0.000 A 
ATOM      7  C   UNL     1      47.026   6.644  12.245  0.00  0.00    +0.000 A 
ATOM      8  C   UNL     1      45.900   6.353  11.450  0.00  0.00    +0.000 A 
BRANCH   7   9
ATOM      9  C   UNL     1      47.886   7.817  11.946  0.00  0.00    +0.000 A 
ATOM     10  C   UNL     1      47.395   9.125  12.099  0.00  0.00    +0.000 A 
ATOM     11  C   UNL     1      48.220  10.243  11.927  0.00  0.00    +0.000 A 
ATOM     12  C   UNL     1      49.561  10.072  11.601  0.00  0.00    +0.000 A 
ATOM     13  C   UNL     1      50.069   8.790  11.422  0.00  0.00    +0.000 A 
ATOM     14  C   UNL     1      49.238   7.674  11.582  0.00  0.00    +0.000 A 
ENDBRANCH   7   9
ENDBRANCH   1   2
BRANCH   1  15
ATOM     15  O   UNL     1      44.505   4.856   9.328  0.00  0.00    +0.000 OA
BRANCH  15  20
ATOM     16  C   UNL     1      46.513   2.672   7.232  0.00  0.00    +0.000 A 
ATOM     17  C   UNL     1      46.227   1.404   7.748  0.00  0.00    +0.000 A 
ATOM     18  C   UNL     1      45.355   1.274   8.827  0.00  0.00    +0.000 A 
ATOM     19  C   UNL     1      44.759   2.406   9.388  0.00  0.00    +0.000 A 
ATOM     20  C   UNL     1      45.028   3.675   8.870  0.00  0.00    +0.000 A 
ATOM     21  C   UNL     1      45.902   3.804   7.787  0.00  0.00    +0.000 A 
BRANCH  16  23
ATOM     22  N   UNL     1      48.773   2.501   6.340  0.00  0.00    +0.000 N 
ATOM     23  C   UNL     1      47.457   2.770   6.089  0.00  0.00    +0.000 C 
ATOM     24  O   UNL     1      47.072   3.037   4.958  0.00  0.00    +0.000 OA
ATOM     25  H   UNL     1      49.385   2.465   5.536  0.00  0.00    +0.000 HD
ATOM     26  H   UNL     1      49.083   2.050   7.188  0.00  0.00    +0.000 HD
ENDBRANCH  16  23
ENDBRANCH  15  20
ENDBRANCH   1  15
TORSDOF 5
ENDMDL
MODEL 4
REMARK VINA RESULT:    -7.855      1.824      2.125
REMARK INTER + INTRA:         -11.170
REMARK INTER:                 -10.224
REMARK INTRA:                  -0.945
REMARK UNBOUND:                -1.018
REMARK  Name = 
REMARK  5 active torsions:
REMARK  status: ('A' for Active; 'I' for Inactive)
REMARK    1  A    between atoms: C_2  and  C_4
REMARK    2  A    between atoms: C_8  and  O_9
REMARK    3  A    between atoms: O_9  and  C_10
REMARK    4  A    between atoms: C_10  and  C_11
REMARK    5  A    between atoms: C_16  and  C_17
REMARK                            x       y       z     vdW  Elec       q    Type
REMARK                         _______ _______ _______ _____ _____    ______ ____
ROOT
ATOM      1  C   UNL     1      43.952   6.519  11.202  0.00  0.00    +0.000 C 
ENDROOT
BRANCH   1   2
ATOM      2  C   UNL     1      44.105   5.051  10.899  0.00  0.00    +0.000 A 
ATOM      3  C   UNL     1      43.389   4.094  11.623  0.00  0.00    +0.000 A 
ATOM      4  C   UNL     1      43.514   2.753  11.292  0.00  0.00    +0.000 A 
ATOM      5  F   UNL     1      42.803   1.841  11.966  0.00  0.00    +0.000 F 
ATOM      6  C   UNL     1      44.334   2.339  10.243  0.00  0.00    +0.000 A 
ATOM      7  C   UNL     1      45.053   3.273   9.480  0.00  0.00    +0.000 A 
ATOM      8  C   UNL     1      44.946   4.628   9.854  0.00  0.00    +0.000 A 
BRANCH   7   9
ATOM      9  C   UNL     1      45.809   2.876   8.266  0.00  0.00    +0.000 A 
ATOM     10  C   UNL     1      46.094   3.814   7.259  0.00  0.00    +0.000 A 
ATOM     11  C   UNL     1      46.896   3.488   6.159  0.00  0.00    +0.000 A 
ATOM     12  C   UNL     1      47.434   2.211   6.046  0.00  0.00    +0.000 A 
ATOM     13  C   UNL     1      47.151   1.255   7.017  0.00  0.00    +0.000 A 
ATOM     14  C   UNL     1      46.338   1.581   8.109  0.00  0.00    +0.000 A 
ENDBRANCH   7   9
ENDBRANCH   1   2
BRANCH   1  15
ATOM     15  O   UNL     1      44.556   6.802  12.460  0.00  0.00    +0.000 OA
BRANCH  15  20
ATOM     16  C   UNL     1      48.023   7.826  12.807  0.00  0.00    +0.000 A 
ATOM     17  C   UNL     1      47.977   9.183  12.474  0.00  0.00    +0.000 A 
ATOM     18  C   UNL     1      46.765   9.769  12.113  0.00  0.00    +0.000 A 
ATOM     19  C   UNL     1      45.596   9.004  12.093  0.00  0.00    +0.000 A 
ATOM     20  C   UNL     1      45.631   7.652  12.438  0.00  0.00    +0.000 A 
ATOM     21  C   UNL     1      46.846   7.066  12.801  0.00  0.00    +0.000 A 
BRANCH  16  23
ATOM     22  N   UNL     1      50.337   7.310  12.246  0.00  0.00    +0.000 N 
ATOM     23  C   UNL     1      49.336   7.236  13.174  0.00  0.00    +0.000 C 
ATOM     24  O   UNL     1      49.534   6.743  14.278  0.00  0.00    +0.000 OA
ATOM     25  H   UNL     1      51.252   7.004  12.548  0.00  0.00    +0.000 HD
ATOM     26  H   UNL     1      50.285   7.912  11.437  0.00  0.00    +0.000 HD
ENDBRANCH  16  23
ENDBRANCH  15  20
ENDBRANCH   1  15
TORSDOF 5
ENDMDL
MODEL 5
REMARK VINA RESULT:    -7.727      2.133      2.901
REMARK INTER + INTRA:         -11.004
REMARK INTER:                 -10.001
REMARK INTRA:                  -1.003
REMARK UNBOUND:                -1.018
REMARK  Name = 
REMARK  5 active torsions:
REMARK  status: ('A' for Active; 'I' for Inactive)
REMARK    1  A    between atoms: C_2  and  C_4
REMARK    2  A    between atoms: C_8  and  O_9
REMARK    3  A    between atoms: O_9  and  C_10
REMARK    4  A    between atoms: C_10  and  C_11
REMARK    5  A    between atoms: C_16  and  C_17
REMARK                            x       y       z     vdW  Elec       q    Type
REMARK                         _______ _______ _______ _____ _____    ______ ____
ROOT
ATOM      1  C   UNL     1      44.145   6.518  11.262  0.00  0.00    +0.000 C 
ENDROOT
BRANCH   1   2
ATOM      2  C   UNL     1      44.240   5.056  10.911  0.00  0.00    +0.000 A 
ATOM      3  C   UNL     1      43.481   4.106  11.599  0.00  0.00    +0.000 A 
ATOM      4  C   UNL     1      43.553   2.772  11.224  0.00  0.00    +0.000 A 
ATOM      5  F   UNL     1      42.800   1.868  11.864  0.00  0.00    +0.000 F 
ATOM      6  C   UNL     1      44.363   2.360  10.168  0.00  0.00    +0.000 A 
ATOM      7  C   UNL     1      45.125   3.288   9.441  0.00  0.00    +0.000 A 
ATOM      8  C   UNL     1      45.071   4.633   9.858  0.00  0.00    +0.000 A 
BRANCH   7   9
ATOM      9  C   UNL     1      45.873   2.900   8.218  0.00  0.00    +0.000 A 
ATOM     10  C   UNL     1      46.161   3.848   7.221  0.00  0.00    +0.000 A 
ATOM     11  C   UNL     1      46.955   3.530   6.113  0.00  0.00    +0.000 A 
ATOM     12  C   UNL     1      47.484   2.251   5.983  0.00  0.00    +0.000 A 
ATOM     13  C   UNL     1      47.199   1.286   6.944  0.00  0.00    +0.000 A 
ATOM     14  C   UNL     1      46.393   1.604   8.044  0.00  0.00    +0.000 A 
ENDBRANCH   7   9
ENDBRANCH   1   2
BRANCH   1  15
ATOM     15  O   UNL     1      44.708   6.727  12.553  0.00  0.00    +0.000 OA
BRANCH  15  20
ATOM     16  C   UNL     1      47.680   8.807  12.373  0.00  0.00    +0.000 A 
ATOM     17  C   UNL     1      48.710   7.891  12.606  0.00  0.00    +0.000 A 
ATOM     18  C   UNL     1      48.408   6.551  12.842  0.00  0.00    +0.000 A 
ATOM     19  C   UNL     1      47.079   6.121  12.836  0.00  0.00    +0.000 A 
ATOM     20  C   UNL     1      46.045   7.026  12.589  0.00  0.00    +0.000 A 
ATOM     21  C   UNL     1      46.349   8.369  12.351  0.00  0.00    +0.000 A 
BRANCH  16  23
ATOM     22  N   UNL     1      48.031  11.064  13.218  0.00  0.00    +0.000 N 
ATOM     23  C   UNL     1      48.042  10.228  12.137  0.00  0.00    +0.000 C 
ATOM     24  O   UNL     1      48.382  10.631  11.031  0.00  0.00    +0.000 OA
ATOM     25  H   UNL     1      48.383  12.000  13.066  0.00  0.00    +0.000 HD
ATOM     26  H   UNL     1      47.995  10.724  14.168  0.00  0.00    +0.000 HD
ENDBRANCH  16  23
ENDBRANCH  15  20
ENDBRANCH   1  15
TORSDOF 5
ENDMDL
MODEL 6
REMARK VINA RESULT:    -7.716      1.879      2.562
REMARK INTER + INTRA:         -10.990
REMARK INTER:                 -10.101
REMARK INTRA:                  -0.889
REMARK UNBOUND:                -1.018
REMARK  Name = 
REMARK  5 active torsions:
REMARK  status: ('A' for Active; 'I' for Inactive)
REMARK    1  A    between atoms: C_2  and  C_4
REMARK    2  A    between atoms: C_8  and  O_9
REMARK    3  A    between atoms: O_9  and  C_10
REMARK    4  A    between atoms: C_10  and  C_11
REMARK    5  A    between atoms: C_16  and  C_17
REMARK                            x       y       z     vdW  Elec       q    Type
REMARK                         _______ _______ _______ _____ _____    ______ ____
ROOT
ATOM      1  C   UNL     1      46.189   7.057  12.682  0.00  0.00    +0.000 C 
ENDROOT
BRANCH   1   2
ATOM      2  C   UNL     1      45.248   6.164  11.915  0.00  0.00    +0.000 A 
ATOM      3  C   UNL     1      43.867   6.256  12.098  0.00  0.00    +0.000 A 
ATOM      4  C   UNL     1      43.022   5.454  11.344  0.00  0.00    +0.000 A 
ATOM      5  F   UNL     1      41.697   5.568  11.499  0.00  0.00    +0.000 F 
ATOM      6  C   UNL     1      43.525   4.561  10.399  0.00  0.00    +0.000 A 
ATOM      7  C   UNL     1      44.906   4.454  10.173  0.00  0.00    +0.000 A 
ATOM      8  C   UNL     1      45.752   5.247  10.974  0.00  0.00    +0.000 A 
BRANCH   7   9
ATOM      9  C   UNL     1      45.457   3.627   9.070  0.00  0.00    +0.000 A 
ATOM     10  C   UNL     1      45.989   4.231   7.917  0.00  0.00    +0.000 A 
ATOM     11  C   UNL     1      46.609   3.477   6.914  0.00  0.00    +0.000 A 
ATOM     12  C   UNL     1      46.714   2.097   7.048  0.00  0.00    +0.000 A 
ATOM     13  C   UNL     1      46.177   1.470   8.168  0.00  0.00    +0.000 A 
ATOM     14  C   UNL     1      45.545   2.226   9.162  0.00  0.00    +0.000 A 
ENDBRANCH   7   9
ENDBRANCH   1   2
BRANCH   1  15
ATOM     15  O   UNL     1      47.425   6.378  12.874  0.00  0.00    +0.000 OA
BRANCH  15  20
ATOM     16  C   UNL     1      47.864   4.741  16.086  0.00  0.00    +0.000 A 
ATOM     17  C   UNL     1      48.571   5.696  16.823  0.00  0.00    +0.000 A 
ATOM     18  C   UNL     1      48.923   6.908  16.232  0.00  0.00    +0.000 A 
ATOM     19  C   UNL     1      48.560   7.174  14.910  0.00  0.00    +0.000 A 
ATOM     20  C   UNL     1      47.841   6.233  14.172  0.00  0.00    +0.000 A 
ATOM     21  C   UNL     1      47.488   5.017  14.765  0.00  0.00    +0.000 A 
BRANCH  16  23
ATOM     22  N   UNL     1      48.490   2.495  16.793  0.00  0.00    +0.000 N 
ATOM     23  C   UNL     1      47.519   3.456  16.748  0.00  0.00    +0.000 C 
ATOM     24  O   UNL     1      46.427   3.275  17.272  0.00  0.00    +0.000 OA
ATOM     25  H   UNL     1      48.280   1.670  17.338  0.00  0.00    +0.000 HD
ATOM     26  H   UNL     1      49.460   2.693  16.592  0.00  0.00    +0.000 HD
ENDBRANCH  16  23
ENDBRANCH  15  20
ENDBRANCH   1  15
TORSDOF 5
ENDMDL
MODEL 7
REMARK VINA RESULT:    -7.439      3.624      7.540
REMARK INTER + INTRA:         -10.632
REMARK INTER:                  -9.696
REMARK INTRA:                  -0.936
REMARK UNBOUND:                -1.018
REMARK  Name = 
REMARK  5 active torsions:
REMARK  status: ('A' for Active; 'I' for Inactive)
REMARK    1  A    between atoms: C_2  and  C_4
REMARK    2  A    between atoms: C_8  and  O_9
REMARK    3  A    between atoms: O_9  and  C_10
REMARK    4  A    between atoms: C_10  and  C_11
REMARK    5  A    between atoms: C_16  and  C_17
REMARK                            x       y       z     vdW  Elec       q    Type
REMARK                         _______ _______ _______ _____ _____    ______ ____
ROOT
ATOM      1  C   UNL     1      44.987   5.678  11.055  0.00  0.00    +0.000 C 
ENDROOT
BRANCH   1   2
ATOM      2  C   UNL     1      46.209   6.092  11.832  0.00  0.00    +0.000 A 
ATOM      3  C   UNL     1      47.042   7.111  11.364  0.00  0.00    +0.000 A 
ATOM      4  C   UNL     1      48.135   7.504  12.123  0.00  0.00    +0.000 A 
ATOM      5  F   UNL     1      48.913   8.502  11.687  0.00  0.00    +0.000 F 
ATOM      6  C   UNL     1      48.415   6.907  13.351  0.00  0.00    +0.000 A 
ATOM      7  C   UNL     1      47.590   5.894  13.864  0.00  0.00    +0.000 A 
ATOM      8  C   UNL     1      46.507   5.479  13.063  0.00  0.00    +0.000 A 
BRANCH   7   9
ATOM      9  C   UNL     1      47.776   5.352  15.234  0.00  0.00    +0.000 A 
ATOM     10  C   UNL     1      48.573   6.030  16.172  0.00  0.00    +0.000 A 
ATOM     11  C   UNL     1      48.675   5.595  17.498  0.00  0.00    +0.000 A 
ATOM     12  C   UNL     1      47.975   4.468  17.915  0.00  0.00    +0.000 A 
ATOM     13  C   UNL     1      47.195   3.764  17.003  0.00  0.00    +0.000 A 
ATOM     14  C   UNL     1      47.106   4.195  15.674  0.00  0.00    +0.000 A 
ENDBRANCH   7   9
ENDBRANCH   1   2
BRANCH   1  15
ATOM     15  O   UNL     1      45.326   5.565   9.677  0.00  0.00    +0.000 OA
BRANCH  15  20
ATOM     16  C   UNL     1      46.495   2.955   7.438  0.00  0.00    +0.000 A 
ATOM     17  C   UNL     1      45.960   1.797   8.011  0.00  0.00    +0.000 A 
ATOM     18  C   UNL     1      45.203   1.885   9.178  0.00  0.00    +0.000 A 
ATOM     19  C   UNL     1      44.970   3.129   9.770  0.00  0.00    +0.000 A 
ATOM     20  C   UNL     1      45.488   4.292   9.196  0.00  0.00    +0.000 A 
ATOM     21  C   UNL     1      46.246   4.202   8.025  0.00  0.00    +0.000 A 
BRANCH  16  23
ATOM     22  N   UNL     1      48.582   2.346   6.339  0.00  0.00    +0.000 N 
ATOM     23  C   UNL     1      47.306   2.817   6.201  0.00  0.00    +0.000 C 
ATOM     24  O   UNL     1      46.843   3.071   5.096  0.00  0.00    +0.000 OA
ATOM     25  H   UNL     1      49.085   2.155   5.483  0.00  0.00    +0.000 HD
ATOM     26  H   UNL     1      48.910   1.905   7.186  0.00  0.00    +0.000 HD
ENDBRANCH  16  23
ENDBRANCH  15  20
ENDBRANCH   1  15
TORSDOF 5
ENDMDL
MODEL 8
REMARK VINA RESULT:    -7.319      2.453      3.054
REMARK INTER + INTRA:         -10.477
REMARK INTER:                  -9.498
REMARK INTRA:                  -0.979
REMARK UNBOUND:                -1.018
REMARK  Name = 
REMARK  5 active torsions:
REMARK  status: ('A' for Active; 'I' for Inactive)
REMARK    1  A    between atoms: C_2  and  C_4
REMARK    2  A    between atoms: C_8  and  O_9
REMARK    3  A    between atoms: O_9  and  C_10
REMARK    4  A    between atoms: C_10  and  C_11
REMARK    5  A    between atoms: C_16  and  C_17
REMARK                            x       y       z     vdW  Elec       q    Type
REMARK                         _______ _______ _______ _____ _____    ______ ____
ROOT
ATOM      1  C   UNL     1      46.018   4.642  13.957  0.00  0.00    +0.000 C 
ENDROOT
BRANCH   1   2
ATOM      2  C   UNL     1      45.137   4.595  12.735  0.00  0.00    +0.000 A 
ATOM      3  C   UNL     1      43.914   5.270  12.710  0.00  0.00    +0.000 A 
ATOM      4  C   UNL     1      43.145   5.248  11.555  0.00  0.00    +0.000 A 
ATOM      5  F   UNL     1      41.989   5.923  11.523  0.00  0.00    +0.000 F 
ATOM      6  C   UNL     1      43.573   4.572  10.414  0.00  0.00    +0.000 A 
ATOM      7  C   UNL     1      44.805   3.900  10.394  0.00  0.00    +0.000 A 
ATOM      8  C   UNL     1      45.555   3.898  11.587  0.00  0.00    +0.000 A 
BRANCH   7   9
ATOM      9  C   UNL     1      45.352   3.306   9.149  0.00  0.00    +0.000 A 
ATOM     10  C   UNL     1      45.753   4.124   8.079  0.00  0.00    +0.000 A 
ATOM     11  C   UNL     1      46.370   3.593   6.940  0.00  0.00    +0.000 A 
ATOM     12  C   UNL     1      46.604   2.226   6.851  0.00  0.00    +0.000 A 
ATOM     13  C   UNL     1      46.198   1.388   7.886  0.00  0.00    +0.000 A 
ATOM     14  C   UNL     1      45.569   1.922   9.017  0.00  0.00    +0.000 A 
ENDBRANCH   7   9
ENDBRANCH   1   2
BRANCH   1  15
ATOM     15  O   UNL     1      47.363   4.881  13.554  0.00  0.00    +0.000 OA
BRANCH  15  20
ATOM     16  C   UNL     1      48.367   8.284  14.330  0.00  0.00    +0.000 A 
ATOM     17  C   UNL     1      48.409   8.886  13.069  0.00  0.00    +0.000 A 
ATOM     18  C   UNL     1      48.109   8.139  11.932  0.00  0.00    +0.000 A 
ATOM     19  C   UNL     1      47.757   6.792  12.051  0.00  0.00    +0.000 A 
ATOM     20  C   UNL     1      47.697   6.187  13.308  0.00  0.00    +0.000 A 
ATOM     21  C   UNL     1      47.998   6.937  14.448  0.00  0.00    +0.000 A 
BRANCH  16  23
ATOM     22  N   UNL     1      47.689   9.415  16.378  0.00  0.00    +0.000 N 
ATOM     23  C   UNL     1      48.705   9.111  15.517  0.00  0.00    +0.000 C 
ATOM     24  O   UNL     1      49.854   9.472  15.743  0.00  0.00    +0.000 OA
ATOM     25  H   UNL     1      47.951   9.884  17.234  0.00  0.00    +0.000 HD
ATOM     26  H   UNL     1      46.797   8.941  16.355  0.00  0.00    +0.000 HD
ENDBRANCH  16  23
ENDBRANCH  15  20
ENDBRANCH   1  15
TORSDOF 5
ENDMDL
MODEL 9
REMARK VINA RESULT:    -7.139      2.193      2.898
REMARK INTER + INTRA:         -10.245
REMARK INTER:                  -9.449
REMARK INTRA:                  -0.796
REMARK UNBOUND:                -1.018
REMARK  Name = 
REMARK  5 active torsions:
REMARK  status: ('A' for Active; 'I' for Inactive)
REMARK    1  A    between atoms: C_2  and  C_4
REMARK    2  A    between atoms: C_8  and  O_9
REMARK    3  A    between atoms: O_9  and  C_10
REMARK    4  A    between atoms: C_10  and  C_11
REMARK    5  A    between atoms: C_16  and  C_17
REMARK                            x       y       z     vdW  Elec       q    Type
REMARK                         _______ _______ _______ _____ _____    ______ ____
ROOT
ATOM      1  C   UNL     1      46.266   7.285  12.363  0.00  0.00    +0.000 C 
ENDROOT
BRANCH   1   2
ATOM      2  C   UNL     1      45.331   6.297  11.715  0.00  0.00    +0.000 A 
ATOM      3  C   UNL     1      43.963   6.317  11.999  0.00  0.00    +0.000 A 
ATOM      4  C   UNL     1      43.118   5.426  11.353  0.00  0.00    +0.000 A 
ATOM      5  F   UNL     1      41.803   5.468  11.603  0.00  0.00    +0.000 F 
ATOM      6  C   UNL     1      43.606   4.515  10.418  0.00  0.00    +0.000 A 
ATOM      7  C   UNL     1      44.971   4.479  10.092  0.00  0.00    +0.000 A 
ATOM      8  C   UNL     1      45.821   5.363  10.785  0.00  0.00    +0.000 A 
BRANCH   7   9
ATOM      9  C   UNL     1      45.490   3.628   8.992  0.00  0.00    +0.000 A 
ATOM     10  C   UNL     1      46.056   4.207   7.842  0.00  0.00    +0.000 A 
ATOM     11  C   UNL     1      46.648   3.426   6.843  0.00  0.00    +0.000 A 
ATOM     12  C   UNL     1      46.690   2.043   6.977  0.00  0.00    +0.000 A 
ATOM     13  C   UNL     1      46.118   1.440   8.093  0.00  0.00    +0.000 A 
ATOM     14  C   UNL     1      45.515   2.224   9.084  0.00  0.00    +0.000 A 
ENDBRANCH   7   9
ENDBRANCH   1   2
BRANCH   1  15
ATOM     15  O   UNL     1      47.512   6.647  12.622  0.00  0.00    +0.000 OA
BRANCH  15  20
ATOM     16  C   UNL     1      48.704   6.202  16.024  0.00  0.00    +0.000 A 
ATOM     17  C   UNL     1      48.074   5.017  16.417  0.00  0.00    +0.000 A 
ATOM     18  C   UNL     1      47.222   4.357  15.533  0.00  0.00    +0.000 A 
ATOM     19  C   UNL     1      47.004   4.873  14.253  0.00  0.00    +0.000 A 
ATOM     20  C   UNL     1      47.641   6.047  13.847  0.00  0.00    +0.000 A 
ATOM     21  C   UNL     1      48.496   6.707  14.734  0.00  0.00    +0.000 A 
BRANCH  16  23
ATOM     22  N   UNL     1      49.190   6.908  18.304  0.00  0.00    +0.000 N 
ATOM     23  C   UNL     1      49.595   6.881  16.999  0.00  0.00    +0.000 C 
ATOM     24  O   UNL     1      50.671   7.359  16.663  0.00  0.00    +0.000 OA
ATOM     25  H   UNL     1      49.853   7.276  18.972  0.00  0.00    +0.000 HD
ATOM     26  H   UNL     1      48.443   6.325  18.653  0.00  0.00    +0.000 HD
ENDBRANCH  16  23
ENDBRANCH  15  20
ENDBRANCH   1  15
TORSDOF 5
ENDMDL
