MODEL 1
REMARK VINA RESULT:    -7.979      0.000      0.000
REMARK INTER + INTRA:         -14.172
REMARK INTER:                 -12.410
REMARK INTRA:                  -1.762
REMARK UNBOUND:                -1.762
REMARK  Name = 
REMARK  10 active torsions:
REMARK  status: ('A' for Active; 'I' for Inactive)
REMARK    1  A    between atoms: C_2  and  C_23
REMARK    2  A    between atoms: N_3  and  C_4
REMARK    3  A    between atoms: C_4  and  C_5
REMARK    4  A    between atoms: C_8  and  C_9
REMARK    5  A    between atoms: C_9  and  N_10
REMARK    6  A    between atoms: N_10  and  C_11
REMARK    7  A    between atoms: N_10  and  C_14
REMARK    8  A    between atoms: C_11  and  C_12
REMARK    9  A    between atoms: C_12  and  O_13
REMARK   10  A    between atoms: C_14  and  C_15
REMARK                            x       y       z     vdW  Elec       q    Type
REMARK                         _______ _______ _______ _____ _____    ______ ____
ROOT
ATOM      1  C   UNL     1      46.548   7.706  12.615  0.00  0.00    +0.000 A 
ATOM      2  C   UNL     1      47.076   6.719  11.773  0.00  0.00    +0.000 A 
ATOM      3  C   UNL     1      46.243   5.993  10.918  0.00  0.00    +0.000 A 
ATOM      4  C   UNL     1      44.855   6.181  10.953  0.00  0.00    +0.000 A 
ATOM      5  C   UNL     1      44.340   7.241  11.711  0.00  0.00    +0.000 A 
ATOM      6  C   UNL     1      45.183   8.007  12.524  0.00  0.00    +0.000 A 
ENDROOT
BRANCH   1   7
ATOM      7  C   UNL     1      47.432   8.407  13.612  0.00  0.00    +0.000 C 
BRANCH   7  10
ATOM      8  O   UNL     1      49.747   6.954  13.999  0.00  0.00    +0.000 OA
ATOM      9  C   UNL     1      48.908   6.960  14.898  0.00  0.00    +0.000 C 
ATOM     10  N   UNL     1      47.701   7.606  14.775  0.00  0.00    +0.000 N 
ATOM     11  H   UNL     1      47.181   7.844  15.613  0.00  0.00    +0.000 HD
BRANCH   9  12
ATOM     12  C   UNL     1      49.133   6.242  16.154  0.00  0.00    +0.000 A 
ATOM     13  C   UNL     1      50.063   6.684  17.084  0.00  0.00    +0.000 A 
ATOM     14  S   UNL     1      50.142   5.695  18.479  0.00  0.00    +0.000 S 
ATOM     15  C   UNL     1      48.920   4.669  17.888  0.00  0.00    +0.000 A 
ATOM     16  N   UNL     1      48.472   3.602  18.606  0.00  0.00    +0.000 NA
ATOM     17  C   UNL     1      47.523   2.938  18.032  0.00  0.00    +0.000 A 
ATOM     18  N   UNL     1      46.975   3.246  16.810  0.00  0.00    +0.000 N 
ATOM     19  C   UNL     1      47.424   4.271  16.036  0.00  0.00    +0.000 A 
ATOM     20  O   UNL     1      46.969   4.448  14.916  0.00  0.00    +0.000 OA
ATOM     21  C   UNL     1      48.474   5.062  16.640  0.00  0.00    +0.000 A 
ATOM     22  H   UNL     1      46.248   2.667  16.409  0.00  0.00    +0.000 HD
ENDBRANCH   9  12
ENDBRANCH   7  10
ENDBRANCH   1   7
BRANCH   4  23
ATOM     23  C   UNL     1      43.930   5.215  10.239  0.00  0.00    +0.000 C 
BRANCH  23  24
ATOM     24  N   UNL     1      44.491   3.837  10.103  0.00  0.00    +0.000 NA
BRANCH  24  25
ATOM     25  C   UNL     1      43.811   2.871  11.007  0.00  0.00    +0.000 C 
BRANCH  25  26
ATOM     26  C   UNL     1      44.016   3.118  12.521  0.00  0.00    +0.000 C 
BRANCH  26  27
ATOM     27  O   UNL     1      45.355   2.813  12.911  0.00  0.00    +0.000 OA
ATOM     28  H   UNL     1      45.943   3.411  12.420  0.00  0.00    +0.000 HD
ENDBRANCH  26  27
ENDBRANCH  25  26
ENDBRANCH  24  25
BRANCH  24  29
ATOM     29  C   UNL     1      44.338   3.400   8.692  0.00  0.00    +0.000 C 
BRANCH  29  30
ATOM     30  C   UNL     1      45.619   2.954   8.012  0.00  0.00    +0.000 A 
ATOM     31  C   UNL     1      46.073   1.642   8.141  0.00  0.00    +0.000 A 
ATOM     32  C   UNL     1      47.202   1.252   7.427  0.00  0.00    +0.000 A 
ATOM     33  C   UNL     1      47.858   2.179   6.628  0.00  0.00    +0.000 A 
ATOM     34  C   UNL     1      47.364   3.472   6.586  0.00  0.00    +0.000 A 
ATOM     35  N   UNL     1      46.263   3.877   7.251  0.00  0.00    +0.000 NA
ENDBRANCH  29  30
ENDBRANCH  24  29
ENDBRANCH  23  24
ENDBRANCH   4  23
TORSDOF 10
ENDMDL
MODEL 2
REMARK VINA RESULT:    -7.319      1.951      2.429
REMARK INTER + INTRA:         -13.147
REMARK INTER:                 -12.264
REMARK INTRA:                  -0.882
REMARK UNBOUND:                -1.762
REMARK  Name = 
REMARK  10 active torsions:
REMARK  status: ('A' for Active; 'I' for Inactive)
REMARK    1  A    between atoms: C_2  and  C_23
REMARK    2  A    between atoms: N_3  and  C_4
REMARK    3  A    between atoms: C_4  and  C_5
REMARK    4  A    between atoms: C_8  and  C_9
REMARK    5  A    between atoms: C_9  and  N_10
REMARK    6  A    between atoms: N_10  and  C_11
REMARK    7  A    between atoms: N_10  and  C_14
REMARK    8  A    between atoms: C_11  and  C_12
REMARK    9  A    between atoms: C_12  and  O_13
REMARK   10  A    between atoms: C_14  and  C_15
REMARK                            x       y       z     vdW  Elec       q    Type
REMARK                         _______ _______ _______ _____ _____    ______ ____
ROOT
ATOM      1  C   UNL     1      48.469   6.779  13.305  0.00  0.00    +0.000 A 
ATOM      2  C   UNL     1      47.492   5.891  13.776  0.00  0.00    +0.000 A 
ATOM      3  C   UNL     1      46.407   5.536  12.973  0.00  0.00    +0.000 A 
ATOM      4  C   UNL     1      46.232   6.129  11.716  0.00  0.00    +0.000 A 
ATOM      5  C   UNL     1      47.261   6.928  11.201  0.00  0.00    +0.000 A 
ATOM      6  C   UNL     1      48.378   7.237  11.985  0.00  0.00    +0.000 A 
ENDROOT
BRANCH   1   7
ATOM      7  C   UNL     1      49.576   7.243  14.214  0.00  0.00    +0.000 C 
BRANCH   7  10
ATOM      8  O   UNL     1      50.877   6.000  16.306  0.00  0.00    +0.000 OA
ATOM      9  C   UNL     1      49.911   6.716  16.566  0.00  0.00    +0.000 C 
ATOM     10  N   UNL     1      49.166   7.330  15.589  0.00  0.00    +0.000 N 
ATOM     11  H   UNL     1      48.590   8.129  15.835  0.00  0.00    +0.000 HD
BRANCH   9  12
ATOM     12  C   UNL     1      49.474   6.932  17.946  0.00  0.00    +0.000 A 
ATOM     13  C   UNL     1      49.304   8.209  18.461  0.00  0.00    +0.000 A 
ATOM     14  S   UNL     1      48.774   8.213  20.089  0.00  0.00    +0.000 S 
ATOM     15  C   UNL     1      48.734   6.513  20.139  0.00  0.00    +0.000 A 
ATOM     16  N   UNL     1      48.339   5.838  21.254  0.00  0.00    +0.000 NA
ATOM     17  C   UNL     1      48.337   4.552  21.123  0.00  0.00    +0.000 A 
ATOM     18  N   UNL     1      48.686   3.879  19.977  0.00  0.00    +0.000 N 
ATOM     19  C   UNL     1      49.134   4.507  18.856  0.00  0.00    +0.000 A 
ATOM     20  O   UNL     1      49.522   3.861  17.895  0.00  0.00    +0.000 OA
ATOM     21  C   UNL     1      49.136   5.952  18.941  0.00  0.00    +0.000 A 
ATOM     22  H   UNL     1      48.685   2.867  19.952  0.00  0.00    +0.000 HD
ENDBRANCH   9  12
ENDBRANCH   7  10
ENDBRANCH   1   7
BRANCH   4  23
ATOM     23  C   UNL     1      44.926   5.962  10.963  0.00  0.00    +0.000 C 
BRANCH  23  24
ATOM     24  N   UNL     1      44.554   4.537  10.713  0.00  0.00    +0.000 NA
BRANCH  24  25
ATOM     25  C   UNL     1      43.337   4.142  11.471  0.00  0.00    +0.000 C 
BRANCH  25  26
ATOM     26  C   UNL     1      42.485   5.311  12.021  0.00  0.00    +0.000 C 
BRANCH  26  27
ATOM     27  O   UNL     1      42.748   5.525  13.408  0.00  0.00    +0.000 OA
ATOM     28  H   UNL     1      42.153   6.232  13.710  0.00  0.00    +0.000 HD
ENDBRANCH  26  27
ENDBRANCH  25  26
ENDBRANCH  24  25
BRANCH  24  29
ATOM     29  C   UNL     1      44.325   4.354   9.258  0.00  0.00    +0.000 C 
BRANCH  29  30
ATOM     30  C   UNL     1      45.360   3.505   8.543  0.00  0.00    +0.000 A 
ATOM     31  C   UNL     1      45.453   2.137   8.793  0.00  0.00    +0.000 A 
ATOM     32  C   UNL     1      46.355   1.381   8.049  0.00  0.00    +0.000 A 
ATOM     33  C   UNL     1      47.151   2.008   7.100  0.00  0.00    +0.000 A 
ATOM     34  C   UNL     1      47.024   3.378   6.942  0.00  0.00    +0.000 A 
ATOM     35  N   UNL     1      46.148   4.136   7.634  0.00  0.00    +0.000 NA
ENDBRANCH  29  30
ENDBRANCH  24  29
ENDBRANCH  23  24
ENDBRANCH   4  23
TORSDOF 10
ENDMDL
MODEL 3
REMARK VINA RESULT:    -7.303      2.357      2.801
REMARK INTER + INTRA:         -13.121
REMARK INTER:                 -12.260
REMARK INTRA:                  -0.861
REMARK UNBOUND:                -1.762
REMARK  Name = 
REMARK  10 active torsions:
REMARK  status: ('A' for Active; 'I' for Inactive)
REMARK    1  A    between atoms: C_2  and  C_23
REMARK    2  A    between atoms: N_3  and  C_4
REMARK    3  A    between atoms: C_4  and  C_5
REMARK    4  A    between atoms: C_8  and  C_9
REMARK    5  A    between atoms: C_9  and  N_10
REMARK    6  A    between atoms: N_10  and  C_11
REMARK    7  A    between atoms: N_10  and  C_14
REMARK    8  A    between atoms: C_11  and  C_12
REMARK    9  A    between atoms: C_12  and  O_13
REMARK   10  A    between atoms: C_14  and  C_15
REMARK                            x       y       z     vdW  Elec       q    Type
REMARK                         _______ _______ _______ _____ _____    ______ ____
ROOT
ATOM      1  C   UNL     1      47.817   6.541  14.217  0.00  0.00    +0.000 A 
ATOM      2  C   UNL     1      46.996   5.406  14.236  0.00  0.00    +0.000 A 
ATOM      3  C   UNL     1      46.278   5.028  13.100  0.00  0.00    +0.000 A 
ATOM      4  C   UNL     1      46.300   5.827  11.950  0.00  0.00    +0.000 A 
ATOM      5  C   UNL     1      47.203   6.896  11.892  0.00  0.00    +0.000 A 
ATOM      6  C   UNL     1      47.967   7.241  13.013  0.00  0.00    +0.000 A 
ENDROOT
BRANCH   1   7
ATOM      7  C   UNL     1      48.501   7.006  15.475  0.00  0.00    +0.000 C 
BRANCH   7  10
ATOM      8  O   UNL     1      49.618   6.913  17.997  0.00  0.00    +0.000 OA
ATOM      9  C   UNL     1      50.074   6.166  17.132  0.00  0.00    +0.000 C 
ATOM     10  N   UNL     1      49.622   6.181  15.834  0.00  0.00    +0.000 N 
ATOM     11  H   UNL     1      49.792   5.375  15.242  0.00  0.00    +0.000 HD
BRANCH   9  12
ATOM     12  C   UNL     1      51.159   5.230  17.429  0.00  0.00    +0.000 A 
ATOM     13  C   UNL     1      52.409   5.675  17.835  0.00  0.00    +0.000 A 
ATOM     14  S   UNL     1      53.511   4.401  18.138  0.00  0.00    +0.000 S 
ATOM     15  C   UNL     1      52.341   3.225  17.761  0.00  0.00    +0.000 A 
ATOM     16  N   UNL     1      52.614   1.893  17.835  0.00  0.00    +0.000 NA
ATOM     17  C   UNL     1      51.613   1.129  17.544  0.00  0.00    +0.000 A 
ATOM     18  N   UNL     1      50.362   1.574  17.192  0.00  0.00    +0.000 N 
ATOM     19  C   UNL     1      50.056   2.892  17.055  0.00  0.00    +0.000 A 
ATOM     20  O   UNL     1      48.957   3.236  16.649  0.00  0.00    +0.000 OA
ATOM     21  C   UNL     1      51.137   3.794  17.391  0.00  0.00    +0.000 A 
ATOM     22  H   UNL     1      49.629   0.917  16.952  0.00  0.00    +0.000 HD
ENDBRANCH   9  12
ENDBRANCH   7  10
ENDBRANCH   1   7
BRANCH   4  23
ATOM     23  C   UNL     1      45.319   5.577  10.821  0.00  0.00    +0.000 C 
BRANCH  23  24
ATOM     24  N   UNL     1      44.814   4.172  10.763  0.00  0.00    +0.000 NA
BRANCH  24  25
ATOM     25  C   UNL     1      43.690   3.947  11.712  0.00  0.00    +0.000 C 
BRANCH  25  26
ATOM     26  C   UNL     1      42.742   5.153  11.919  0.00  0.00    +0.000 C 
BRANCH  26  27
ATOM     27  O   UNL     1      42.563   5.428  13.308  0.00  0.00    +0.000 OA
ATOM     28  H   UNL     1      41.606   5.471  13.474  0.00  0.00    +0.000 HD
ENDBRANCH  26  27
ENDBRANCH  25  26
ENDBRANCH  24  25
BRANCH  24  29
ATOM     29  C   UNL     1      44.370   3.885   9.377  0.00  0.00    +0.000 C 
BRANCH  29  30
ATOM     30  C   UNL     1      45.366   3.120   8.524  0.00  0.00    +0.000 A 
ATOM     31  C   UNL     1      46.165   3.785   7.595  0.00  0.00    +0.000 A 
ATOM     32  C   UNL     1      47.128   3.059   6.900  0.00  0.00    +0.000 A 
ATOM     33  C   UNL     1      47.250   1.694   7.130  0.00  0.00    +0.000 A 
ATOM     34  C   UNL     1      46.391   1.104   8.040  0.00  0.00    +0.000 A 
ATOM     35  N   UNL     1      45.460   1.783   8.743  0.00  0.00    +0.000 NA
ENDBRANCH  29  30
ENDBRANCH  24  29
ENDBRANCH  23  24
ENDBRANCH   4  23
TORSDOF 10
ENDMDL
MODEL 4
REMARK VINA RESULT:    -7.255      2.368      2.906
REMARK INTER + INTRA:         -13.046
REMARK INTER:                 -12.127
REMARK INTRA:                  -0.920
REMARK UNBOUND:                -1.762
REMARK  Name = 
REMARK  10 active torsions:
REMARK  status: ('A' for Active; 'I' for Inactive)
REMARK    1  A    between atoms: C_2  and  C_23
REMARK    2  A    between atoms: N_3  and  C_4
REMARK    3  A    between atoms: C_4  and  C_5
REMARK    4  A    between atoms: C_8  and  C_9
REMARK    5  A    between atoms: C_9  and  N_10
REMARK    6  A    between atoms: N_10  and  C_11
REMARK    7  A    between atoms: N_10  and  C_14
REMARK    8  A    between atoms: C_11  and  C_12
REMARK    9  A    between atoms: C_12  and  O_13
REMARK   10  A    between atoms: C_14  and  C_15
REMARK                            x       y       z     vdW  Elec       q    Type
REMARK                         _______ _______ _______ _____ _____    ______ ____
ROOT
ATOM      1  C   UNL     1      47.726   6.653  13.850  0.00  0.00    +0.000 A 
ATOM      2  C   UNL     1      47.270   7.695  13.033  0.00  0.00    +0.000 A 
ATOM      3  C   UNL     1      46.282   7.466  12.073  0.00  0.00    +0.000 A 
ATOM      4  C   UNL     1      45.794   6.171  11.854  0.00  0.00    +0.000 A 
ATOM      5  C   UNL     1      46.167   5.153  12.742  0.00  0.00    +0.000 A 
ATOM      6  C   UNL     1      47.114   5.398  13.742  0.00  0.00    +0.000 A 
ENDROOT
BRANCH   1   7
ATOM      7  C   UNL     1      48.867   6.880  14.806  0.00  0.00    +0.000 C 
BRANCH   7  10
ATOM      8  O   UNL     1      50.597   5.729  16.622  0.00  0.00    +0.000 OA
ATOM      9  C   UNL     1      49.472   6.040  17.009  0.00  0.00    +0.000 C 
ATOM     10  N   UNL     1      48.523   6.565  16.166  0.00  0.00    +0.000 N 
ATOM     11  H   UNL     1      47.741   7.079  16.560  0.00  0.00    +0.000 HD
BRANCH   9  12
ATOM     12  C   UNL     1      49.061   5.836  18.400  0.00  0.00    +0.000 A 
ATOM     13  C   UNL     1      49.269   4.627  19.046  0.00  0.00    +0.000 A 
ATOM     14  S   UNL     1      48.721   4.628  20.668  0.00  0.00    +0.000 S 
ATOM     15  C   UNL     1      48.217   6.248  20.555  0.00  0.00    +0.000 A 
ATOM     16  N   UNL     1      47.663   6.902  21.613  0.00  0.00    +0.000 NA
ATOM     17  C   UNL     1      47.358   8.136  21.375  0.00  0.00    +0.000 A 
ATOM     18  N   UNL     1      47.562   8.778  20.178  0.00  0.00    +0.000 N 
ATOM     19  C   UNL     1      48.065   8.153  19.079  0.00  0.00    +0.000 A 
ATOM     20  O   UNL     1      48.140   8.740  18.011  0.00  0.00    +0.000 OA
ATOM     21  C   UNL     1      48.444   6.773  19.296  0.00  0.00    +0.000 A 
ATOM     22  H   UNL     1      47.277   9.741  20.053  0.00  0.00    +0.000 HD
ENDBRANCH   9  12
ENDBRANCH   7  10
ENDBRANCH   1   7
BRANCH   4  23
ATOM     23  C   UNL     1      44.936   5.868  10.641  0.00  0.00    +0.000 C 
BRANCH  23  24
ATOM     24  N   UNL     1      44.569   4.426  10.510  0.00  0.00    +0.000 NA
BRANCH  24  25
ATOM     25  C   UNL     1      43.359   4.088  11.307  0.00  0.00    +0.000 C 
BRANCH  25  26
ATOM     26  C   UNL     1      43.482   2.834  12.206  0.00  0.00    +0.000 C 
BRANCH  26  27
ATOM     27  O   UNL     1      43.068   1.662  11.504  0.00  0.00    +0.000 OA
ATOM     28  H   UNL     1      43.721   1.498  10.803  0.00  0.00    +0.000 HD
ENDBRANCH  26  27
ENDBRANCH  25  26
ENDBRANCH  24  25
BRANCH  24  29
ATOM     29  C   UNL     1      44.328   4.126   9.076  0.00  0.00    +0.000 C 
BRANCH  29  30
ATOM     30  C   UNL     1      45.408   3.304   8.397  0.00  0.00    +0.000 A 
ATOM     31  C   UNL     1      45.565   1.951   8.696  0.00  0.00    +0.000 A 
ATOM     32  C   UNL     1      46.507   1.214   7.985  0.00  0.00    +0.000 A 
ATOM     33  C   UNL     1      47.280   1.846   7.019  0.00  0.00    +0.000 A 
ATOM     34  C   UNL     1      47.088   3.202   6.811  0.00  0.00    +0.000 A 
ATOM     35  N   UNL     1      46.171   3.940   7.471  0.00  0.00    +0.000 NA
ENDBRANCH  29  30
ENDBRANCH  24  29
ENDBRANCH  23  24
ENDBRANCH   4  23
TORSDOF 10
ENDMDL
MODEL 5
REMARK VINA RESULT:    -6.453      3.793      5.134
REMARK INTER + INTRA:         -11.799
REMARK INTER:                 -10.674
REMARK INTRA:                  -1.125
REMARK UNBOUND:                -1.762
REMARK  Name = 
REMARK  10 active torsions:
REMARK  status: ('A' for Active; 'I' for Inactive)
REMARK    1  A    between atoms: C_2  and  C_23
REMARK    2  A    between atoms: N_3  and  C_4
REMARK    3  A    between atoms: C_4  and  C_5
REMARK    4  A    between atoms: C_8  and  C_9
REMARK    5  A    between atoms: C_9  and  N_10
REMARK    6  A    between atoms: N_10  and  C_11
REMARK    7  A    between atoms: N_10  and  C_14
REMARK    8  A    between atoms: C_11  and  C_12
REMARK    9  A    between atoms: C_12  and  O_13
REMARK   10  A    between atoms: C_14  and  C_15
REMARK                            x       y       z     vdW  Elec       q    Type
REMARK                         _______ _______ _______ _____ _____    ______ ____
ROOT
ATOM      1  C   UNL     1      46.794   8.392  12.672  0.00  0.00    +0.000 A 
ATOM      2  C   UNL     1      47.292   7.091  12.524  0.00  0.00    +0.000 A 
ATOM      3  C   UNL     1      46.543   6.112  11.869  0.00  0.00    +0.000 A 
ATOM      4  C   UNL     1      45.244   6.393  11.426  0.00  0.00    +0.000 A 
ATOM      5  C   UNL     1      44.790   7.717  11.473  0.00  0.00    +0.000 A 
ATOM      6  C   UNL     1      45.566   8.711  12.078  0.00  0.00    +0.000 A 
ENDROOT
BRANCH   1   7
ATOM      7  C   UNL     1      47.557   9.412  13.474  0.00  0.00    +0.000 C 
BRANCH   7  10
ATOM      8  O   UNL     1      48.418  11.006  11.391  0.00  0.00    +0.000 OA
ATOM      9  C   UNL     1      49.264  10.393  12.041  0.00  0.00    +0.000 C 
ATOM     10  N   UNL     1      48.928   9.532  13.058  0.00  0.00    +0.000 N 
ATOM     11  H   UNL     1      49.629   9.288  13.751  0.00  0.00    +0.000 HD
BRANCH   9  12
ATOM     12  C   UNL     1      50.692  10.521  11.745  0.00  0.00    +0.000 A 
ATOM     13  C   UNL     1      51.347  11.739  11.849  0.00  0.00    +0.000 A 
ATOM     14  S   UNL     1      53.013  11.641  11.467  0.00  0.00    +0.000 S 
ATOM     15  C   UNL     1      52.906   9.968  11.179  0.00  0.00    +0.000 A 
ATOM     16  N   UNL     1      53.995   9.231  10.826  0.00  0.00    +0.000 NA
ATOM     17  C   UNL     1      53.755   7.970  10.670  0.00  0.00    +0.000 A 
ATOM     18  N   UNL     1      52.527   7.377  10.842  0.00  0.00    +0.000 N 
ATOM     19  C   UNL     1      51.402   8.080  11.144  0.00  0.00    +0.000 A 
ATOM     20  O   UNL     1      50.317   7.522  11.194  0.00  0.00    +0.000 OA
ATOM     21  C   UNL     1      51.618   9.496  11.352  0.00  0.00    +0.000 A 
ATOM     22  H   UNL     1      52.405   6.385  10.679  0.00  0.00    +0.000 HD
ENDBRANCH   9  12
ENDBRANCH   7  10
ENDBRANCH   1   7
BRANCH   4  23
ATOM     23  C   UNL     1      44.329   5.273  10.969  0.00  0.00    +0.000 C 
BRANCH  23  24
ATOM     24  N   UNL     1      45.051   4.017  10.606  0.00  0.00    +0.000 NA
BRANCH  24  25
ATOM     25  C   UNL     1      44.944   2.988  11.675  0.00  0.00    +0.000 C 
BRANCH  25  26
ATOM     26  C   UNL     1      43.547   2.844  12.326  0.00  0.00    +0.000 C 
BRANCH  26  27
ATOM     27  O   UNL     1      42.803   1.794  11.709  0.00  0.00    +0.000 OA
ATOM     28  H   UNL     1      42.322   1.328  12.414  0.00  0.00    +0.000 HD
ENDBRANCH  26  27
ENDBRANCH  25  26
ENDBRANCH  24  25
BRANCH  24  29
ATOM     29  C   UNL     1      44.481   3.491   9.341  0.00  0.00    +0.000 C 
BRANCH  29  30
ATOM     30  C   UNL     1      45.479   2.827   8.409  0.00  0.00    +0.000 A 
ATOM     31  C   UNL     1      46.132   3.566   7.423  0.00  0.00    +0.000 A 
ATOM     32  C   UNL     1      47.105   2.938   6.651  0.00  0.00    +0.000 A 
ATOM     33  C   UNL     1      47.382   1.594   6.864  0.00  0.00    +0.000 A 
ATOM     34  C   UNL     1      46.660   0.923   7.837  0.00  0.00    +0.000 A 
ATOM     35  N   UNL     1      45.724   1.507   8.614  0.00  0.00    +0.000 NA
ENDBRANCH  29  30
ENDBRANCH  24  29
ENDBRANCH  23  24
ENDBRANCH   4  23
TORSDOF 10
ENDMDL
MODEL 6
REMARK VINA RESULT:    -6.452      2.332      3.088
REMARK INTER + INTRA:         -11.797
REMARK INTER:                 -10.698
REMARK INTRA:                  -1.099
REMARK UNBOUND:                -1.762
REMARK  Name = 
REMARK  10 active torsions:
REMARK  status: ('A' for Active; 'I' for Inactive)
REMARK    1  A    between atoms: C_2  and  C_23
REMARK    2  A    between atoms: N_3  and  C_4
REMARK    3  A    between atoms: C_4  and  C_5
REMARK    4  A    between atoms: C_8  and  C_9
REMARK    5  A    between atoms: C_9  and  N_10
REMARK    6  A    between atoms: N_10  and  C_11
REMARK    7  A    between atoms: N_10  and  C_14
REMARK    8  A    between atoms: C_11  and  C_12
REMARK    9  A    between atoms: C_12  and  O_13
REMARK   10  A    between atoms: C_14  and  C_15
REMARK                            x       y       z     vdW  Elec       q    Type
REMARK                         _______ _______ _______ _____ _____    ______ ____
ROOT
ATOM      1  C   UNL     1      47.801   6.951  13.986  0.00  0.00    +0.000 A 
ATOM      2  C   UNL     1      47.319   5.653  13.772  0.00  0.00    +0.000 A 
ATOM      3  C   UNL     1      46.579   5.349  12.627  0.00  0.00    +0.000 A 
ATOM      4  C   UNL     1      46.234   6.357  11.718  0.00  0.00    +0.000 A 
ATOM      5  C   UNL     1      46.807   7.626  11.873  0.00  0.00    +0.000 A 
ATOM      6  C   UNL     1      47.597   7.915  12.991  0.00  0.00    +0.000 A 
ENDROOT
BRANCH   1   7
ATOM      7  C   UNL     1      48.502   7.299  15.272  0.00  0.00    +0.000 C 
BRANCH   7  10
ATOM      8  O   UNL     1      48.014   5.724  17.485  0.00  0.00    +0.000 OA
ATOM      9  C   UNL     1      49.018   5.488  16.814  0.00  0.00    +0.000 C 
ATOM     10  N   UNL     1      49.375   6.253  15.730  0.00  0.00    +0.000 N 
ATOM     11  H   UNL     1      50.009   5.865  15.039  0.00  0.00    +0.000 HD
BRANCH   9  12
ATOM     12  C   UNL     1      49.920   4.386  17.154  0.00  0.00    +0.000 A 
ATOM     13  C   UNL     1      49.489   3.068  17.143  0.00  0.00    +0.000 A 
ATOM     14  S   UNL     1      50.721   1.954  17.561  0.00  0.00    +0.000 S 
ATOM     15  C   UNL     1      51.864   3.201  17.742  0.00  0.00    +0.000 A 
ATOM     16  N   UNL     1      53.158   2.943  18.077  0.00  0.00    +0.000 NA
ATOM     17  C   UNL     1      53.908   3.994  18.148  0.00  0.00    +0.000 A 
ATOM     18  N   UNL     1      53.483   5.279  17.908  0.00  0.00    +0.000 N 
ATOM     19  C   UNL     1      52.190   5.590  17.621  0.00  0.00    +0.000 A 
ATOM     20  O   UNL     1      51.843   6.755  17.508  0.00  0.00    +0.000 OA
ATOM     21  C   UNL     1      51.311   4.446  17.507  0.00  0.00    +0.000 A 
ATOM     22  H   UNL     1      54.121   6.060  18.006  0.00  0.00    +0.000 HD
ENDBRANCH   9  12
ENDBRANCH   7  10
ENDBRANCH   1   7
BRANCH   4  23
ATOM     23  C   UNL     1      45.209   6.094  10.632  0.00  0.00    +0.000 C 
BRANCH  23  24
ATOM     24  N   UNL     1      44.729   4.680  10.588  0.00  0.00    +0.000 NA
BRANCH  24  25
ATOM     25  C   UNL     1      43.528   4.477  11.443  0.00  0.00    +0.000 C 
BRANCH  25  26
ATOM     26  C   UNL     1      43.502   3.159  12.254  0.00  0.00    +0.000 C 
BRANCH  26  27
ATOM     27  O   UNL     1      43.399   3.424  13.653  0.00  0.00    +0.000 OA
ATOM     28  H   UNL     1      44.279   3.276  14.041  0.00  0.00    +0.000 HD
ENDBRANCH  26  27
ENDBRANCH  25  26
ENDBRANCH  24  25
BRANCH  24  29
ATOM     29  C   UNL     1      44.412   4.330   9.181  0.00  0.00    +0.000 C 
BRANCH  29  30
ATOM     30  C   UNL     1      45.454   3.481   8.477  0.00  0.00    +0.000 A 
ATOM     31  C   UNL     1      45.546   2.113   8.730  0.00  0.00    +0.000 A 
ATOM     32  C   UNL     1      46.454   1.356   7.996  0.00  0.00    +0.000 A 
ATOM     33  C   UNL     1      47.259   1.982   7.052  0.00  0.00    +0.000 A 
ATOM     34  C   UNL     1      47.132   3.352   6.890  0.00  0.00    +0.000 A 
ATOM     35  N   UNL     1      46.249   4.110   7.573  0.00  0.00    +0.000 NA
ENDBRANCH  29  30
ENDBRANCH  24  29
ENDBRANCH  23  24
ENDBRANCH   4  23
TORSDOF 10
ENDMDL
MODEL 7
REMARK VINA RESULT:    -6.442      1.824      2.553
REMARK INTER + INTRA:         -11.781
REMARK INTER:                  -9.774
REMARK INTRA:                  -2.008
REMARK UNBOUND:                -1.762
REMARK  Name = 
REMARK  10 active torsions:
REMARK  status: ('A' for Active; 'I' for Inactive)
REMARK    1  A    between atoms: C_2  and  C_23
REMARK    2  A    between atoms: N_3  and  C_4
REMARK    3  A    between atoms: C_4  and  C_5
REMARK    4  A    between atoms: C_8  and  C_9
REMARK    5  A    between atoms: C_9  and  N_10
REMARK    6  A    between atoms: N_10  and  C_11
REMARK    7  A    between atoms: N_10  and  C_14
REMARK    8  A    between atoms: C_11  and  C_12
REMARK    9  A    between atoms: C_12  and  O_13
REMARK   10  A    between atoms: C_14  and  C_15
REMARK                            x       y       z     vdW  Elec       q    Type
REMARK                         _______ _______ _______ _____ _____    ______ ____
ROOT
ATOM      1  C   UNL     1      49.199   8.620  13.754  0.00  0.00    +0.000 A 
ATOM      2  C   UNL     1      49.371   7.803  12.629  0.00  0.00    +0.000 A 
ATOM      3  C   UNL     1      48.276   7.429  11.846  0.00  0.00    +0.000 A 
ATOM      4  C   UNL     1      46.978   7.794  12.225  0.00  0.00    +0.000 A 
ATOM      5  C   UNL     1      46.815   8.700  13.281  0.00  0.00    +0.000 A 
ATOM      6  C   UNL     1      47.920   9.121  14.030  0.00  0.00    +0.000 A 
ENDROOT
BRANCH   1   7
ATOM      7  C   UNL     1      50.365   8.928  14.655  0.00  0.00    +0.000 C 
BRANCH   7  10
ATOM      8  O   UNL     1      49.443   9.556  17.179  0.00  0.00    +0.000 OA
ATOM      9  C   UNL     1      49.905   8.431  16.993  0.00  0.00    +0.000 C 
ATOM     10  N   UNL     1      50.440   8.046  15.787  0.00  0.00    +0.000 N 
ATOM     11  H   UNL     1      50.527   7.057  15.579  0.00  0.00    +0.000 HD
BRANCH   9  12
ATOM     12  C   UNL     1      49.943   7.437  18.066  0.00  0.00    +0.000 A 
ATOM     13  C   UNL     1      50.494   7.728  19.305  0.00  0.00    +0.000 A 
ATOM     14  S   UNL     1      50.413   6.417  20.403  0.00  0.00    +0.000 S 
ATOM     15  C   UNL     1      49.619   5.438  19.261  0.00  0.00    +0.000 A 
ATOM     16  N   UNL     1      49.228   4.167  19.555  0.00  0.00    +0.000 NA
ATOM     17  C   UNL     1      48.613   3.564  18.591  0.00  0.00    +0.000 A 
ATOM     18  N   UNL     1      48.345   4.117  17.362  0.00  0.00    +0.000 N 
ATOM     19  C   UNL     1      48.759   5.363  17.006  0.00  0.00    +0.000 A 
ATOM     20  O   UNL     1      48.579   5.776  15.871  0.00  0.00    +0.000 OA
ATOM     21  C   UNL     1      49.436   6.093  18.057  0.00  0.00    +0.000 A 
ATOM     22  H   UNL     1      47.879   3.578  16.644  0.00  0.00    +0.000 HD
ENDBRANCH   9  12
ENDBRANCH   7  10
ENDBRANCH   1   7
BRANCH   4  23
ATOM     23  C   UNL     1      45.775   7.169  11.547  0.00  0.00    +0.000 C 
BRANCH  23  24
ATOM     24  N   UNL     1      45.805   5.675  11.528  0.00  0.00    +0.000 NA
BRANCH  24  25
ATOM     25  C   UNL     1      45.542   5.099  12.874  0.00  0.00    +0.000 C 
BRANCH  25  26
ATOM     26  C   UNL     1      46.698   4.269  13.482  0.00  0.00    +0.000 C 
BRANCH  26  27
ATOM     27  O   UNL     1      46.448   3.975  14.856  0.00  0.00    +0.000 OA
ATOM     28  H   UNL     1      47.292   3.700  15.252  0.00  0.00    +0.000 HD
ENDBRANCH  26  27
ENDBRANCH  25  26
ENDBRANCH  24  25
BRANCH  24  29
ATOM     29  C   UNL     1      44.784   5.192  10.565  0.00  0.00    +0.000 C 
BRANCH  29  30
ATOM     30  C   UNL     1      45.288   4.198   9.534  0.00  0.00    +0.000 A 
ATOM     31  C   UNL     1      45.056   2.833   9.690  0.00  0.00    +0.000 A 
ATOM     32  C   UNL     1      45.455   1.966   8.677  0.00  0.00    +0.000 A 
ATOM     33  C   UNL     1      46.094   2.477   7.554  0.00  0.00    +0.000 A 
ATOM     34  C   UNL     1      46.321   3.842   7.496  0.00  0.00    +0.000 A 
ATOM     35  N   UNL     1      45.930   4.710   8.452  0.00  0.00    +0.000 NA
ENDBRANCH  29  30
ENDBRANCH  24  29
ENDBRANCH  23  24
ENDBRANCH   4  23
TORSDOF 10
ENDMDL
MODEL 8
REMARK VINA RESULT:    -6.430      4.612      6.266
REMARK INTER + INTRA:         -11.764
REMARK INTER:                 -10.408
REMARK INTRA:                  -1.356
REMARK UNBOUND:                -1.762
REMARK  Name = 
REMARK  10 active torsions:
REMARK  status: ('A' for Active; 'I' for Inactive)
REMARK    1  A    between atoms: C_2  and  C_23
REMARK    2  A    between atoms: N_3  and  C_4
REMARK    3  A    between atoms: C_4  and  C_5
REMARK    4  A    between atoms: C_8  and  C_9
REMARK    5  A    between atoms: C_9  and  N_10
REMARK    6  A    between atoms: N_10  and  C_11
REMARK    7  A    between atoms: N_10  and  C_14
REMARK    8  A    between atoms: C_11  and  C_12
REMARK    9  A    between atoms: C_12  and  O_13
REMARK   10  A    between atoms: C_14  and  C_15
REMARK                            x       y       z     vdW  Elec       q    Type
REMARK                         _______ _______ _______ _____ _____    ______ ____
ROOT
ATOM      1  C   UNL     1      48.445   7.416  12.554  0.00  0.00    +0.000 A 
ATOM      2  C   UNL     1      47.557   8.367  12.035  0.00  0.00    +0.000 A 
ATOM      3  C   UNL     1      46.226   8.031  11.775  0.00  0.00    +0.000 A 
ATOM      4  C   UNL     1      45.782   6.714  11.949  0.00  0.00    +0.000 A 
ATOM      5  C   UNL     1      46.635   5.793  12.570  0.00  0.00    +0.000 A 
ATOM      6  C   UNL     1      47.952   6.147  12.884  0.00  0.00    +0.000 A 
ENDROOT
BRANCH   1   7
ATOM      7  C   UNL     1      49.902   7.751  12.728  0.00  0.00    +0.000 C 
BRANCH   7  10
ATOM      8  O   UNL     1      52.248   9.205  12.693  0.00  0.00    +0.000 OA
ATOM      9  C   UNL     1      51.687   8.981  11.621  0.00  0.00    +0.000 C 
ATOM     10  N   UNL     1      50.487   8.316  11.543  0.00  0.00    +0.000 N 
ATOM     11  H   UNL     1      50.214   7.892  10.663  0.00  0.00    +0.000 HD
BRANCH   9  12
ATOM     12  C   UNL     1      52.255   9.444  10.354  0.00  0.00    +0.000 A 
ATOM     13  C   UNL     1      52.297  10.792  10.028  0.00  0.00    +0.000 A 
ATOM     14  S   UNL     1      53.017  11.094   8.504  0.00  0.00    +0.000 S 
ATOM     15  C   UNL     1      53.313   9.437   8.254  0.00  0.00    +0.000 A 
ATOM     16  N   UNL     1      53.937   8.983   7.132  0.00  0.00    +0.000 NA
ATOM     17  C   UNL     1      54.113   7.702   7.105  0.00  0.00    +0.000 A 
ATOM     18  N   UNL     1      53.728   6.835   8.099  0.00  0.00    +0.000 N 
ATOM     19  C   UNL     1      53.057   7.236   9.212  0.00  0.00    +0.000 A 
ATOM     20  O   UNL     1      52.654   6.417  10.023  0.00  0.00    +0.000 OA
ATOM     21  C   UNL     1      52.853   8.666   9.305  0.00  0.00    +0.000 A 
ATOM     22  H   UNL     1      53.876   5.838   8.000  0.00  0.00    +0.000 HD
ENDBRANCH   9  12
ENDBRANCH   7  10
ENDBRANCH   1   7
BRANCH   4  23
ATOM     23  C   UNL     1      44.431   6.283  11.413  0.00  0.00    +0.000 C 
BRANCH  23  24
ATOM     24  N   UNL     1      44.341   4.821  11.114  0.00  0.00    +0.000 NA
BRANCH  24  25
ATOM     25  C   UNL     1      43.288   4.154  11.926  0.00  0.00    +0.000 C 
BRANCH  25  26
ATOM     26  C   UNL     1      43.586   2.691  12.333  0.00  0.00    +0.000 C 
BRANCH  26  27
ATOM     27  O   UNL     1      44.984   2.494  12.540  0.00  0.00    +0.000 OA
ATOM     28  H   UNL     1      45.367   2.218  11.690  0.00  0.00    +0.000 HD
ENDBRANCH  26  27
ENDBRANCH  25  26
ENDBRANCH  24  25
BRANCH  24  29
ATOM     29  C   UNL     1      44.050   4.649   9.669  0.00  0.00    +0.000 C 
BRANCH  29  30
ATOM     30  C   UNL     1      45.069   3.831   8.898  0.00  0.00    +0.000 A 
ATOM     31  C   UNL     1      45.145   2.449   9.064  0.00  0.00    +0.000 A 
ATOM     32  C   UNL     1      46.031   1.727   8.271  0.00  0.00    +0.000 A 
ATOM     33  C   UNL     1      46.832   2.400   7.356  0.00  0.00    +0.000 A 
ATOM     34  C   UNL     1      46.723   3.778   7.282  0.00  0.00    +0.000 A 
ATOM     35  N   UNL     1      45.861   4.504   8.024  0.00  0.00    +0.000 NA
ENDBRANCH  29  30
ENDBRANCH  24  29
ENDBRANCH  23  24
ENDBRANCH   4  23
TORSDOF 10
ENDMDL
MODEL 9
REMARK VINA RESULT:    -6.307      2.892      8.242
REMARK INTER + INTRA:         -11.573
REMARK INTER:                  -9.692
REMARK INTRA:                  -1.881
REMARK UNBOUND:                -1.762
REMARK  Name = 
REMARK  10 active torsions:
REMARK  status: ('A' for Active; 'I' for Inactive)
REMARK    1  A    between atoms: C_2  and  C_23
REMARK    2  A    between atoms: N_3  and  C_4
REMARK    3  A    between atoms: C_4  and  C_5
REMARK    4  A    between atoms: C_8  and  C_9
REMARK    5  A    between atoms: C_9  and  N_10
REMARK    6  A    between atoms: N_10  and  C_11
REMARK    7  A    between atoms: N_10  and  C_14
REMARK    8  A    between atoms: C_11  and  C_12
REMARK    9  A    between atoms: C_12  and  O_13
REMARK   10  A    between atoms: C_14  and  C_15
REMARK                            x       y       z     vdW  Elec       q    Type
REMARK                         _______ _______ _______ _____ _____    ______ ____
ROOT
ATOM      1  C   UNL     1      48.431   7.995  13.592  0.00  0.00    +0.000 A 
ATOM      2  C   UNL     1      47.832   8.895  14.483  0.00  0.00    +0.000 A 
ATOM      3  C   UNL     1      48.323   9.045  15.781  0.00  0.00    +0.000 A 
ATOM      4  C   UNL     1      49.370   8.235  16.240  0.00  0.00    +0.000 A 
ATOM      5  C   UNL     1      50.040   7.417  15.321  0.00  0.00    +0.000 A 
ATOM      6  C   UNL     1      49.582   7.311  14.002  0.00  0.00    +0.000 A 
ENDROOT
BRANCH   1   7
ATOM      7  C   UNL     1      47.830   7.758  12.232  0.00  0.00    +0.000 C 
BRANCH   7  10
ATOM      8  O   UNL     1      45.200   7.599  11.412  0.00  0.00    +0.000 OA
ATOM      9  C   UNL     1      45.784   6.554  11.694  0.00  0.00    +0.000 C 
ATOM     10  N   UNL     1      47.075   6.537  12.165  0.00  0.00    +0.000 N 
ATOM     11  H   UNL     1      47.614   5.680  12.097  0.00  0.00    +0.000 HD
BRANCH   9  12
ATOM     12  C   UNL     1      45.121   5.255  11.573  0.00  0.00    +0.000 A 
ATOM     13  C   UNL     1      44.442   4.686  12.640  0.00  0.00    +0.000 A 
ATOM     14  S   UNL     1      43.736   3.173  12.259  0.00  0.00    +0.000 S 
ATOM     15  C   UNL     1      44.296   3.253  10.655  0.00  0.00    +0.000 A 
ATOM     16  N   UNL     1      44.025   2.271   9.751  0.00  0.00    +0.000 NA
ATOM     17  C   UNL     1      44.497   2.493   8.569  0.00  0.00    +0.000 A 
ATOM     18  N   UNL     1      45.211   3.609   8.204  0.00  0.00    +0.000 N 
ATOM     19  C   UNL     1      45.549   4.591   9.083  0.00  0.00    +0.000 A 
ATOM     20  O   UNL     1      46.264   5.517   8.734  0.00  0.00    +0.000 OA
ATOM     21  C   UNL     1      45.026   4.403  10.420  0.00  0.00    +0.000 A 
ATOM     22  H   UNL     1      45.572   3.706   7.264  0.00  0.00    +0.000 HD
ENDBRANCH   9  12
ENDBRANCH   7  10
ENDBRANCH   1   7
BRANCH   4  23
ATOM     23  C   UNL     1      49.721   8.196  17.715  0.00  0.00    +0.000 C 
BRANCH  23  24
ATOM     24  N   UNL     1      49.887   6.813  18.257  0.00  0.00    +0.000 NA
BRANCH  24  25
ATOM     25  C   UNL     1      50.513   6.819  19.606  0.00  0.00    +0.000 C 
BRANCH  25  26
ATOM     26  C   UNL     1      51.648   5.788  19.820  0.00  0.00    +0.000 C 
BRANCH  26  27
ATOM     27  O   UNL     1      51.118   4.518  20.198  0.00  0.00    +0.000 OA
ATOM     28  H   UNL     1      50.311   4.683  20.714  0.00  0.00    +0.000 HD
ENDBRANCH  26  27
ENDBRANCH  25  26
ENDBRANCH  24  25
BRANCH  24  29
ATOM     29  C   UNL     1      48.553   6.166  18.322  0.00  0.00    +0.000 C 
BRANCH  29  30
ATOM     30  C   UNL     1      48.449   4.828  17.615  0.00  0.00    +0.000 A 
ATOM     31  C   UNL     1      47.634   4.677  16.493  0.00  0.00    +0.000 A 
ATOM     32  C   UNL     1      47.638   3.458  15.822  0.00  0.00    +0.000 A 
ATOM     33  C   UNL     1      48.430   2.420  16.298  0.00  0.00    +0.000 A 
ATOM     34  C   UNL     1      49.179   2.640  17.441  0.00  0.00    +0.000 A 
ATOM     35  N   UNL     1      49.210   3.815  18.103  0.00  0.00    +0.000 NA
ENDBRANCH  29  30
ENDBRANCH  24  29
ENDBRANCH  23  24
ENDBRANCH   4  23
TORSDOF 10
ENDMDL
