MODEL 1
REMARK VINA RESULT:    -8.868      0.000      0.000
REMARK INTER + INTRA:         -12.709
REMARK INTER:                 -11.979
REMARK INTRA:                  -0.730
REMARK UNBOUND:                -0.730
REMARK  Name = 
REMARK  6 active torsions:
REMARK  status: ('A' for Active; 'I' for Inactive)
REMARK    1  A    between atoms: C_2  and  C_4
REMARK    2  A    between atoms: N_8  and  C_9
REMARK    3  A    between atoms: C_9  and  C_10
REMARK    4  A    between atoms: C_10  and  C_11
REMARK    5  A    between atoms: C_15  and  O_16
REMARK    6  A    between atoms: O_16  and  C_17
REMARK                            x       y       z     vdW  Elec       q    Type
REMARK                         _______ _______ _______ _____ _____    ______ ____
ROOT
ATOM      1  C   UNL     1      43.283   4.524  11.094  0.00  0.00    +0.000 C 
ENDROOT
BRANCH   1   6
ATOM      2  C   UNL     1      46.475   2.474   7.732  0.00  0.00    +0.000 A 
ATOM      3  C   UNL     1      45.630   1.857   8.647  0.00  0.00    +0.000 A 
ATOM      4  C   UNL     1      44.704   2.633   9.345  0.00  0.00    +0.000 A 
ATOM      5  C   UNL     1      44.654   4.010   9.137  0.00  0.00    +0.000 A 
ATOM      6  N   UNL     1      43.703   4.826   9.732  0.00  0.00    +0.000 N 
ATOM      7  N   UNL     1      45.494   4.621   8.279  0.00  0.00    +0.000 NA
ATOM      8  C   UNL     1      46.386   3.853   7.602  0.00  0.00    +0.000 A 
ATOM      9  H   UNL     1      43.982   5.789   9.549  0.00  0.00    +0.000 HD
BRANCH   2  11
ATOM     10  N   UNL     1      48.534   2.410   6.450  0.00  0.00    +0.000 N 
ATOM     11  C   UNL     1      47.441   1.722   6.904  0.00  0.00    +0.000 C 
ATOM     12  O   UNL     1      47.293   0.534   6.667  0.00  0.00    +0.000 OA
ATOM     13  H   UNL     1      49.246   1.862   5.979  0.00  0.00    +0.000 HD
ATOM     14  H   UNL     1      48.814   3.302   6.835  0.00  0.00    +0.000 HD
ENDBRANCH   2  11
ENDBRANCH   1   6
BRANCH   1  15
ATOM     15  C   UNL     1      43.556   5.705  12.032  0.00  0.00    +0.000 C 
BRANCH  15  16
ATOM     16  C   UNL     1      44.976   5.657  12.548  0.00  0.00    +0.000 A 
ATOM     17  C   UNL     1      45.902   6.644  12.188  0.00  0.00    +0.000 A 
ATOM     18  C   UNL     1      47.191   6.630  12.725  0.00  0.00    +0.000 A 
ATOM     19  C   UNL     1      47.572   5.632  13.626  0.00  0.00    +0.000 A 
ATOM     20  C   UNL     1      46.660   4.642  13.984  0.00  0.00    +0.000 A 
ATOM     21  C   UNL     1      45.368   4.661  13.452  0.00  0.00    +0.000 A 
BRANCH  20  22
ATOM     22  O   UNL     1      46.905   3.637  14.884  0.00  0.00    +0.000 OA
BRANCH  22  23
ATOM     23  C   UNL     1      47.728   3.915  16.041  0.00  0.00    +0.000 C 
ATOM     24  C   UNL     1      48.292   2.719  16.831  0.00  0.00    +0.000 C 
ATOM     25  N   UNL     1      47.736   3.260  18.080  0.00  0.00    +0.000 NA
ATOM     26  C   UNL     1      46.940   4.239  17.327  0.00  0.00    +0.000 C 
ATOM     27  H   UNL     1      48.427   3.677  18.703  0.00  0.00    +0.000 HD
ENDBRANCH  22  23
ENDBRANCH  20  22
ENDBRANCH  15  16
ENDBRANCH   1  15
TORSDOF 6
ENDMDL
MODEL 2
REMARK VINA RESULT:    -7.896      2.591      3.629
REMARK INTER + INTRA:         -11.395
REMARK INTER:                 -10.645
REMARK INTRA:                  -0.751
REMARK UNBOUND:                -0.730
REMARK  Name = 
REMARK  6 active torsions:
REMARK  status: ('A' for Active; 'I' for Inactive)
REMARK    1  A    between atoms: C_2  and  C_4
REMARK    2  A    between atoms: N_8  and  C_9
REMARK    3  A    between atoms: C_9  and  C_10
REMARK    4  A    between atoms: C_10  and  C_11
REMARK    5  A    between atoms: C_15  and  O_16
REMARK    6  A    between atoms: O_16  and  C_17
REMARK                            x       y       z     vdW  Elec       q    Type
REMARK                         _______ _______ _______ _____ _____    ______ ____
ROOT
ATOM      1  C   UNL     1      43.238   4.304  11.217  0.00  0.00    +0.000 C 
ENDROOT
BRANCH   1   6
ATOM      2  C   UNL     1      46.469   2.487   7.759  0.00  0.00    +0.000 A 
ATOM      3  C   UNL     1      45.633   1.809   8.638  0.00  0.00    +0.000 A 
ATOM      4  C   UNL     1      44.694   2.531   9.374  0.00  0.00    +0.000 A 
ATOM      5  C   UNL     1      44.620   3.916   9.239  0.00  0.00    +0.000 A 
ATOM      6  N   UNL     1      43.655   4.685   9.874  0.00  0.00    +0.000 N 
ATOM      7  N   UNL     1      45.453   4.585   8.417  0.00  0.00    +0.000 NA
ATOM      8  C   UNL     1      46.358   3.869   7.702  0.00  0.00    +0.000 A 
ATOM      9  H   UNL     1      43.920   5.660   9.743  0.00  0.00    +0.000 HD
BRANCH   2  11
ATOM     10  N   UNL     1      48.525   2.527   6.470  0.00  0.00    +0.000 N 
ATOM     11  C   UNL     1      47.448   1.795   6.895  0.00  0.00    +0.000 C 
ATOM     12  O   UNL     1      47.326   0.616   6.603  0.00  0.00    +0.000 OA
ATOM     13  H   UNL     1      49.246   2.018   5.973  0.00  0.00    +0.000 HD
ATOM     14  H   UNL     1      48.786   3.407   6.895  0.00  0.00    +0.000 HD
ENDBRANCH   2  11
ENDBRANCH   1   6
BRANCH   1  15
ATOM     15  C   UNL     1      43.347   5.487  12.185  0.00  0.00    +0.000 C 
BRANCH  15  16
ATOM     16  C   UNL     1      44.786   5.716  12.587  0.00  0.00    +0.000 A 
ATOM     17  C   UNL     1      45.473   4.768  13.356  0.00  0.00    +0.000 A 
ATOM     18  C   UNL     1      46.822   4.956  13.665  0.00  0.00    +0.000 A 
ATOM     19  C   UNL     1      47.500   6.090  13.211  0.00  0.00    +0.000 A 
ATOM     20  C   UNL     1      46.823   7.041  12.452  0.00  0.00    +0.000 A 
ATOM     21  C   UNL     1      45.475   6.849  12.137  0.00  0.00    +0.000 A 
BRANCH  20  22
ATOM     22  O   UNL     1      47.391   8.171  11.921  0.00  0.00    +0.000 OA
BRANCH  22  23
ATOM     23  C   UNL     1      48.645   8.648  12.462  0.00  0.00    +0.000 C 
ATOM     24  C   UNL     1      48.594   9.718  13.570  0.00  0.00    +0.000 C 
ATOM     25  N   UNL     1      49.504  10.581  12.802  0.00  0.00    +0.000 NA
ATOM     26  C   UNL     1      49.339   9.733  11.614  0.00  0.00    +0.000 C 
ATOM     27  H   UNL     1      50.457  10.612  13.162  0.00  0.00    +0.000 HD
ENDBRANCH  22  23
ENDBRANCH  20  22
ENDBRANCH  15  16
ENDBRANCH   1  15
TORSDOF 6
ENDMDL
MODEL 3
REMARK VINA RESULT:    -7.723      2.413      2.790
REMARK INTER + INTRA:         -11.162
REMARK INTER:                 -10.288
REMARK INTRA:                  -0.874
REMARK UNBOUND:                -0.730
REMARK  Name = 
REMARK  6 active torsions:
REMARK  status: ('A' for Active; 'I' for Inactive)
REMARK    1  A    between atoms: C_2  and  C_4
REMARK    2  A    between atoms: N_8  and  C_9
REMARK    3  A    between atoms: C_9  and  C_10
REMARK    4  A    between atoms: C_10  and  C_11
REMARK    5  A    between atoms: C_15  and  O_16
REMARK    6  A    between atoms: O_16  and  C_17
REMARK                            x       y       z     vdW  Elec       q    Type
REMARK                         _______ _______ _______ _____ _____    ______ ____
ROOT
ATOM      1  C   UNL     1      43.295   3.538  11.249  0.00  0.00    +0.000 C 
ENDROOT
BRANCH   1   6
ATOM      2  C   UNL     1      46.474   2.837   7.364  0.00  0.00    +0.000 A 
ATOM      3  C   UNL     1      45.962   4.015   7.893  0.00  0.00    +0.000 A 
ATOM      4  C   UNL     1      45.244   3.967   9.088  0.00  0.00    +0.000 A 
ATOM      5  C   UNL     1      45.028   2.744   9.720  0.00  0.00    +0.000 A 
ATOM      6  N   UNL     1      44.399   2.635  10.952  0.00  0.00    +0.000 N 
ATOM      7  N   UNL     1      45.490   1.592   9.195  0.00  0.00    +0.000 NA
ATOM      8  C   UNL     1      46.193   1.655   8.035  0.00  0.00    +0.000 A 
ATOM      9  H   UNL     1      44.225   1.643  11.109  0.00  0.00    +0.000 HD
BRANCH   2  11
ATOM     10  N   UNL     1      48.623   2.486   6.292  0.00  0.00    +0.000 N 
ATOM     11  C   UNL     1      47.300   2.804   6.138  0.00  0.00    +0.000 C 
ATOM     12  O   UNL     1      46.819   3.012   5.036  0.00  0.00    +0.000 OA
ATOM     13  H   UNL     1      49.155   2.356   5.440  0.00  0.00    +0.000 HD
ATOM     14  H   UNL     1      48.986   2.064   7.136  0.00  0.00    +0.000 HD
ENDBRANCH   2  11
ENDBRANCH   1   6
BRANCH   1  15
ATOM     15  C   UNL     1      43.507   4.245  12.593  0.00  0.00    +0.000 C 
BRANCH  15  16
ATOM     16  C   UNL     1      44.561   5.321  12.468  0.00  0.00    +0.000 A 
ATOM     17  C   UNL     1      44.314   6.481  11.724  0.00  0.00    +0.000 A 
ATOM     18  C   UNL     1      45.267   7.501  11.671  0.00  0.00    +0.000 A 
ATOM     19  C   UNL     1      46.477   7.374  12.358  0.00  0.00    +0.000 A 
ATOM     20  C   UNL     1      46.735   6.221  13.095  0.00  0.00    +0.000 A 
ATOM     21  C   UNL     1      45.777   5.204  13.153  0.00  0.00    +0.000 A 
BRANCH  20  22
ATOM     22  O   UNL     1      47.865   6.000  13.839  0.00  0.00    +0.000 OA
BRANCH  22  23
ATOM     23  C   UNL     1      48.646   7.133  14.283  0.00  0.00    +0.000 C 
ATOM     24  C   UNL     1      49.891   7.521  13.461  0.00  0.00    +0.000 C 
ATOM     25  N   UNL     1      50.725   7.475  14.671  0.00  0.00    +0.000 NA
ATOM     26  C   UNL     1      49.643   6.822  15.418  0.00  0.00    +0.000 C 
ATOM     27  H   UNL     1      50.989   8.390  15.034  0.00  0.00    +0.000 HD
ENDBRANCH  22  23
ENDBRANCH  20  22
ENDBRANCH  15  16
ENDBRANCH   1  15
TORSDOF 6
ENDMDL
MODEL 4
REMARK VINA RESULT:    -7.451      2.950      4.640
REMARK INTER + INTRA:         -10.794
REMARK INTER:                  -9.988
REMARK INTRA:                  -0.806
REMARK UNBOUND:                -0.730
REMARK  Name = 
REMARK  6 active torsions:
REMARK  status: ('A' for Active; 'I' for Inactive)
REMARK    1  A    between atoms: C_2  and  C_4
REMARK    2  A    between atoms: N_8  and  C_9
REMARK    3  A    between atoms: C_9  and  C_10
REMARK    4  A    between atoms: C_10  and  C_11
REMARK    5  A    between atoms: C_15  and  O_16
REMARK    6  A    between atoms: O_16  and  C_17
REMARK                            x       y       z     vdW  Elec       q    Type
REMARK                         _______ _______ _______ _____ _____    ______ ____
ROOT
ATOM      1  C   UNL     1      43.287   3.615  11.044  0.00  0.00    +0.000 C 
ENDROOT
BRANCH   1   6
ATOM      2  C   UNL     1      46.598   2.556   7.354  0.00  0.00    +0.000 A 
ATOM      3  C   UNL     1      46.202   3.785   7.868  0.00  0.00    +0.000 A 
ATOM      4  C   UNL     1      45.408   3.816   9.015  0.00  0.00    +0.000 A 
ATOM      5  C   UNL     1      45.004   2.625   9.614  0.00  0.00    +0.000 A 
ATOM      6  N   UNL     1      44.288   2.584  10.801  0.00  0.00    +0.000 N 
ATOM      7  N   UNL     1      45.352   1.428   9.100  0.00  0.00    +0.000 NA
ATOM      8  C   UNL     1      46.131   1.413   7.987  0.00  0.00    +0.000 A 
ATOM      9  H   UNL     1      43.984   1.620  10.932  0.00  0.00    +0.000 HD
BRANCH   2  11
ATOM     10  N   UNL     1      47.279   3.305   5.149  0.00  0.00    +0.000 N 
ATOM     11  C   UNL     1      47.489   2.431   6.182  0.00  0.00    +0.000 C 
ATOM     12  O   UNL     1      48.396   1.614   6.150  0.00  0.00    +0.000 OA
ATOM     13  H   UNL     1      47.962   3.287   4.400  0.00  0.00    +0.000 HD
ATOM     14  H   UNL     1      46.721   4.142   5.250  0.00  0.00    +0.000 HD
ENDBRANCH   2  11
ENDBRANCH   1   6
BRANCH   1  15
ATOM     15  C   UNL     1      43.395   4.165  12.470  0.00  0.00    +0.000 C 
BRANCH  15  16
ATOM     16  C   UNL     1      44.448   5.247  12.545  0.00  0.00    +0.000 A 
ATOM     17  C   UNL     1      45.679   5.005  13.168  0.00  0.00    +0.000 A 
ATOM     18  C   UNL     1      46.672   5.988  13.172  0.00  0.00    +0.000 A 
ATOM     19  C   UNL     1      46.448   7.222  12.555  0.00  0.00    +0.000 A 
ATOM     20  C   UNL     1      45.225   7.474  11.939  0.00  0.00    +0.000 A 
ATOM     21  C   UNL     1      44.234   6.487  11.930  0.00  0.00    +0.000 A 
BRANCH  20  22
ATOM     22  O   UNL     1      44.904   8.628  11.272  0.00  0.00    +0.000 OA
BRANCH  22  23
ATOM     23  C   UNL     1      44.800   9.864  12.016  0.00  0.00    +0.000 C 
ATOM     24  C   UNL     1      43.881  10.969  11.459  0.00  0.00    +0.000 C 
ATOM     25  N   UNL     1      44.982  11.941  11.525  0.00  0.00    +0.000 NA
ATOM     26  C   UNL     1      45.949  10.862  11.767  0.00  0.00    +0.000 C 
ATOM     27  H   UNL     1      44.905  12.611  12.290  0.00  0.00    +0.000 HD
ENDBRANCH  22  23
ENDBRANCH  20  22
ENDBRANCH  15  16
ENDBRANCH   1  15
TORSDOF 6
ENDMDL
MODEL 5
REMARK VINA RESULT:    -7.356      2.063      7.976
REMARK INTER + INTRA:         -10.667
REMARK INTER:                  -9.996
REMARK INTRA:                  -0.671
REMARK UNBOUND:                -0.730
REMARK  Name = 
REMARK  6 active torsions:
REMARK  status: ('A' for Active; 'I' for Inactive)
REMARK    1  A    between atoms: C_2  and  C_4
REMARK    2  A    between atoms: N_8  and  C_9
REMARK    3  A    between atoms: C_9  and  C_10
REMARK    4  A    between atoms: C_10  and  C_11
REMARK    5  A    between atoms: C_15  and  O_16
REMARK    6  A    between atoms: O_16  and  C_17
REMARK                            x       y       z     vdW  Elec       q    Type
REMARK                         _______ _______ _______ _____ _____    ______ ____
ROOT
ATOM      1  C   UNL     1      45.558   6.319  12.382  0.00  0.00    +0.000 C 
ENDROOT
BRANCH   1   6
ATOM      2  C   UNL     1      48.123   4.528  16.370  0.00  0.00    +0.000 A 
ATOM      3  C   UNL     1      47.087   3.950  15.647  0.00  0.00    +0.000 A 
ATOM      4  C   UNL     1      46.661   4.561  14.467  0.00  0.00    +0.000 A 
ATOM      5  C   UNL     1      47.256   5.747  14.044  0.00  0.00    +0.000 A 
ATOM      6  N   UNL     1      46.940   6.360  12.840  0.00  0.00    +0.000 N 
ATOM      7  N   UNL     1      48.236   6.334  14.759  0.00  0.00    +0.000 NA
ATOM      8  C   UNL     1      48.646   5.725  15.902  0.00  0.00    +0.000 A 
ATOM      9  H   UNL     1      47.386   7.276  12.848  0.00  0.00    +0.000 HD
BRANCH   2  11
ATOM     10  N   UNL     1      47.781   3.444  18.514  0.00  0.00    +0.000 N 
ATOM     11  C   UNL     1      48.680   3.916  17.595  0.00  0.00    +0.000 C 
ATOM     12  O   UNL     1      49.883   3.800  17.764  0.00  0.00    +0.000 OA
ATOM     13  H   UNL     1      48.168   2.927  19.296  0.00  0.00    +0.000 HD
ATOM     14  H   UNL     1      46.806   3.292  18.293  0.00  0.00    +0.000 HD
ENDBRANCH   2  11
ENDBRANCH   1   6
BRANCH   1  15
ATOM     15  C   UNL     1      45.482   6.349  10.851  0.00  0.00    +0.000 C 
BRANCH  15  16
ATOM     16  C   UNL     1      45.202   4.967  10.305  0.00  0.00    +0.000 A 
ATOM     17  C   UNL     1      44.519   4.018  11.076  0.00  0.00    +0.000 A 
ATOM     18  C   UNL     1      44.205   2.768  10.539  0.00  0.00    +0.000 A 
ATOM     19  C   UNL     1      44.567   2.450   9.227  0.00  0.00    +0.000 A 
ATOM     20  C   UNL     1      45.253   3.385   8.455  0.00  0.00    +0.000 A 
ATOM     21  C   UNL     1      45.561   4.638   8.992  0.00  0.00    +0.000 A 
BRANCH  20  22
ATOM     22  O   UNL     1      45.626   3.203   7.148  0.00  0.00    +0.000 OA
BRANCH  22  23
ATOM     23  C   UNL     1      47.034   3.141   6.823  0.00  0.00    +0.000 C 
ATOM     24  C   UNL     1      47.426   2.878   5.356  0.00  0.00    +0.000 C 
ATOM     25  N   UNL     1      48.280   1.754   5.767  0.00  0.00    +0.000 NA
ATOM     26  C   UNL     1      47.703   1.782   7.118  0.00  0.00    +0.000 C 
ATOM     27  H   UNL     1      49.279   1.952   5.737  0.00  0.00    +0.000 HD
ENDBRANCH  22  23
ENDBRANCH  20  22
ENDBRANCH  15  16
ENDBRANCH   1  15
TORSDOF 6
ENDMDL
MODEL 6
REMARK VINA RESULT:    -6.636      2.323      8.504
REMARK INTER + INTRA:          -9.694
REMARK INTER:                  -9.199
REMARK INTRA:                  -0.495
REMARK UNBOUND:                -0.730
REMARK  Name = 
REMARK  6 active torsions:
REMARK  status: ('A' for Active; 'I' for Inactive)
REMARK    1  A    between atoms: C_2  and  C_4
REMARK    2  A    between atoms: N_8  and  C_9
REMARK    3  A    between atoms: C_9  and  C_10
REMARK    4  A    between atoms: C_10  and  C_11
REMARK    5  A    between atoms: C_15  and  O_16
REMARK    6  A    between atoms: O_16  and  C_17
REMARK                            x       y       z     vdW  Elec       q    Type
REMARK                         _______ _______ _______ _____ _____    ______ ____
ROOT
ATOM      1  C   UNL     1      47.140   5.547  13.418  0.00  0.00    +0.000 C 
ENDROOT
BRANCH   1   6
ATOM      2  C   UNL     1      48.645   4.471  18.137  0.00  0.00    +0.000 A 
ATOM      3  C   UNL     1      48.891   5.597  17.360  0.00  0.00    +0.000 A 
ATOM      4  C   UNL     1      48.213   5.747  16.150  0.00  0.00    +0.000 A 
ATOM      5  C   UNL     1      47.323   4.762  15.725  0.00  0.00    +0.000 A 
ATOM      6  N   UNL     1      46.554   4.888  14.577  0.00  0.00    +0.000 N 
ATOM      7  N   UNL     1      47.107   3.650  16.455  0.00  0.00    +0.000 NA
ATOM      8  C   UNL     1      47.768   3.521  17.634  0.00  0.00    +0.000 A 
ATOM      9  H   UNL     1      46.121   3.981  14.410  0.00  0.00    +0.000 HD
BRANCH   2  11
ATOM     10  N   UNL     1      48.476   3.732  20.443  0.00  0.00    +0.000 N 
ATOM     11  C   UNL     1      49.270   4.263  19.460  0.00  0.00    +0.000 C 
ATOM     12  O   UNL     1      50.447   4.515  19.661  0.00  0.00    +0.000 OA
ATOM     13  H   UNL     1      48.939   3.489  21.311  0.00  0.00    +0.000 HD
ATOM     14  H   UNL     1      47.593   3.281  20.243  0.00  0.00    +0.000 HD
ENDBRANCH   2  11
ENDBRANCH   1   6
BRANCH   1  15
ATOM     15  C   UNL     1      46.127   6.478  12.742  0.00  0.00    +0.000 C 
BRANCH  15  16
ATOM     16  C   UNL     1      45.304   5.721  11.724  0.00  0.00    +0.000 A 
ATOM     17  C   UNL     1      43.978   5.366  11.998  0.00  0.00    +0.000 A 
ATOM     18  C   UNL     1      43.205   4.727  11.027  0.00  0.00    +0.000 A 
ATOM     19  C   UNL     1      43.745   4.436   9.771  0.00  0.00    +0.000 A 
ATOM     20  C   UNL     1      45.065   4.779   9.492  0.00  0.00    +0.000 A 
ATOM     21  C   UNL     1      45.836   5.424  10.463  0.00  0.00    +0.000 A 
BRANCH  20  22
ATOM     22  O   UNL     1      45.692   4.579   8.288  0.00  0.00    +0.000 OA
BRANCH  22  23
ATOM     23  C   UNL     1      45.535   3.307   7.618  0.00  0.00    +0.000 C 
ATOM     24  C   UNL     1      46.075   2.047   8.322  0.00  0.00    +0.000 C 
ATOM     25  N   UNL     1      46.849   1.689   7.125  0.00  0.00    +0.000 NA
ATOM     26  C   UNL     1      46.598   3.013   6.540  0.00  0.00    +0.000 C 
ATOM     27  H   UNL     1      46.457   0.916   6.587  0.00  0.00    +0.000 HD
ENDBRANCH  22  23
ENDBRANCH  20  22
ENDBRANCH  15  16
ENDBRANCH   1  15
TORSDOF 6
ENDMDL
MODEL 7
REMARK VINA RESULT:    -6.293      3.055      4.779
REMARK INTER + INTRA:          -9.231
REMARK INTER:                  -8.489
REMARK INTRA:                  -0.742
REMARK UNBOUND:                -0.730
REMARK  Name = 
REMARK  6 active torsions:
REMARK  status: ('A' for Active; 'I' for Inactive)
REMARK    1  A    between atoms: C_2  and  C_4
REMARK    2  A    between atoms: N_8  and  C_9
REMARK    3  A    between atoms: C_9  and  C_10
REMARK    4  A    between atoms: C_10  and  C_11
REMARK    5  A    between atoms: C_15  and  O_16
REMARK    6  A    between atoms: O_16  and  C_17
REMARK                            x       y       z     vdW  Elec       q    Type
REMARK                         _______ _______ _______ _____ _____    ______ ____
ROOT
ATOM      1  C   UNL     1      48.631   7.499  13.146  0.00  0.00    +0.000 C 
ENDROOT
BRANCH   1   6
ATOM      2  C   UNL     1      45.039   4.206  11.749  0.00  0.00    +0.000 A 
ATOM      3  C   UNL     1      45.832   4.226  12.891  0.00  0.00    +0.000 A 
ATOM      4  C   UNL     1      46.628   5.343  13.143  0.00  0.00    +0.000 A 
ATOM      5  C   UNL     1      46.639   6.407  12.243  0.00  0.00    +0.000 A 
ATOM      6  N   UNL     1      47.340   7.582  12.475  0.00  0.00    +0.000 N 
ATOM      7  N   UNL     1      45.902   6.379  11.115  0.00  0.00    +0.000 NA
ATOM      8  C   UNL     1      45.126   5.288  10.886  0.00  0.00    +0.000 A 
ATOM      9  H   UNL     1      47.316   8.118  11.608  0.00  0.00    +0.000 HD
BRANCH   2  11
ATOM     10  N   UNL     1      43.682   2.336  12.492  0.00  0.00    +0.000 N 
ATOM     11  C   UNL     1      44.119   3.092  11.437  0.00  0.00    +0.000 C 
ATOM     12  O   UNL     1      43.734   2.879  10.299  0.00  0.00    +0.000 OA
ATOM     13  H   UNL     1      42.966   1.649  12.286  0.00  0.00    +0.000 HD
ATOM     14  H   UNL     1      43.772   2.640  13.453  0.00  0.00    +0.000 HD
ENDBRANCH   2  11
ENDBRANCH   1   6
BRANCH   1  15
ATOM     15  C   UNL     1      48.738   8.540  14.267  0.00  0.00    +0.000 C 
BRANCH  15  16
ATOM     16  C   UNL     1      48.812   7.863  15.617  0.00  0.00    +0.000 A 
ATOM     17  C   UNL     1      48.437   8.546  16.780  0.00  0.00    +0.000 A 
ATOM     18  C   UNL     1      48.443   7.892  18.014  0.00  0.00    +0.000 A 
ATOM     19  C   UNL     1      48.823   6.550  18.101  0.00  0.00    +0.000 A 
ATOM     20  C   UNL     1      49.204   5.864  16.950  0.00  0.00    +0.000 A 
ATOM     21  C   UNL     1      49.191   6.518  15.715  0.00  0.00    +0.000 A 
BRANCH  20  22
ATOM     22  O   UNL     1      49.558   4.540  16.905  0.00  0.00    +0.000 OA
BRANCH  22  23
ATOM     23  C   UNL     1      48.526   3.543  16.729  0.00  0.00    +0.000 C 
ATOM     24  C   UNL     1      47.075   4.028  16.549  0.00  0.00    +0.000 C 
ATOM     25  N   UNL     1      46.629   3.155  17.646  0.00  0.00    +0.000 NA
ATOM     26  C   UNL     1      48.022   2.901  18.038  0.00  0.00    +0.000 C 
ATOM     27  H   UNL     1      46.124   2.323  17.342  0.00  0.00    +0.000 HD
ENDBRANCH  22  23
ENDBRANCH  20  22
ENDBRANCH  15  16
ENDBRANCH   1  15
TORSDOF 6
ENDMDL
MODEL 8
REMARK VINA RESULT:    -6.262      3.209      5.072
REMARK INTER + INTRA:          -9.189
REMARK INTER:                  -8.741
REMARK INTRA:                  -0.448
REMARK UNBOUND:                -0.730
REMARK  Name = 
REMARK  6 active torsions:
REMARK  status: ('A' for Active; 'I' for Inactive)
REMARK    1  A    between atoms: C_2  and  C_4
REMARK    2  A    between atoms: N_8  and  C_9
REMARK    3  A    between atoms: C_9  and  C_10
REMARK    4  A    between atoms: C_10  and  C_11
REMARK    5  A    between atoms: C_15  and  O_16
REMARK    6  A    between atoms: O_16  and  C_17
REMARK                            x       y       z     vdW  Elec       q    Type
REMARK                         _______ _______ _______ _____ _____    ______ ____
ROOT
ATOM      1  C   UNL     1      48.941   7.161  13.324  0.00  0.00    +0.000 C 
ENDROOT
BRANCH   1   6
ATOM      2  C   UNL     1      45.094   4.212  11.840  0.00  0.00    +0.000 A 
ATOM      3  C   UNL     1      45.867   4.153  12.994  0.00  0.00    +0.000 A 
ATOM      4  C   UNL     1      46.755   5.193  13.269  0.00  0.00    +0.000 A 
ATOM      5  C   UNL     1      46.875   6.258  12.379  0.00  0.00    +0.000 A 
ATOM      6  N   UNL     1      47.674   7.364  12.633  0.00  0.00    +0.000 N 
ATOM      7  N   UNL     1      46.157   6.305  11.240  0.00  0.00    +0.000 NA
ATOM      8  C   UNL     1      45.291   5.289  10.988  0.00  0.00    +0.000 A 
ATOM      9  H   UNL     1      47.712   7.907  11.771  0.00  0.00    +0.000 HD
BRANCH   2  11
ATOM     10  N   UNL     1      43.666   2.372  12.521  0.00  0.00    +0.000 N 
ATOM     11  C   UNL     1      44.083   3.188  11.503  0.00  0.00    +0.000 C 
ATOM     12  O   UNL     1      43.613   3.096  10.381  0.00  0.00    +0.000 OA
ATOM     13  H   UNL     1      42.894   1.750  12.310  0.00  0.00    +0.000 HD
ATOM     14  H   UNL     1      43.837   2.587  13.495  0.00  0.00    +0.000 HD
ENDBRANCH   2  11
ENDBRANCH   1   6
BRANCH   1  15
ATOM     15  C   UNL     1      48.897   7.745  14.740  0.00  0.00    +0.000 C 
BRANCH  15  16
ATOM     16  C   UNL     1      49.735   6.913  15.685  0.00  0.00    +0.000 A 
ATOM     17  C   UNL     1      51.119   7.105  15.769  0.00  0.00    +0.000 A 
ATOM     18  C   UNL     1      51.876   6.381  16.693  0.00  0.00    +0.000 A 
ATOM     19  C   UNL     1      51.260   5.457  17.543  0.00  0.00    +0.000 A 
ATOM     20  C   UNL     1      49.885   5.255  17.461  0.00  0.00    +0.000 A 
ATOM     21  C   UNL     1      49.128   5.986  16.541  0.00  0.00    +0.000 A 
BRANCH  20  22
ATOM     22  O   UNL     1      49.166   4.407  18.265  0.00  0.00    +0.000 OA
BRANCH  22  23
ATOM     23  C   UNL     1      49.043   3.017  17.886  0.00  0.00    +0.000 C 
ATOM     24  C   UNL     1      50.191   2.384  17.075  0.00  0.00    +0.000 C 
ATOM     25  N   UNL     1      49.240   1.929  16.051  0.00  0.00    +0.000 NA
ATOM     26  C   UNL     1      48.181   2.766  16.632  0.00  0.00    +0.000 C 
ATOM     27  H   UNL     1      49.041   0.930  16.076  0.00  0.00    +0.000 HD
ENDBRANCH  22  23
ENDBRANCH  20  22
ENDBRANCH  15  16
ENDBRANCH   1  15
TORSDOF 6
ENDMDL
MODEL 9
REMARK VINA RESULT:    -6.217      3.620      7.955
REMARK INTER + INTRA:          -9.128
REMARK INTER:                  -8.482
REMARK INTRA:                  -0.646
REMARK UNBOUND:                -0.730
REMARK  Name = 
REMARK  6 active torsions:
REMARK  status: ('A' for Active; 'I' for Inactive)
REMARK    1  A    between atoms: C_2  and  C_4
REMARK    2  A    between atoms: N_8  and  C_9
REMARK    3  A    between atoms: C_9  and  C_10
REMARK    4  A    between atoms: C_10  and  C_11
REMARK    5  A    between atoms: C_15  and  O_16
REMARK    6  A    between atoms: O_16  and  C_17
REMARK                            x       y       z     vdW  Elec       q    Type
REMARK                         _______ _______ _______ _____ _____    ______ ____
ROOT
ATOM      1  C   UNL     1      48.807   7.568  15.989  0.00  0.00    +0.000 C 
ENDROOT
BRANCH   1   6
ATOM      2  C   UNL     1      50.814   3.155  17.467  0.00  0.00    +0.000 A 
ATOM      3  C   UNL     1      51.358   4.433  17.495  0.00  0.00    +0.000 A 
ATOM      4  C   UNL     1      50.541   5.525  17.202  0.00  0.00    +0.000 A 
ATOM      5  C   UNL     1      49.204   5.322  16.865  0.00  0.00    +0.000 A 
ATOM      6  N   UNL     1      48.316   6.365  16.647  0.00  0.00    +0.000 N 
ATOM      7  N   UNL     1      48.678   4.083  16.799  0.00  0.00    +0.000 NA
ATOM      8  C   UNL     1      49.484   3.030  17.093  0.00  0.00    +0.000 A 
ATOM      9  H   UNL     1      47.465   5.955  16.263  0.00  0.00    +0.000 HD
BRANCH   2  11
ATOM     10  N   UNL     1      52.686   2.134  18.625  0.00  0.00    +0.000 N 
ATOM     11  C   UNL     1      51.590   1.949  17.825  0.00  0.00    +0.000 C 
ATOM     12  O   UNL     1      51.251   0.836  17.457  0.00  0.00    +0.000 OA
ATOM     13  H   UNL     1      53.146   1.294  18.957  0.00  0.00    +0.000 HD
ATOM     14  H   UNL     1      52.841   2.986  19.148  0.00  0.00    +0.000 HD
ENDBRANCH   2  11
ENDBRANCH   1   6
BRANCH   1  15
ATOM     15  C   UNL     1      48.997   7.336  14.485  0.00  0.00    +0.000 C 
BRANCH  15  16
ATOM     16  C   UNL     1      47.674   7.430  13.760  0.00  0.00    +0.000 A 
ATOM     17  C   UNL     1      47.023   8.662  13.617  0.00  0.00    +0.000 A 
ATOM     18  C   UNL     1      45.836   8.751  12.886  0.00  0.00    +0.000 A 
ATOM     19  C   UNL     1      45.285   7.612  12.292  0.00  0.00    +0.000 A 
ATOM     20  C   UNL     1      45.921   6.382  12.435  0.00  0.00    +0.000 A 
ATOM     21  C   UNL     1      47.113   6.296  13.160  0.00  0.00    +0.000 A 
BRANCH  20  22
ATOM     22  O   UNL     1      45.498   5.207  11.868  0.00  0.00    +0.000 OA
BRANCH  22  23
ATOM     23  C   UNL     1      44.262   4.612  12.327  0.00  0.00    +0.000 C 
ATOM     24  C   UNL     1      44.098   3.086  12.184  0.00  0.00    +0.000 C 
ATOM     25  N   UNL     1      42.824   3.272  11.474  0.00  0.00    +0.000 NA
ATOM     26  C   UNL     1      43.092   4.709  11.327  0.00  0.00    +0.000 C 
ATOM     27  H   UNL     1      41.997   3.058  12.030  0.00  0.00    +0.000 HD
ENDBRANCH  22  23
ENDBRANCH  20  22
ENDBRANCH  15  16
ENDBRANCH   1  15
TORSDOF 6
ENDMDL
