MODEL 1
REMARK VINA RESULT:    -7.689      0.000      0.000
REMARK INTER + INTRA:         -11.586
REMARK INTER:                 -10.386
REMARK INTRA:                  -1.200
REMARK UNBOUND:                -1.200
REMARK  Name = 
REMARK  7 active torsions:
REMARK  status: ('A' for Active; 'I' for Inactive)
REMARK    1  A    between atoms: C_1  and  C_2
REMARK    2  A    between atoms: C_2  and  N_3
REMARK    3  A    between atoms: C_2  and  C_16
REMARK    4  A    between atoms: C_4  and  C_6
REMARK    5  A    between atoms: C_19  and  C_20
REMARK    6  A    between atoms: C_20  and  N_21
REMARK    7  A    between atoms: C_22  and  C_24
REMARK                            x       y       z     vdW  Elec       q    Type
REMARK                         _______ _______ _______ _____ _____    ______ ____
ROOT
ATOM      1  C   UNL     1      48.836   7.547  13.519  0.00  0.00    +0.000 A 
ATOM      2  C   UNL     1      48.271   6.803  14.564  0.00  0.00    +0.000 A 
ATOM      3  C   UNL     1      48.966   6.620  15.766  0.00  0.00    +0.000 A 
ATOM      4  C   UNL     1      50.238   7.181  15.950  0.00  0.00    +0.000 A 
ATOM      5  C   UNL     1      50.806   7.920  14.907  0.00  0.00    +0.000 A 
ATOM      6  C   UNL     1      50.112   8.104  13.711  0.00  0.00    +0.000 A 
ENDROOT
BRANCH   1   8
ATOM      7  C   UNL     1      49.118   7.902  11.055  0.00  0.00    +0.000 C 
ATOM      8  C   UNL     1      48.105   7.719  12.192  0.00  0.00    +0.000 C 
BRANCH   8   9
ATOM      9  N   UNL     1      47.222   6.578  11.990  0.00  0.00    +0.000 N 
ATOM     10  C   UNL     1      45.858   6.680  11.897  0.00  0.00    +0.000 C 
ATOM     11  O   UNL     1      45.270   7.758  11.911  0.00  0.00    +0.000 OA
ATOM     12  H   UNL     1      47.605   5.679  12.270  0.00  0.00    +0.000 HD
BRANCH  10  13
ATOM     13  C   UNL     1      45.124   5.422  11.711  0.00  0.00    +0.000 A 
ATOM     14  C   UNL     1      44.399   4.889  12.768  0.00  0.00    +0.000 A 
ATOM     15  S   UNL     1      43.610   3.426  12.388  0.00  0.00    +0.000 S 
ATOM     16  C   UNL     1      44.244   3.432  10.809  0.00  0.00    +0.000 A 
ATOM     17  N   UNL     1      43.987   2.410   9.949  0.00  0.00    +0.000 NA
ATOM     18  C   UNL     1      44.556   2.529   8.795  0.00  0.00    +0.000 A 
ATOM     19  N   UNL     1      45.345   3.586   8.419  0.00  0.00    +0.000 N 
ATOM     20  C   UNL     1      45.598   4.658   9.241  0.00  0.00    +0.000 A 
ATOM     21  O   UNL     1      46.252   5.622   8.855  0.00  0.00    +0.000 OA
ATOM     22  C   UNL     1      45.014   4.555  10.563  0.00  0.00    +0.000 A 
ATOM     23  H   UNL     1      45.739   3.630   7.491  0.00  0.00    +0.000 HD
ENDBRANCH  10  13
ENDBRANCH   8   9
ENDBRANCH   1   8
BRANCH   4  24
ATOM     24  C   UNL     1      51.020   6.931  17.214  0.00  0.00    +0.000 C 
BRANCH  24  25
ATOM     25  N   UNL     1      51.543   5.584  17.222  0.00  0.00    +0.000 N 
ATOM     26  C   UNL     1      50.949   4.576  17.941  0.00  0.00    +0.000 C 
ATOM     27  O   UNL     1      49.926   4.746  18.598  0.00  0.00    +0.000 OA
ATOM     28  H   UNL     1      52.407   5.421  16.718  0.00  0.00    +0.000 HD
BRANCH  26  29
ATOM     29  C   UNL     1      51.544   3.219  17.848  0.00  0.00    +0.000 A 
ATOM     30  C   UNL     1      52.858   3.056  18.309  0.00  0.00    +0.000 A 
ATOM     31  C   UNL     1      53.454   1.795  18.302  0.00  0.00    +0.000 A 
ATOM     32  C   UNL     1      52.718   0.727  17.821  0.00  0.00    +0.000 A 
ATOM     33  N   UNL     1      51.462   0.844  17.343  0.00  0.00    +0.000 NA
ATOM     34  C   UNL     1      50.908   2.083  17.357  0.00  0.00    +0.000 A 
ATOM     35 CL   UNL     1      49.334   2.065  16.654  0.00  0.00    +0.000 Cl
ENDBRANCH  26  29
ENDBRANCH  24  25
ENDBRANCH   4  24
TORSDOF 6
ENDMDL
MODEL 2
REMARK VINA RESULT:    -7.608      3.596      8.703
REMARK INTER + INTRA:         -11.477
REMARK INTER:                 -10.306
REMARK INTRA:                  -1.172
REMARK UNBOUND:                -1.200
REMARK  Name = 
REMARK  7 active torsions:
REMARK  status: ('A' for Active; 'I' for Inactive)
REMARK    1  A    between atoms: C_1  and  C_2
REMARK    2  A    between atoms: C_2  and  N_3
REMARK    3  A    between atoms: C_2  and  C_16
REMARK    4  A    between atoms: C_4  and  C_6
REMARK    5  A    between atoms: C_19  and  C_20
REMARK    6  A    between atoms: C_20  and  N_21
REMARK    7  A    between atoms: C_22  and  C_24
REMARK                            x       y       z     vdW  Elec       q    Type
REMARK                         _______ _______ _______ _____ _____    ______ ____
ROOT
ATOM      1  C   UNL     1      46.295   7.248  12.419  0.00  0.00    +0.000 A 
ATOM      2  C   UNL     1      46.836   6.812  11.201  0.00  0.00    +0.000 A 
ATOM      3  C   UNL     1      46.143   5.895  10.401  0.00  0.00    +0.000 A 
ATOM      4  C   UNL     1      44.893   5.399  10.798  0.00  0.00    +0.000 A 
ATOM      5  C   UNL     1      44.353   5.829  12.015  0.00  0.00    +0.000 A 
ATOM      6  C   UNL     1      45.043   6.745  12.811  0.00  0.00    +0.000 A 
ENDROOT
BRANCH   1   8
ATOM      7  C   UNL     1      46.190   9.442  13.625  0.00  0.00    +0.000 C 
ATOM      8  C   UNL     1      47.059   8.216  13.316  0.00  0.00    +0.000 C 
BRANCH   8   9
ATOM      9  N   UNL     1      47.490   7.507  14.513  0.00  0.00    +0.000 N 
ATOM     10  C   UNL     1      48.704   6.880  14.629  0.00  0.00    +0.000 C 
ATOM     11  O   UNL     1      49.560   6.922  13.750  0.00  0.00    +0.000 OA
ATOM     12  H   UNL     1      46.741   7.190  15.122  0.00  0.00    +0.000 HD
BRANCH  10  13
ATOM     13  C   UNL     1      48.964   6.198  15.903  0.00  0.00    +0.000 A 
ATOM     14  C   UNL     1      49.984   6.652  16.727  0.00  0.00    +0.000 A 
ATOM     15  S   UNL     1      50.157   5.750  18.164  0.00  0.00    +0.000 S 
ATOM     16  C   UNL     1      48.900   4.694  17.715  0.00  0.00    +0.000 A 
ATOM     17  N   UNL     1      48.559   3.639  18.502  0.00  0.00    +0.000 NA
ATOM     18  C   UNL     1      47.609   2.904  18.026  0.00  0.00    +0.000 A 
ATOM     19  N   UNL     1      46.960   3.138  16.841  0.00  0.00    +0.000 N 
ATOM     20  C   UNL     1      47.244   4.214  16.034  0.00  0.00    +0.000 A 
ATOM     21  O   UNL     1      46.601   4.438  15.013  0.00  0.00    +0.000 OA
ATOM     22  C   UNL     1      48.330   5.050  16.505  0.00  0.00    +0.000 A 
ATOM     23  H   UNL     1      46.207   2.538  16.538  0.00  0.00    +0.000 HD
ENDBRANCH  10  13
ENDBRANCH   8   9
ENDBRANCH   1   8
BRANCH   4  24
ATOM     24  C   UNL     1      44.174   4.360   9.976  0.00  0.00    +0.000 C 
BRANCH  24  25
ATOM     25  N   UNL     1      44.955   4.015   8.810  0.00  0.00    +0.000 N 
ATOM     26  C   UNL     1      45.545   2.783   8.668  0.00  0.00    +0.000 C 
ATOM     27  O   UNL     1      45.426   1.892   9.504  0.00  0.00    +0.000 OA
ATOM     28  H   UNL     1      45.101   4.742   8.119  0.00  0.00    +0.000 HD
BRANCH  26  29
ATOM     29  C   UNL     1      46.292   2.516   7.413  0.00  0.00    +0.000 A 
ATOM     30  C   UNL     1      46.460   3.585   6.521  0.00  0.00    +0.000 A 
ATOM     31  C   UNL     1      47.201   3.414   5.352  0.00  0.00    +0.000 A 
ATOM     32  C   UNL     1      47.746   2.168   5.100  0.00  0.00    +0.000 A 
ATOM     33  N   UNL     1      47.585   1.106   5.916  0.00  0.00    +0.000 NA
ATOM     34  C   UNL     1      46.856   1.299   7.045  0.00  0.00    +0.000 A 
ATOM     35 CL   UNL     1      46.694  -0.169   7.935  0.00  0.00    +0.000 Cl
ENDBRANCH  26  29
ENDBRANCH  24  25
ENDBRANCH   4  24
TORSDOF 6
ENDMDL
MODEL 3
REMARK VINA RESULT:    -7.521      3.516      9.007
REMARK INTER + INTRA:         -11.360
REMARK INTER:                 -10.587
REMARK INTRA:                  -0.772
REMARK UNBOUND:                -1.200
REMARK  Name = 
REMARK  7 active torsions:
REMARK  status: ('A' for Active; 'I' for Inactive)
REMARK    1  A    between atoms: C_1  and  C_2
REMARK    2  A    between atoms: C_2  and  N_3
REMARK    3  A    between atoms: C_2  and  C_16
REMARK    4  A    between atoms: C_4  and  C_6
REMARK    5  A    between atoms: C_19  and  C_20
REMARK    6  A    between atoms: C_20  and  N_21
REMARK    7  A    between atoms: C_22  and  C_24
REMARK                            x       y       z     vdW  Elec       q    Type
REMARK                         _______ _______ _______ _____ _____    ______ ____
ROOT
ATOM      1  C   UNL     1      47.043   7.007  13.192  0.00  0.00    +0.000 A 
ATOM      2  C   UNL     1      46.385   7.802  12.243  0.00  0.00    +0.000 A 
ATOM      3  C   UNL     1      45.397   7.252  11.415  0.00  0.00    +0.000 A 
ATOM      4  C   UNL     1      45.043   5.900  11.522  0.00  0.00    +0.000 A 
ATOM      5  C   UNL     1      45.703   5.104  12.465  0.00  0.00    +0.000 A 
ATOM      6  C   UNL     1      46.684   5.652  13.292  0.00  0.00    +0.000 A 
ENDROOT
BRANCH   1   8
ATOM      7  C   UNL     1      48.029   9.114  14.121  0.00  0.00    +0.000 C 
ATOM      8  C   UNL     1      48.147   7.585  14.070  0.00  0.00    +0.000 C 
BRANCH   8   9
ATOM      9  N   UNL     1      48.075   6.965  15.386  0.00  0.00    +0.000 N 
ATOM     10  C   UNL     1      49.161   6.441  16.039  0.00  0.00    +0.000 C 
ATOM     11  O   UNL     1      50.303   6.513  15.593  0.00  0.00    +0.000 OA
ATOM     12  H   UNL     1      47.158   6.617  15.652  0.00  0.00    +0.000 HD
BRANCH  10  13
ATOM     13  C   UNL     1      48.901   5.838  17.352  0.00  0.00    +0.000 A 
ATOM     14  C   UNL     1      49.112   4.479  17.536  0.00  0.00    +0.000 A 
ATOM     15  S   UNL     1      48.759   3.938  19.114  0.00  0.00    +0.000 S 
ATOM     16  C   UNL     1      48.270   5.495  19.596  0.00  0.00    +0.000 A 
ATOM     17  N   UNL     1      47.796   5.721  20.850  0.00  0.00    +0.000 NA
ATOM     18  C   UNL     1      47.433   6.942  21.070  0.00  0.00    +0.000 A 
ATOM     19  N   UNL     1      47.517   7.958  20.153  0.00  0.00    +0.000 N 
ATOM     20  C   UNL     1      48.027   7.784  18.889  0.00  0.00    +0.000 A 
ATOM     21  O   UNL     1      48.154   8.725  18.112  0.00  0.00    +0.000 OA
ATOM     22  C   UNL     1      48.413   6.422  18.579  0.00  0.00    +0.000 A 
ATOM     23  H   UNL     1      47.240   8.898  20.399  0.00  0.00    +0.000 HD
ENDBRANCH  10  13
ENDBRANCH   8   9
ENDBRANCH   1   8
BRANCH   4  24
ATOM     24  C   UNL     1      44.031   5.287  10.589  0.00  0.00    +0.000 C 
BRANCH  24  25
ATOM     25  N   UNL     1      44.605   4.152   9.902  0.00  0.00    +0.000 N 
ATOM     26  C   UNL     1      45.485   4.301   8.858  0.00  0.00    +0.000 C 
ATOM     27  O   UNL     1      45.860   5.401   8.461  0.00  0.00    +0.000 OA
ATOM     28  H   UNL     1      44.287   3.232  10.184  0.00  0.00    +0.000 HD
BRANCH  26  29
ATOM     29  C   UNL     1      46.048   3.071   8.248  0.00  0.00    +0.000 A 
ATOM     30  C   UNL     1      47.092   3.227   7.325  0.00  0.00    +0.000 A 
ATOM     31  C   UNL     1      47.702   2.108   6.759  0.00  0.00    +0.000 A 
ATOM     32  C   UNL     1      47.241   0.857   7.125  0.00  0.00    +0.000 A 
ATOM     33  N   UNL     1      46.222   0.661   7.987  0.00  0.00    +0.000 NA
ATOM     34  C   UNL     1      45.643   1.768   8.520  0.00  0.00    +0.000 A 
ATOM     35 CL   UNL     1      44.322   1.343   9.543  0.00  0.00    +0.000 Cl
ENDBRANCH  26  29
ENDBRANCH  24  25
ENDBRANCH   4  24
TORSDOF 6
ENDMDL
MODEL 4
REMARK VINA RESULT:    -7.457      1.484      2.024
REMARK INTER + INTRA:         -11.273
REMARK INTER:                 -10.108
REMARK INTRA:                  -1.166
REMARK UNBOUND:                -1.200
REMARK  Name = 
REMARK  7 active torsions:
REMARK  status: ('A' for Active; 'I' for Inactive)
REMARK    1  A    between atoms: C_1  and  C_2
REMARK    2  A    between atoms: C_2  and  N_3
REMARK    3  A    between atoms: C_2  and  C_16
REMARK    4  A    between atoms: C_4  and  C_6
REMARK    5  A    between atoms: C_19  and  C_20
REMARK    6  A    between atoms: C_20  and  N_21
REMARK    7  A    between atoms: C_22  and  C_24
REMARK                            x       y       z     vdW  Elec       q    Type
REMARK                         _______ _______ _______ _____ _____    ______ ____
ROOT
ATOM      1  C   UNL     1      48.052   8.111  13.931  0.00  0.00    +0.000 A 
ATOM      2  C   UNL     1      48.413   6.783  14.201  0.00  0.00    +0.000 A 
ATOM      3  C   UNL     1      48.960   6.431  15.441  0.00  0.00    +0.000 A 
ATOM      4  C   UNL     1      49.154   7.398  16.439  0.00  0.00    +0.000 A 
ATOM      5  C   UNL     1      48.800   8.724  16.170  0.00  0.00    +0.000 A 
ATOM      6  C   UNL     1      48.252   9.074  14.935  0.00  0.00    +0.000 A 
ENDROOT
BRANCH   1   8
ATOM      7  C   UNL     1      48.566   9.249  11.759  0.00  0.00    +0.000 C 
ATOM      8  C   UNL     1      47.493   8.512  12.571  0.00  0.00    +0.000 C 
BRANCH   8   9
ATOM      9  N   UNL     1      46.989   7.321  11.900  0.00  0.00    +0.000 N 
ATOM     10  C   UNL     1      45.690   7.175  11.486  0.00  0.00    +0.000 C 
ATOM     11  O   UNL     1      44.855   8.069  11.588  0.00  0.00    +0.000 OA
ATOM     12  H   UNL     1      47.526   6.473  12.061  0.00  0.00    +0.000 HD
BRANCH  10  13
ATOM     13  C   UNL     1      45.353   5.899  10.842  0.00  0.00    +0.000 A 
ATOM     14  C   UNL     1      45.697   5.690   9.514  0.00  0.00    +0.000 A 
ATOM     15  S   UNL     1      45.232   4.161   8.919  0.00  0.00    +0.000 S 
ATOM     16  C   UNL     1      44.515   3.741  10.404  0.00  0.00    +0.000 A 
ATOM     17  N   UNL     1      43.878   2.550  10.561  0.00  0.00    +0.000 NA
ATOM     18  C   UNL     1      43.355   2.375  11.729  0.00  0.00    +0.000 A 
ATOM     19  N   UNL     1      43.424   3.279  12.759  0.00  0.00    +0.000 N 
ATOM     20  C   UNL     1      44.091   4.476  12.658  0.00  0.00    +0.000 A 
ATOM     21  O   UNL     1      44.197   5.235  13.616  0.00  0.00    +0.000 OA
ATOM     22  C   UNL     1      44.664   4.738  11.353  0.00  0.00    +0.000 A 
ATOM     23  H   UNL     1      43.015   3.069  13.657  0.00  0.00    +0.000 HD
ENDBRANCH  10  13
ENDBRANCH   8   9
ENDBRANCH   1   8
BRANCH   4  24
ATOM     24  C   UNL     1      49.806   7.039  17.750  0.00  0.00    +0.000 C 
BRANCH  24  25
ATOM     25  N   UNL     1      50.560   5.813  17.616  0.00  0.00    +0.000 N 
ATOM     26  C   UNL     1      50.125   4.628  18.158  0.00  0.00    +0.000 C 
ATOM     27  O   UNL     1      49.062   4.528  18.764  0.00  0.00    +0.000 OA
ATOM     28  H   UNL     1      51.459   5.872  17.152  0.00  0.00    +0.000 HD
BRANCH  26  29
ATOM     29  C   UNL     1      50.955   3.418  17.928  0.00  0.00    +0.000 A 
ATOM     30  C   UNL     1      52.270   3.436  18.413  0.00  0.00    +0.000 A 
ATOM     31  C   UNL     1      53.082   2.310  18.280  0.00  0.00    +0.000 A 
ATOM     32  C   UNL     1      52.557   1.195  17.652  0.00  0.00    +0.000 A 
ATOM     33  N   UNL     1      51.307   1.145  17.146  0.00  0.00    +0.000 NA
ATOM     34  C   UNL     1      50.540   2.257  17.286  0.00  0.00    +0.000 A 
ATOM     35 CL   UNL     1      49.004   2.046  16.530  0.00  0.00    +0.000 Cl
ENDBRANCH  26  29
ENDBRANCH  24  25
ENDBRANCH   4  24
TORSDOF 6
ENDMDL
MODEL 5
REMARK VINA RESULT:    -7.379      3.932      8.880
REMARK INTER + INTRA:         -11.167
REMARK INTER:                  -9.991
REMARK INTRA:                  -1.177
REMARK UNBOUND:                -1.200
REMARK  Name = 
REMARK  7 active torsions:
REMARK  status: ('A' for Active; 'I' for Inactive)
REMARK    1  A    between atoms: C_1  and  C_2
REMARK    2  A    between atoms: C_2  and  N_3
REMARK    3  A    between atoms: C_2  and  C_16
REMARK    4  A    between atoms: C_4  and  C_6
REMARK    5  A    between atoms: C_19  and  C_20
REMARK    6  A    between atoms: C_20  and  N_21
REMARK    7  A    between atoms: C_22  and  C_24
REMARK                            x       y       z     vdW  Elec       q    Type
REMARK                         _______ _______ _______ _____ _____    ______ ____
ROOT
ATOM      1  C   UNL     1      45.956   7.245  12.679  0.00  0.00    +0.000 A 
ATOM      2  C   UNL     1      44.761   7.197  11.947  0.00  0.00    +0.000 A 
ATOM      3  C   UNL     1      44.160   5.969  11.643  0.00  0.00    +0.000 A 
ATOM      4  C   UNL     1      44.737   4.764  12.068  0.00  0.00    +0.000 A 
ATOM      5  C   UNL     1      45.932   4.809  12.794  0.00  0.00    +0.000 A 
ATOM      6  C   UNL     1      46.530   6.033  13.099  0.00  0.00    +0.000 A 
ENDROOT
BRANCH   1   8
ATOM      7  C   UNL     1      45.720   9.737  12.587  0.00  0.00    +0.000 C 
ATOM      8  C   UNL     1      46.639   8.574  12.981  0.00  0.00    +0.000 C 
BRANCH   8   9
ATOM      9  N   UNL     1      47.019   8.599  14.386  0.00  0.00    +0.000 N 
ATOM     10  C   UNL     1      48.202   9.118  14.844  0.00  0.00    +0.000 C 
ATOM     11  O   UNL     1      49.016   9.668  14.108  0.00  0.00    +0.000 OA
ATOM     12  H   UNL     1      46.551   7.915  14.974  0.00  0.00    +0.000 HD
BRANCH  10  13
ATOM     13  C   UNL     1      48.427   9.044  16.294  0.00  0.00    +0.000 A 
ATOM     14  C   UNL     1      48.306  10.191  17.065  0.00  0.00    +0.000 A 
ATOM     15  S   UNL     1      48.603   9.934  18.725  0.00  0.00    +0.000 S 
ATOM     16  C   UNL     1      48.944   8.287  18.464  0.00  0.00    +0.000 A 
ATOM     17  N   UNL     1      49.324   7.481  19.490  0.00  0.00    +0.000 NA
ATOM     18  C   UNL     1      49.580   6.263  19.145  0.00  0.00    +0.000 A 
ATOM     19  N   UNL     1      49.477   5.776  17.867  0.00  0.00    +0.000 N 
ATOM     20  C   UNL     1      49.059   6.544  16.807  0.00  0.00    +0.000 A 
ATOM     21  O   UNL     1      48.910   6.065  15.687  0.00  0.00    +0.000 OA
ATOM     22  C   UNL     1      48.795   7.931  17.135  0.00  0.00    +0.000 A 
ATOM     23  H   UNL     1      49.668   4.805  17.668  0.00  0.00    +0.000 HD
ENDBRANCH  10  13
ENDBRANCH   8   9
ENDBRANCH   1   8
BRANCH   4  24
ATOM     24  C   UNL     1      44.133   3.437  11.686  0.00  0.00    +0.000 C 
BRANCH  24  25
ATOM     25  N   UNL     1      44.960   2.773  10.705  0.00  0.00    +0.000 N 
ATOM     26  C   UNL     1      44.883   3.070   9.366  0.00  0.00    +0.000 C 
ATOM     27  O   UNL     1      44.129   3.932   8.922  0.00  0.00    +0.000 OA
ATOM     28  H   UNL     1      45.566   2.032  11.037  0.00  0.00    +0.000 HD
BRANCH  26  29
ATOM     29  C   UNL     1      45.806   2.359   8.446  0.00  0.00    +0.000 A 
ATOM     30  C   UNL     1      45.779   0.957   8.461  0.00  0.00    +0.000 A 
ATOM     31  C   UNL     1      46.580   0.230   7.581  0.00  0.00    +0.000 A 
ATOM     32  C   UNL     1      47.399   0.930   6.713  0.00  0.00    +0.000 A 
ATOM     33  N   UNL     1      47.477   2.276   6.685  0.00  0.00    +0.000 NA
ATOM     34  C   UNL     1      46.689   2.958   7.555  0.00  0.00    +0.000 A 
ATOM     35 CL   UNL     1      46.959   4.657   7.432  0.00  0.00    +0.000 Cl
ENDBRANCH  26  29
ENDBRANCH  24  25
ENDBRANCH   4  24
TORSDOF 6
ENDMDL
MODEL 6
REMARK VINA RESULT:    -7.212      3.924      8.978
REMARK INTER + INTRA:         -10.942
REMARK INTER:                  -9.810
REMARK INTRA:                  -1.131
REMARK UNBOUND:                -1.200
REMARK  Name = 
REMARK  7 active torsions:
REMARK  status: ('A' for Active; 'I' for Inactive)
REMARK    1  A    between atoms: C_1  and  C_2
REMARK    2  A    between atoms: C_2  and  N_3
REMARK    3  A    between atoms: C_2  and  C_16
REMARK    4  A    between atoms: C_4  and  C_6
REMARK    5  A    between atoms: C_19  and  C_20
REMARK    6  A    between atoms: C_20  and  N_21
REMARK    7  A    between atoms: C_22  and  C_24
REMARK                            x       y       z     vdW  Elec       q    Type
REMARK                         _______ _______ _______ _____ _____    ______ ____
ROOT
ATOM      1  C   UNL     1      46.568   4.831  14.079  0.00  0.00    +0.000 A 
ATOM      2  C   UNL     1      46.452   3.511  13.622  0.00  0.00    +0.000 A 
ATOM      3  C   UNL     1      45.740   3.222  12.452  0.00  0.00    +0.000 A 
ATOM      4  C   UNL     1      45.132   4.246  11.711  0.00  0.00    +0.000 A 
ATOM      5  C   UNL     1      45.242   5.563  12.168  0.00  0.00    +0.000 A 
ATOM      6  C   UNL     1      45.954   5.852  13.333  0.00  0.00    +0.000 A 
ENDROOT
BRANCH   1   8
ATOM      7  C   UNL     1      47.502   3.873  16.197  0.00  0.00    +0.000 C 
ATOM      8  C   UNL     1      47.307   5.153  15.373  0.00  0.00    +0.000 C 
BRANCH   8   9
ATOM      9  N   UNL     1      48.562   5.816  15.046  0.00  0.00    +0.000 N 
ATOM     10  C   UNL     1      49.112   6.818  15.803  0.00  0.00    +0.000 C 
ATOM     11  O   UNL     1      48.620   7.196  16.862  0.00  0.00    +0.000 OA
ATOM     12  H   UNL     1      48.838   5.764  14.069  0.00  0.00    +0.000 HD
BRANCH  10  13
ATOM     13  C   UNL     1      50.374   7.385  15.312  0.00  0.00    +0.000 A 
ATOM     14  C   UNL     1      51.494   7.373  16.132  0.00  0.00    +0.000 A 
ATOM     15  S   UNL     1      52.875   8.072  15.414  0.00  0.00    +0.000 S 
ATOM     16  C   UNL     1      52.012   8.453  13.998  0.00  0.00    +0.000 A 
ATOM     17  N   UNL     1      52.609   9.119  12.974  0.00  0.00    +0.000 NA
ATOM     18  C   UNL     1      51.829   9.369  11.974  0.00  0.00    +0.000 A 
ATOM     19  N   UNL     1      50.511   8.999  11.901  0.00  0.00    +0.000 N 
ATOM     20  C   UNL     1      49.878   8.289  12.894  0.00  0.00    +0.000 A 
ATOM     21  O   UNL     1      48.717   7.911  12.773  0.00  0.00    +0.000 OA
ATOM     22  C   UNL     1      50.700   8.017  14.056  0.00  0.00    +0.000 A 
ATOM     23  H   UNL     1      49.963   9.202  11.078  0.00  0.00    +0.000 HD
ENDBRANCH  10  13
ENDBRANCH   8   9
ENDBRANCH   1   8
BRANCH   4  24
ATOM     24  C   UNL     1      44.306   3.934  10.489  0.00  0.00    +0.000 C 
BRANCH  24  25
ATOM     25  N   UNL     1      45.162   3.741   9.341  0.00  0.00    +0.000 N 
ATOM     26  C   UNL     1      45.300   2.518   8.733  0.00  0.00    +0.000 C 
ATOM     27  O   UNL     1      44.689   1.520   9.107  0.00  0.00    +0.000 OA
ATOM     28  H   UNL     1      45.707   4.538   9.032  0.00  0.00    +0.000 HD
BRANCH  26  29
ATOM     29  C   UNL     1      46.173   2.436   7.535  0.00  0.00    +0.000 A 
ATOM     30  C   UNL     1      46.311   3.595   6.757  0.00  0.00    +0.000 A 
ATOM     31  C   UNL     1      47.161   3.600   5.651  0.00  0.00    +0.000 A 
ATOM     32  C   UNL     1      47.845   2.438   5.346  0.00  0.00    +0.000 A 
ATOM     33  N   UNL     1      47.719   1.293   6.050  0.00  0.00    +0.000 NA
ATOM     34  C   UNL     1      46.882   1.315   7.119  0.00  0.00    +0.000 A 
ATOM     35 CL   UNL     1      46.790  -0.239   7.862  0.00  0.00    +0.000 Cl
ENDBRANCH  26  29
ENDBRANCH  24  25
ENDBRANCH   4  24
TORSDOF 6
ENDMDL
MODEL 7
REMARK VINA RESULT:    -6.740      3.857      8.880
REMARK INTER + INTRA:         -10.304
REMARK INTER:                  -9.495
REMARK INTRA:                  -0.808
REMARK UNBOUND:                -1.200
REMARK  Name = 
REMARK  7 active torsions:
REMARK  status: ('A' for Active; 'I' for Inactive)
REMARK    1  A    between atoms: C_1  and  C_2
REMARK    2  A    between atoms: C_2  and  N_3
REMARK    3  A    between atoms: C_2  and  C_16
REMARK    4  A    between atoms: C_4  and  C_6
REMARK    5  A    between atoms: C_19  and  C_20
REMARK    6  A    between atoms: C_20  and  N_21
REMARK    7  A    between atoms: C_22  and  C_24
REMARK                            x       y       z     vdW  Elec       q    Type
REMARK                         _______ _______ _______ _____ _____    ______ ____
ROOT
ATOM      1  C   UNL     1      49.077   8.000  13.692  0.00  0.00    +0.000 A 
ATOM      2  C   UNL     1      48.897   7.219  12.542  0.00  0.00    +0.000 A 
ATOM      3  C   UNL     1      47.652   7.171  11.901  0.00  0.00    +0.000 A 
ATOM      4  C   UNL     1      46.563   7.904  12.395  0.00  0.00    +0.000 A 
ATOM      5  C   UNL     1      46.740   8.679  13.546  0.00  0.00    +0.000 A 
ATOM      6  C   UNL     1      47.981   8.730  14.182  0.00  0.00    +0.000 A 
ENDROOT
BRANCH   1   8
ATOM      7  C   UNL     1      51.280   9.179  13.883  0.00  0.00    +0.000 C 
ATOM      8  C   UNL     1      50.417   8.029  14.419  0.00  0.00    +0.000 C 
BRANCH   8   9
ATOM      9  N   UNL     1      50.173   8.120  15.852  0.00  0.00    +0.000 N 
ATOM     10  C   UNL     1      50.131   7.032  16.686  0.00  0.00    +0.000 C 
ATOM     11  O   UNL     1      50.363   5.890  16.301  0.00  0.00    +0.000 OA
ATOM     12  H   UNL     1      49.691   8.961  16.157  0.00  0.00    +0.000 HD
BRANCH  10  13
ATOM     13  C   UNL     1      49.855   7.309  18.101  0.00  0.00    +0.000 A 
ATOM     14  C   UNL     1      50.671   8.189  18.799  0.00  0.00    +0.000 A 
ATOM     15  S   UNL     1      50.218   8.397  20.429  0.00  0.00    +0.000 S 
ATOM     16  C   UNL     1      48.940   7.285  20.272  0.00  0.00    +0.000 A 
ATOM     17  N   UNL     1      48.161   6.960  21.338  0.00  0.00    +0.000 NA
ATOM     18  C   UNL     1      47.248   6.082  21.083  0.00  0.00    +0.000 A 
ATOM     19  N   UNL     1      47.036   5.510  19.854  0.00  0.00    +0.000 N 
ATOM     20  C   UNL     1      47.772   5.838  18.741  0.00  0.00    +0.000 A 
ATOM     21  O   UNL     1      47.516   5.363  17.639  0.00  0.00    +0.000 OA
ATOM     22  C   UNL     1      48.836   6.793  18.983  0.00  0.00    +0.000 A 
ATOM     23  H   UNL     1      46.287   4.848  19.716  0.00  0.00    +0.000 HD
ENDBRANCH  10  13
ENDBRANCH   8   9
ENDBRANCH   1   8
BRANCH   4  24
ATOM     24  C   UNL     1      45.204   7.802  11.751  0.00  0.00    +0.000 C 
BRANCH  24  25
ATOM     25  N   UNL     1      45.159   6.672  10.852  0.00  0.00    +0.000 N 
ATOM     26  C   UNL     1      44.741   5.430  11.264  0.00  0.00    +0.000 C 
ATOM     27  O   UNL     1      44.357   5.207  12.409  0.00  0.00    +0.000 OA
ATOM     28  H   UNL     1      45.504   6.817   9.910  0.00  0.00    +0.000 HD
BRANCH  26  29
ATOM     29  C   UNL     1      44.693   4.346  10.250  0.00  0.00    +0.000 A 
ATOM     30  C   UNL     1      45.280   4.602   9.003  0.00  0.00    +0.000 A 
ATOM     31  C   UNL     1      45.319   3.606   8.027  0.00  0.00    +0.000 A 
ATOM     32  C   UNL     1      44.756   2.378   8.324  0.00  0.00    +0.000 A 
ATOM     33  N   UNL     1      44.157   2.098   9.501  0.00  0.00    +0.000 NA
ATOM     34  C   UNL     1      44.130   3.088  10.430  0.00  0.00    +0.000 A 
ATOM     35 CL   UNL     1      43.274   2.587  11.841  0.00  0.00    +0.000 Cl
ENDBRANCH  26  29
ENDBRANCH  24  25
ENDBRANCH   4  24
TORSDOF 6
ENDMDL
MODEL 8
REMARK VINA RESULT:    -6.729      1.762      2.038
REMARK INTER + INTRA:         -10.289
REMARK INTER:                  -9.088
REMARK INTRA:                  -1.201
REMARK UNBOUND:                -1.200
REMARK  Name = 
REMARK  7 active torsions:
REMARK  status: ('A' for Active; 'I' for Inactive)
REMARK    1  A    between atoms: C_1  and  C_2
REMARK    2  A    between atoms: C_2  and  N_3
REMARK    3  A    between atoms: C_2  and  C_16
REMARK    4  A    between atoms: C_4  and  C_6
REMARK    5  A    between atoms: C_19  and  C_20
REMARK    6  A    between atoms: C_20  and  N_21
REMARK    7  A    between atoms: C_22  and  C_24
REMARK                            x       y       z     vdW  Elec       q    Type
REMARK                         _______ _______ _______ _____ _____    ______ ____
ROOT
ATOM      1  C   UNL     1      48.196   7.854  13.798  0.00  0.00    +0.000 A 
ATOM      2  C   UNL     1      47.966   8.951  14.641  0.00  0.00    +0.000 A 
ATOM      3  C   UNL     1      48.348   8.908  15.988  0.00  0.00    +0.000 A 
ATOM      4  C   UNL     1      48.972   7.770  16.519  0.00  0.00    +0.000 A 
ATOM      5  C   UNL     1      49.197   6.672  15.682  0.00  0.00    +0.000 A 
ATOM      6  C   UNL     1      48.819   6.717  14.339  0.00  0.00    +0.000 A 
ENDROOT
BRANCH   1   8
ATOM      7  C   UNL     1      48.970   7.992  11.419  0.00  0.00    +0.000 C 
ATOM      8  C   UNL     1      47.749   7.876  12.341  0.00  0.00    +0.000 C 
BRANCH   8   9
ATOM      9  N   UNL     1      46.946   6.690  12.077  0.00  0.00    +0.000 N 
ATOM     10  C   UNL     1      45.586   6.715  11.908  0.00  0.00    +0.000 C 
ATOM     11  O   UNL     1      44.936   7.757  11.900  0.00  0.00    +0.000 OA
ATOM     12  H   UNL     1      47.364   5.810  12.368  0.00  0.00    +0.000 HD
BRANCH  10  13
ATOM     13  C   UNL     1      44.937   5.420  11.667  0.00  0.00    +0.000 A 
ATOM     14  C   UNL     1      44.185   4.832  12.674  0.00  0.00    +0.000 A 
ATOM     15  S   UNL     1      43.505   3.332  12.234  0.00  0.00    +0.000 S 
ATOM     16  C   UNL     1      44.227   3.395  10.694  0.00  0.00    +0.000 A 
ATOM     17  N   UNL     1      44.080   2.372   9.811  0.00  0.00    +0.000 NA
ATOM     18  C   UNL     1      44.705   2.539   8.693  0.00  0.00    +0.000 A 
ATOM     19  N   UNL     1      45.453   3.644   8.375  0.00  0.00    +0.000 N 
ATOM     20  C   UNL     1      45.596   4.718   9.220  0.00  0.00    +0.000 A 
ATOM     21  O   UNL     1      46.215   5.723   8.883  0.00  0.00    +0.000 OA
ATOM     22  C   UNL     1      44.944   4.563  10.505  0.00  0.00    +0.000 A 
ATOM     23  H   UNL     1      45.897   3.723   7.471  0.00  0.00    +0.000 HD
ENDBRANCH  10  13
ENDBRANCH   8   9
ENDBRANCH   1   8
BRANCH   4  24
ATOM     24  C   UNL     1      49.322   7.690  17.983  0.00  0.00    +0.000 C 
BRANCH  24  25
ATOM     25  N   UNL     1      50.368   6.717  18.196  0.00  0.00    +0.000 N 
ATOM     26  C   UNL     1      50.217   5.662  19.062  0.00  0.00    +0.000 C 
ATOM     27  O   UNL     1      49.179   5.463  19.687  0.00  0.00    +0.000 OA
ATOM     28  H   UNL     1      51.250   6.875  17.721  0.00  0.00    +0.000 HD
BRANCH  26  29
ATOM     29  C   UNL     1      51.338   4.696  19.177  0.00  0.00    +0.000 A 
ATOM     30  C   UNL     1      51.561   3.832  18.095  0.00  0.00    +0.000 A 
ATOM     31  C   UNL     1      52.632   2.941  18.117  0.00  0.00    +0.000 A 
ATOM     32  C   UNL     1      53.450   2.929  19.232  0.00  0.00    +0.000 A 
ATOM     33  N   UNL     1      53.256   3.722  20.307  0.00  0.00    +0.000 NA
ATOM     34  C   UNL     1      52.202   4.577  20.260  0.00  0.00    +0.000 A 
ATOM     35 CL   UNL     1      52.061   5.464  21.732  0.00  0.00    +0.000 Cl
ENDBRANCH  26  29
ENDBRANCH  24  25
ENDBRANCH   4  24
TORSDOF 6
ENDMDL
MODEL 9
REMARK VINA RESULT:    -6.588      2.931      8.960
REMARK INTER + INTRA:         -10.098
REMARK INTER:                  -8.924
REMARK INTRA:                  -1.174
REMARK UNBOUND:                -1.200
REMARK  Name = 
REMARK  7 active torsions:
REMARK  status: ('A' for Active; 'I' for Inactive)
REMARK    1  A    between atoms: C_1  and  C_2
REMARK    2  A    between atoms: C_2  and  N_3
REMARK    3  A    between atoms: C_2  and  C_16
REMARK    4  A    between atoms: C_4  and  C_6
REMARK    5  A    between atoms: C_19  and  C_20
REMARK    6  A    between atoms: C_20  and  N_21
REMARK    7  A    between atoms: C_22  and  C_24
REMARK                            x       y       z     vdW  Elec       q    Type
REMARK                         _______ _______ _______ _____ _____    ______ ____
ROOT
ATOM      1  C   UNL     1      48.775   7.461  16.183  0.00  0.00    +0.000 A 
ATOM      2  C   UNL     1      48.586   6.354  15.343  0.00  0.00    +0.000 A 
ATOM      3  C   UNL     1      48.122   6.526  14.033  0.00  0.00    +0.000 A 
ATOM      4  C   UNL     1      47.842   7.806  13.533  0.00  0.00    +0.000 A 
ATOM      5  C   UNL     1      48.024   8.910  14.372  0.00  0.00    +0.000 A 
ATOM      6  C   UNL     1      48.489   8.740  15.676  0.00  0.00    +0.000 A 
ENDROOT
BRANCH   1   8
ATOM      7  C   UNL     1      48.035   7.044  18.540  0.00  0.00    +0.000 C 
ATOM      8  C   UNL     1      49.242   7.282  17.623  0.00  0.00    +0.000 C 
BRANCH   8   9
ATOM      9  N   UNL     1      50.215   6.200  17.672  0.00  0.00    +0.000 N 
ATOM     10  C   UNL     1      51.172   6.081  18.647  0.00  0.00    +0.000 C 
ATOM     11  O   UNL     1      51.243   6.847  19.604  0.00  0.00    +0.000 OA
ATOM     12  H   UNL     1      50.394   5.738  16.784  0.00  0.00    +0.000 HD
BRANCH  10  13
ATOM     13  C   UNL     1      52.082   4.935  18.529  0.00  0.00    +0.000 A 
ATOM     14  C   UNL     1      53.435   5.105  18.789  0.00  0.00    +0.000 A 
ATOM     15  S   UNL     1      54.353   3.680  18.602  0.00  0.00    +0.000 S 
ATOM     16  C   UNL     1      52.980   2.795  18.124  0.00  0.00    +0.000 A 
ATOM     17  N   UNL     1      53.081   1.487  17.767  0.00  0.00    +0.000 NA
ATOM     18  C   UNL     1      51.967   0.947  17.398  0.00  0.00    +0.000 A 
ATOM     19  N   UNL     1      50.758   1.594  17.369  0.00  0.00    +0.000 N 
ATOM     20  C   UNL     1      50.602   2.903  17.760  0.00  0.00    +0.000 A 
ATOM     21  O   UNL     1      49.497   3.437  17.789  0.00  0.00    +0.000 OA
ATOM     22  C   UNL     1      51.831   3.566  18.146  0.00  0.00    +0.000 A 
ATOM     23  H   UNL     1      49.918   1.106  17.095  0.00  0.00    +0.000 HD
ENDBRANCH  10  13
ENDBRANCH   8   9
ENDBRANCH   1   8
BRANCH   4  24
ATOM     24  C   UNL     1      47.277   7.991  12.148  0.00  0.00    +0.000 C 
BRANCH  24  25
ATOM     25  N   UNL     1      46.743   6.743  11.653  0.00  0.00    +0.000 N 
ATOM     26  C   UNL     1      45.417   6.597  11.327  0.00  0.00    +0.000 C 
ATOM     27  O   UNL     1      44.610   7.518  11.409  0.00  0.00    +0.000 OA
ATOM     28  H   UNL     1      47.377   5.954  11.609  0.00  0.00    +0.000 HD
BRANCH  26  29
ATOM     29  C   UNL     1      44.979   5.285  10.789  0.00  0.00    +0.000 A 
ATOM     30  C   UNL     1      45.437   4.924   9.513  0.00  0.00    +0.000 A 
ATOM     31  C   UNL     1      45.108   3.681   8.974  0.00  0.00    +0.000 A 
ATOM     32  C   UNL     1      44.316   2.832   9.725  0.00  0.00    +0.000 A 
ATOM     33  N   UNL     1      43.830   3.149  10.943  0.00  0.00    +0.000 NA
ATOM     34  C   UNL     1      44.163   4.368  11.442  0.00  0.00    +0.000 A 
ATOM     35 CL   UNL     1      43.409   4.637  12.969  0.00  0.00    +0.000 Cl
ENDBRANCH  26  29
ENDBRANCH  24  25
ENDBRANCH   4  24
TORSDOF 6
ENDMDL
