MODEL 1
REMARK VINA RESULT:    -8.635      0.000      0.000
REMARK INTER + INTRA:         -11.804
REMARK INTER:                 -11.159
REMARK INTRA:                  -0.645
REMARK UNBOUND:                -0.645
REMARK  Name = 
REMARK  5 active torsions:
REMARK  status: ('A' for Active; 'I' for Inactive)
REMARK    1  A    between atoms: C_2  and  C_18
REMARK    2  A    between atoms: N_3  and  C_4
REMARK    3  A    between atoms: C_4  and  C_5
REMARK    4  A    between atoms: C_8  and  C_9
REMARK    5  A    between atoms: C_9  and  C_10
REMARK                            x       y       z     vdW  Elec       q    Type
REMARK                         _______ _______ _______ _____ _____    ______ ____
ROOT
ATOM      1  O   UNL     1      48.510   6.767  12.725  0.00  0.00    +0.000 OA
ATOM      2  C   UNL     1      47.810   6.694  13.743  0.00  0.00    +0.000 C 
ATOM      3  N   UNL     1      46.456   6.873  13.728  0.00  0.00    +0.000 N 
ATOM      4  H   UNL     1      45.971   7.057  14.601  0.00  0.00    +0.000 HD
ENDROOT
BRANCH   2   5
ATOM      5  C   UNL     1      48.393   6.362  15.035  0.00  0.00    +0.000 A 
ATOM      6  C   UNL     1      49.343   7.162  15.654  0.00  0.00    +0.000 A 
ATOM      7  S   UNL     1      49.838   6.547  17.175  0.00  0.00    +0.000 S 
ATOM      8  C   UNL     1      48.783   5.216  17.045  0.00  0.00    +0.000 A 
ATOM      9  N   UNL     1      48.692   4.278  18.026  0.00  0.00    +0.000 NA
ATOM     10  C   UNL     1      47.833   3.342  17.790  0.00  0.00    +0.000 A 
ATOM     11  N   UNL     1      47.052   3.251  16.672  0.00  0.00    +0.000 N 
ATOM     12  C   UNL     1      47.152   4.137  15.633  0.00  0.00    +0.000 A 
ATOM     13  O   UNL     1      46.533   3.932  14.596  0.00  0.00    +0.000 OA
ATOM     14  C   UNL     1      48.080   5.231  15.858  0.00  0.00    +0.000 A 
ATOM     15  H   UNL     1      46.427   2.477  16.524  0.00  0.00    +0.000 HD
ENDBRANCH   2   5
BRANCH   3  16
ATOM     16  C   UNL     1      45.760   7.271  12.534  0.00  0.00    +0.000 C 
BRANCH  16  17
ATOM     17  C   UNL     1      45.464   6.104  11.631  0.00  0.00    +0.000 A 
ATOM     18  C   UNL     1      45.860   6.144  10.288  0.00  0.00    +0.000 A 
ATOM     19  C   UNL     1      45.597   5.072   9.433  0.00  0.00    +0.000 A 
ATOM     20  C   UNL     1      44.940   3.923   9.899  0.00  0.00    +0.000 A 
ATOM     21  C   UNL     1      44.528   3.893  11.239  0.00  0.00    +0.000 A 
ATOM     22  C   UNL     1      44.777   4.974  12.091  0.00  0.00    +0.000 A 
BRANCH  20  23
ATOM     23  C   UNL     1      44.677   2.735   8.996  0.00  0.00    +0.000 C 
BRANCH  23  24
ATOM     24  C   UNL     1      45.773   2.474   7.994  0.00  0.00    +0.000 A 
ATOM     25  C   UNL     1      46.019   3.353   6.935  0.00  0.00    +0.000 A 
ATOM     26  C   UNL     1      46.917   2.996   5.934  0.00  0.00    +0.000 A 
ATOM     27  C   UNL     1      47.578   1.785   6.048  0.00  0.00    +0.000 A 
ATOM     28  N   UNL     1      47.419   0.940   7.089  0.00  0.00    +0.000 NA
ATOM     29  C   UNL     1      46.518   1.299   8.032  0.00  0.00    +0.000 A 
ENDBRANCH  23  24
ENDBRANCH  20  23
ENDBRANCH  16  17
ENDBRANCH   3  16
TORSDOF 5
ENDMDL
MODEL 2
REMARK VINA RESULT:    -8.234      1.417      2.086
REMARK INTER + INTRA:         -11.287
REMARK INTER:                 -10.629
REMARK INTRA:                  -0.657
REMARK UNBOUND:                -0.645
REMARK  Name = 
REMARK  5 active torsions:
REMARK  status: ('A' for Active; 'I' for Inactive)
REMARK    1  A    between atoms: C_2  and  C_18
REMARK    2  A    between atoms: N_3  and  C_4
REMARK    3  A    between atoms: C_4  and  C_5
REMARK    4  A    between atoms: C_8  and  C_9
REMARK    5  A    between atoms: C_9  and  C_10
REMARK                            x       y       z     vdW  Elec       q    Type
REMARK                         _______ _______ _______ _____ _____    ______ ____
ROOT
ATOM      1  O   UNL     1      48.142   5.501  13.220  0.00  0.00    +0.000 OA
ATOM      2  C   UNL     1      47.339   5.407  14.156  0.00  0.00    +0.000 C 
ATOM      3  N   UNL     1      46.025   5.767  14.047  0.00  0.00    +0.000 N 
ATOM      4  H   UNL     1      45.481   5.914  14.892  0.00  0.00    +0.000 HD
ENDROOT
BRANCH   2   5
ATOM      5  C   UNL     1      47.743   4.857  15.441  0.00  0.00    +0.000 A 
ATOM      6  C   UNL     1      47.416   3.568  15.839  0.00  0.00    +0.000 A 
ATOM      7  S   UNL     1      48.039   3.173  17.385  0.00  0.00    +0.000 S 
ATOM      8  C   UNL     1      48.771   4.702  17.545  0.00  0.00    +0.000 A 
ATOM      9  N   UNL     1      49.490   5.038  18.650  0.00  0.00    +0.000 NA
ATOM     10  C   UNL     1      49.999   6.225  18.614  0.00  0.00    +0.000 A 
ATOM     11  N   UNL     1      49.865   7.110  17.582  0.00  0.00    +0.000 N 
ATOM     12  C   UNL     1      49.101   6.839  16.478  0.00  0.00    +0.000 A 
ATOM     13  O   UNL     1      48.897   7.717  15.648  0.00  0.00    +0.000 OA
ATOM     14  C   UNL     1      48.530   5.504  16.450  0.00  0.00    +0.000 A 
ATOM     15  H   UNL     1      50.251   8.037  17.625  0.00  0.00    +0.000 HD
ENDBRANCH   2   5
BRANCH   3  16
ATOM     16  C   UNL     1      45.509   6.388  12.858  0.00  0.00    +0.000 C 
BRANCH  16  17
ATOM     17  C   UNL     1      45.291   5.396  11.746  0.00  0.00    +0.000 A 
ATOM     18  C   UNL     1      45.610   5.746  10.428  0.00  0.00    +0.000 A 
ATOM     19  C   UNL     1      45.418   4.841   9.383  0.00  0.00    +0.000 A 
ATOM     20  C   UNL     1      44.912   3.556   9.626  0.00  0.00    +0.000 A 
ATOM     21  C   UNL     1      44.576   3.213  10.944  0.00  0.00    +0.000 A 
ATOM     22  C   UNL     1      44.753   4.126  11.989  0.00  0.00    +0.000 A 
BRANCH  20  23
ATOM     23  C   UNL     1      44.730   2.547   8.509  0.00  0.00    +0.000 C 
BRANCH  23  24
ATOM     24  C   UNL     1      45.920   2.430   7.591  0.00  0.00    +0.000 A 
ATOM     25  C   UNL     1      46.098   3.302   6.512  0.00  0.00    +0.000 A 
ATOM     26  C   UNL     1      47.108   3.058   5.585  0.00  0.00    +0.000 A 
ATOM     27  C   UNL     1      47.940   1.972   5.794  0.00  0.00    +0.000 A 
ATOM     28  N   UNL     1      47.844   1.147   6.859  0.00  0.00    +0.000 NA
ATOM     29  C   UNL     1      46.835   1.390   7.726  0.00  0.00    +0.000 A 
ENDBRANCH  23  24
ENDBRANCH  20  23
ENDBRANCH  16  17
ENDBRANCH   3  16
TORSDOF 5
ENDMDL
MODEL 3
REMARK VINA RESULT:    -7.931      1.615      2.357
REMARK INTER + INTRA:         -10.894
REMARK INTER:                 -10.122
REMARK INTRA:                  -0.773
REMARK UNBOUND:                -0.645
REMARK  Name = 
REMARK  5 active torsions:
REMARK  status: ('A' for Active; 'I' for Inactive)
REMARK    1  A    between atoms: C_2  and  C_18
REMARK    2  A    between atoms: N_3  and  C_4
REMARK    3  A    between atoms: C_4  and  C_5
REMARK    4  A    between atoms: C_8  and  C_9
REMARK    5  A    between atoms: C_9  and  C_10
REMARK                            x       y       z     vdW  Elec       q    Type
REMARK                         _______ _______ _______ _____ _____    ______ ____
ROOT
ATOM      1  O   UNL     1      47.166   3.773  14.199  0.00  0.00    +0.000 OA
ATOM      2  C   UNL     1      46.997   4.996  14.117  0.00  0.00    +0.000 C 
ATOM      3  N   UNL     1      45.798   5.559  13.783  0.00  0.00    +0.000 N 
ATOM      4  H   UNL     1      45.774   6.528  13.481  0.00  0.00    +0.000 HD
ENDROOT
BRANCH   2   5
ATOM      5  C   UNL     1      48.074   5.927  14.419  0.00  0.00    +0.000 A 
ATOM      6  C   UNL     1      48.639   6.754  13.460  0.00  0.00    +0.000 A 
ATOM      7  S   UNL     1      49.869   7.764  14.096  0.00  0.00    +0.000 S 
ATOM      8  C   UNL     1      49.658   7.131  15.663  0.00  0.00    +0.000 A 
ATOM      9  N   UNL     1      50.400   7.569  16.716  0.00  0.00    +0.000 NA
ATOM     10  C   UNL     1      50.109   7.007  17.843  0.00  0.00    +0.000 A 
ATOM     11  N   UNL     1      49.148   6.053  18.023  0.00  0.00    +0.000 N 
ATOM     12  C   UNL     1      48.420   5.538  16.984  0.00  0.00    +0.000 A 
ATOM     13  O   UNL     1      47.673   4.587  17.177  0.00  0.00    +0.000 OA
ATOM     14  C   UNL     1      48.682   6.157  15.697  0.00  0.00    +0.000 A 
ATOM     15  H   UNL     1      48.992   5.622  18.918  0.00  0.00    +0.000 HD
ENDBRANCH   2   5
BRANCH   3  16
ATOM     16  C   UNL     1      44.669   4.758  13.394  0.00  0.00    +0.000 C 
BRANCH  16  17
ATOM     17  C   UNL     1      44.684   4.430  11.924  0.00  0.00    +0.000 A 
ATOM     18  C   UNL     1      44.046   3.272  11.463  0.00  0.00    +0.000 A 
ATOM     19  C   UNL     1      44.045   2.950  10.104  0.00  0.00    +0.000 A 
ATOM     20  C   UNL     1      44.675   3.782   9.166  0.00  0.00    +0.000 A 
ATOM     21  C   UNL     1      45.329   4.931   9.633  0.00  0.00    +0.000 A 
ATOM     22  C   UNL     1      45.344   5.245  10.995  0.00  0.00    +0.000 A 
BRANCH  20  23
ATOM     23  C   UNL     1      44.655   3.468   7.683  0.00  0.00    +0.000 C 
BRANCH  23  24
ATOM     24  C   UNL     1      45.952   2.905   7.160  0.00  0.00    +0.000 A 
ATOM     25  C   UNL     1      46.546   3.403   5.996  0.00  0.00    +0.000 A 
ATOM     26  C   UNL     1      47.645   2.749   5.446  0.00  0.00    +0.000 A 
ATOM     27  C   UNL     1      48.144   1.639   6.106  0.00  0.00    +0.000 A 
ATOM     28  N   UNL     1      47.641   1.168   7.268  0.00  0.00    +0.000 NA
ATOM     29  C   UNL     1      46.555   1.806   7.763  0.00  0.00    +0.000 A 
ENDBRANCH  23  24
ENDBRANCH  20  23
ENDBRANCH  16  17
ENDBRANCH   3  16
TORSDOF 5
ENDMDL
MODEL 4
REMARK VINA RESULT:    -7.571      2.398      3.863
REMARK INTER + INTRA:         -10.429
REMARK INTER:                  -9.313
REMARK INTRA:                  -1.116
REMARK UNBOUND:                -0.645
REMARK  Name = 
REMARK  5 active torsions:
REMARK  status: ('A' for Active; 'I' for Inactive)
REMARK    1  A    between atoms: C_2  and  C_18
REMARK    2  A    between atoms: N_3  and  C_4
REMARK    3  A    between atoms: C_4  and  C_5
REMARK    4  A    between atoms: C_8  and  C_9
REMARK    5  A    between atoms: C_9  and  C_10
REMARK                            x       y       z     vdW  Elec       q    Type
REMARK                         _______ _______ _______ _____ _____    ______ ____
ROOT
ATOM      1  O   UNL     1      48.566   5.749  15.521  0.00  0.00    +0.000 OA
ATOM      2  C   UNL     1      48.102   6.623  14.778  0.00  0.00    +0.000 C 
ATOM      3  N   UNL     1      46.967   6.445  14.040  0.00  0.00    +0.000 N 
ATOM      4  H   UNL     1      46.774   7.076  13.268  0.00  0.00    +0.000 HD
ENDROOT
BRANCH   2   5
ATOM      5  C   UNL     1      48.725   7.935  14.679  0.00  0.00    +0.000 A 
ATOM      6  C   UNL     1      48.677   8.865  15.707  0.00  0.00    +0.000 A 
ATOM      7  S   UNL     1      49.513  10.313  15.331  0.00  0.00    +0.000 S 
ATOM      8  C   UNL     1      49.970   9.720  13.801  0.00  0.00    +0.000 A 
ATOM      9  N   UNL     1      50.724  10.460  12.944  0.00  0.00    +0.000 NA
ATOM     10  C   UNL     1      51.006   9.865  11.832  0.00  0.00    +0.000 A 
ATOM     11  N   UNL     1      50.611   8.602  11.492  0.00  0.00    +0.000 N 
ATOM     12  C   UNL     1      49.802   7.844  12.295  0.00  0.00    +0.000 A 
ATOM     13  O   UNL     1      49.361   6.777  11.883  0.00  0.00    +0.000 OA
ATOM     14  C   UNL     1      49.480   8.451  13.575  0.00  0.00    +0.000 A 
ATOM     15  H   UNL     1      50.827   8.203  10.594  0.00  0.00    +0.000 HD
ENDBRANCH   2   5
BRANCH   3  16
ATOM     16  C   UNL     1      46.289   5.178  13.991  0.00  0.00    +0.000 C 
BRANCH  16  17
ATOM     17  C   UNL     1      45.844   4.824  12.597  0.00  0.00    +0.000 A 
ATOM     18  C   UNL     1      46.059   5.726  11.547  0.00  0.00    +0.000 A 
ATOM     19  C   UNL     1      45.656   5.418  10.247  0.00  0.00    +0.000 A 
ATOM     20  C   UNL     1      45.036   4.193   9.955  0.00  0.00    +0.000 A 
ATOM     21  C   UNL     1      44.805   3.299  11.011  0.00  0.00    +0.000 A 
ATOM     22  C   UNL     1      45.194   3.615  12.317  0.00  0.00    +0.000 A 
BRANCH  20  23
ATOM     23  C   UNL     1      44.623   3.825   8.544  0.00  0.00    +0.000 C 
BRANCH  23  24
ATOM     24  C   UNL     1      45.642   2.995   7.806  0.00  0.00    +0.000 A 
ATOM     25  C   UNL     1      45.902   1.669   8.165  0.00  0.00    +0.000 A 
ATOM     26  C   UNL     1      46.967   0.990   7.580  0.00  0.00    +0.000 A 
ATOM     27  C   UNL     1      47.713   1.647   6.618  0.00  0.00    +0.000 A 
ATOM     28  N   UNL     1      47.452   2.902   6.194  0.00  0.00    +0.000 NA
ATOM     29  C   UNL     1      46.430   3.548   6.801  0.00  0.00    +0.000 A 
ENDBRANCH  23  24
ENDBRANCH  20  23
ENDBRANCH  16  17
ENDBRANCH   3  16
TORSDOF 5
ENDMDL
MODEL 5
REMARK VINA RESULT:    -7.324      4.159      9.862
REMARK INTER + INTRA:         -10.110
REMARK INTER:                  -9.001
REMARK INTRA:                  -1.109
REMARK UNBOUND:                -0.645
REMARK  Name = 
REMARK  5 active torsions:
REMARK  status: ('A' for Active; 'I' for Inactive)
REMARK    1  A    between atoms: C_2  and  C_18
REMARK    2  A    between atoms: N_3  and  C_4
REMARK    3  A    between atoms: C_4  and  C_5
REMARK    4  A    between atoms: C_8  and  C_9
REMARK    5  A    between atoms: C_9  and  C_10
REMARK                            x       y       z     vdW  Elec       q    Type
REMARK                         _______ _______ _______ _____ _____    ______ ____
ROOT
ATOM      1  O   UNL     1      48.524   5.925  13.942  0.00  0.00    +0.000 OA
ATOM      2  C   UNL     1      47.355   5.568  14.141  0.00  0.00    +0.000 C 
ATOM      3  N   UNL     1      46.960   4.918  15.276  0.00  0.00    +0.000 N 
ATOM      4  H   UNL     1      46.071   4.428  15.281  0.00  0.00    +0.000 HD
ENDROOT
BRANCH   2   5
ATOM      5  C   UNL     1      46.304   5.866  13.180  0.00  0.00    +0.000 A 
ATOM      6  C   UNL     1      45.951   7.163  12.836  0.00  0.00    +0.000 A 
ATOM      7  S   UNL     1      44.701   7.221  11.665  0.00  0.00    +0.000 S 
ATOM      8  C   UNL     1      44.621   5.522  11.582  0.00  0.00    +0.000 A 
ATOM      9  N   UNL     1      43.750   4.888  10.751  0.00  0.00    +0.000 NA
ATOM     10  C   UNL     1      43.823   3.598  10.786  0.00  0.00    +0.000 A 
ATOM     11  N   UNL     1      44.682   2.878  11.567  0.00  0.00    +0.000 N 
ATOM     12  C   UNL     1      45.532   3.470  12.463  0.00  0.00    +0.000 A 
ATOM     13  O   UNL     1      46.179   2.778  13.239  0.00  0.00    +0.000 OA
ATOM     14  C   UNL     1      45.516   4.923  12.442  0.00  0.00    +0.000 A 
ATOM     15  H   UNL     1      44.668   1.873  11.583  0.00  0.00    +0.000 HD
ENDBRANCH   2   5
BRANCH   3  16
ATOM     16  C   UNL     1      47.905   4.502  16.276  0.00  0.00    +0.000 C 
BRANCH  16  17
ATOM     17  C   UNL     1      48.040   5.509  17.387  0.00  0.00    +0.000 A 
ATOM     18  C   UNL     1      47.243   5.392  18.533  0.00  0.00    +0.000 A 
ATOM     19  C   UNL     1      47.353   6.314  19.576  0.00  0.00    +0.000 A 
ATOM     20  C   UNL     1      48.270   7.374  19.507  0.00  0.00    +0.000 A 
ATOM     21  C   UNL     1      49.053   7.500  18.351  0.00  0.00    +0.000 A 
ATOM     22  C   UNL     1      48.931   6.586  17.299  0.00  0.00    +0.000 A 
BRANCH  20  23
ATOM     23  C   UNL     1      48.428   8.365  20.644  0.00  0.00    +0.000 C 
BRANCH  23  24
ATOM     24  C   UNL     1      47.251   9.289  20.819  0.00  0.00    +0.000 A 
ATOM     25  C   UNL     1      46.893  10.210  19.829  0.00  0.00    +0.000 A 
ATOM     26  C   UNL     1      45.913  11.163  20.093  0.00  0.00    +0.000 A 
ATOM     27  C   UNL     1      45.290  11.137  21.328  0.00  0.00    +0.000 A 
ATOM     28  N   UNL     1      45.559  10.222  22.285  0.00  0.00    +0.000 NA
ATOM     29  C   UNL     1      46.536   9.327  22.012  0.00  0.00    +0.000 A 
ENDBRANCH  23  24
ENDBRANCH  20  23
ENDBRANCH  16  17
ENDBRANCH   3  16
TORSDOF 5
ENDMDL
MODEL 6
REMARK VINA RESULT:    -7.313      3.312      8.130
REMARK INTER + INTRA:         -10.095
REMARK INTER:                  -9.006
REMARK INTRA:                  -1.089
REMARK UNBOUND:                -0.645
REMARK  Name = 
REMARK  5 active torsions:
REMARK  status: ('A' for Active; 'I' for Inactive)
REMARK    1  A    between atoms: C_2  and  C_18
REMARK    2  A    between atoms: N_3  and  C_4
REMARK    3  A    between atoms: C_4  and  C_5
REMARK    4  A    between atoms: C_8  and  C_9
REMARK    5  A    between atoms: C_9  and  C_10
REMARK                            x       y       z     vdW  Elec       q    Type
REMARK                         _______ _______ _______ _____ _____    ______ ____
ROOT
ATOM      1  O   UNL     1      45.919   7.888  11.608  0.00  0.00    +0.000 OA
ATOM      2  C   UNL     1      46.311   6.717  11.683  0.00  0.00    +0.000 C 
ATOM      3  N   UNL     1      47.308   6.320  12.529  0.00  0.00    +0.000 N 
ATOM      4  H   UNL     1      47.763   5.425  12.373  0.00  0.00    +0.000 HD
ENDROOT
BRANCH   2   5
ATOM      5  C   UNL     1      45.692   5.664  10.892  0.00  0.00    +0.000 A 
ATOM      6  C   UNL     1      45.868   5.557   9.520  0.00  0.00    +0.000 A 
ATOM      7  S   UNL     1      45.046   4.212   8.848  0.00  0.00    +0.000 S 
ATOM      8  C   UNL     1      44.457   3.737  10.374  0.00  0.00    +0.000 A 
ATOM      9  N   UNL     1      43.676   2.634  10.526  0.00  0.00    +0.000 NA
ATOM     10  C   UNL     1      43.326   2.393  11.746  0.00  0.00    +0.000 A 
ATOM     11  N   UNL     1      43.682   3.142  12.831  0.00  0.00    +0.000 N 
ATOM     12  C   UNL     1      44.415   4.294  12.720  0.00  0.00    +0.000 A 
ATOM     13  O   UNL     1      44.587   5.004  13.703  0.00  0.00    +0.000 OA
ATOM     14  C   UNL     1      44.865   4.596  11.373  0.00  0.00    +0.000 A 
ATOM     15  H   UNL     1      43.347   2.929  13.755  0.00  0.00    +0.000 HD
ENDBRANCH   2   5
BRANCH   3  16
ATOM     16  C   UNL     1      48.052   7.266  13.316  0.00  0.00    +0.000 C 
BRANCH  16  17
ATOM     17  C   UNL     1      48.556   6.665  14.602  0.00  0.00    +0.000 A 
ATOM     18  C   UNL     1      47.820   5.653  15.233  0.00  0.00    +0.000 A 
ATOM     19  C   UNL     1      48.270   5.081  16.424  0.00  0.00    +0.000 A 
ATOM     20  C   UNL     1      49.474   5.496  17.014  0.00  0.00    +0.000 A 
ATOM     21  C   UNL     1      50.199   6.522  16.390  0.00  0.00    +0.000 A 
ATOM     22  C   UNL     1      49.739   7.107  15.206  0.00  0.00    +0.000 A 
BRANCH  20  23
ATOM     23  C   UNL     1      49.996   4.862  18.288  0.00  0.00    +0.000 C 
BRANCH  23  24
ATOM     24  C   UNL     1      50.974   3.738  18.055  0.00  0.00    +0.000 A 
ATOM     25  C   UNL     1      50.588   2.557  17.414  0.00  0.00    +0.000 A 
ATOM     26  C   UNL     1      51.464   1.476  17.372  0.00  0.00    +0.000 A 
ATOM     27  C   UNL     1      52.719   1.627  17.935  0.00  0.00    +0.000 A 
ATOM     28  N   UNL     1      53.153   2.773  18.502  0.00  0.00    +0.000 NA
ATOM     29  C   UNL     1      52.271   3.797  18.556  0.00  0.00    +0.000 A 
ENDBRANCH  23  24
ENDBRANCH  20  23
ENDBRANCH  16  17
ENDBRANCH   3  16
TORSDOF 5
ENDMDL
MODEL 7
REMARK VINA RESULT:    -7.260      4.198      9.506
REMARK INTER + INTRA:         -10.027
REMARK INTER:                  -8.861
REMARK INTRA:                  -1.167
REMARK UNBOUND:                -0.645
REMARK  Name = 
REMARK  5 active torsions:
REMARK  status: ('A' for Active; 'I' for Inactive)
REMARK    1  A    between atoms: C_2  and  C_18
REMARK    2  A    between atoms: N_3  and  C_4
REMARK    3  A    between atoms: C_4  and  C_5
REMARK    4  A    between atoms: C_8  and  C_9
REMARK    5  A    between atoms: C_9  and  C_10
REMARK                            x       y       z     vdW  Elec       q    Type
REMARK                         _______ _______ _______ _____ _____    ______ ____
ROOT
ATOM      1  O   UNL     1      47.356   3.099  14.105  0.00  0.00    +0.000 OA
ATOM      2  C   UNL     1      46.876   4.136  14.580  0.00  0.00    +0.000 C 
ATOM      3  N   UNL     1      46.851   4.397  15.921  0.00  0.00    +0.000 N 
ATOM      4  H   UNL     1      46.231   5.120  16.272  0.00  0.00    +0.000 HD
ENDROOT
BRANCH   2   5
ATOM      5  C   UNL     1      46.340   5.179  13.719  0.00  0.00    +0.000 A 
ATOM      6  C   UNL     1      45.095   5.084  13.114  0.00  0.00    +0.000 A 
ATOM      7  S   UNL     1      44.706   6.463  12.176  0.00  0.00    +0.000 S 
ATOM      8  C   UNL     1      46.178   7.221  12.573  0.00  0.00    +0.000 A 
ATOM      9  N   UNL     1      46.495   8.458  12.104  0.00  0.00    +0.000 NA
ATOM     10  C   UNL     1      47.637   8.906  12.510  0.00  0.00    +0.000 A 
ATOM     11  N   UNL     1      48.494   8.242  13.342  0.00  0.00    +0.000 N 
ATOM     12  C   UNL     1      48.246   6.972  13.789  0.00  0.00    +0.000 A 
ATOM     13  O   UNL     1      49.108   6.367  14.416  0.00  0.00    +0.000 OA
ATOM     14  C   UNL     1      46.959   6.430  13.390  0.00  0.00    +0.000 A 
ATOM     15  H   UNL     1      49.389   8.624  13.595  0.00  0.00    +0.000 HD
ENDBRANCH   2   5
BRANCH   3  16
ATOM     16  C   UNL     1      47.285   3.425  16.888  0.00  0.00    +0.000 C 
BRANCH  16  17
ATOM     17  C   UNL     1      48.758   3.531  17.179  0.00  0.00    +0.000 A 
ATOM     18  C   UNL     1      49.558   2.381  17.148  0.00  0.00    +0.000 A 
ATOM     19  C   UNL     1      50.927   2.457  17.414  0.00  0.00    +0.000 A 
ATOM     20  C   UNL     1      51.537   3.685  17.708  0.00  0.00    +0.000 A 
ATOM     21  C   UNL     1      50.731   4.832  17.756  0.00  0.00    +0.000 A 
ATOM     22  C   UNL     1      49.358   4.754  17.507  0.00  0.00    +0.000 A 
BRANCH  20  23
ATOM     23  C   UNL     1      53.028   3.792  17.963  0.00  0.00    +0.000 C 
BRANCH  23  24
ATOM     24  C   UNL     1      53.441   3.379  19.353  0.00  0.00    +0.000 A 
ATOM     25  C   UNL     1      53.036   4.101  20.480  0.00  0.00    +0.000 A 
ATOM     26  C   UNL     1      53.575   3.796  21.727  0.00  0.00    +0.000 A 
ATOM     27  C   UNL     1      54.473   2.747  21.813  0.00  0.00    +0.000 A 
ATOM     28  N   UNL     1      54.838   1.983  20.761  0.00  0.00    +0.000 NA
ATOM     29  C   UNL     1      54.321   2.320  19.557  0.00  0.00    +0.000 A 
ENDBRANCH  23  24
ENDBRANCH  20  23
ENDBRANCH  16  17
ENDBRANCH   3  16
TORSDOF 5
ENDMDL
MODEL 8
REMARK VINA RESULT:    -7.177      3.964      9.510
REMARK INTER + INTRA:          -9.920
REMARK INTER:                  -8.974
REMARK INTRA:                  -0.947
REMARK UNBOUND:                -0.645
REMARK  Name = 
REMARK  5 active torsions:
REMARK  status: ('A' for Active; 'I' for Inactive)
REMARK    1  A    between atoms: C_2  and  C_18
REMARK    2  A    between atoms: N_3  and  C_4
REMARK    3  A    between atoms: C_4  and  C_5
REMARK    4  A    between atoms: C_8  and  C_9
REMARK    5  A    between atoms: C_9  and  C_10
REMARK                            x       y       z     vdW  Elec       q    Type
REMARK                         _______ _______ _______ _____ _____    ______ ____
ROOT
ATOM      1  O   UNL     1      47.190   3.186  13.865  0.00  0.00    +0.000 OA
ATOM      2  C   UNL     1      46.822   4.252  14.374  0.00  0.00    +0.000 C 
ATOM      3  N   UNL     1      46.889   4.496  15.717  0.00  0.00    +0.000 N 
ATOM      4  H   UNL     1      46.349   5.262  16.107  0.00  0.00    +0.000 HD
ENDROOT
BRANCH   2   5
ATOM      5  C   UNL     1      46.329   5.347  13.553  0.00  0.00    +0.000 A 
ATOM      6  C   UNL     1      47.060   6.506  13.334  0.00  0.00    +0.000 A 
ATOM      7  S   UNL     1      46.251   7.617  12.310  0.00  0.00    +0.000 S 
ATOM      8  C   UNL     1      44.923   6.568  12.125  0.00  0.00    +0.000 A 
ATOM      9  N   UNL     1      43.853   6.899  11.351  0.00  0.00    +0.000 NA
ATOM     10  C   UNL     1      42.936   5.991  11.294  0.00  0.00    +0.000 A 
ATOM     11  N   UNL     1      42.981   4.782  11.930  0.00  0.00    +0.000 N 
ATOM     12  C   UNL     1      44.007   4.431  12.766  0.00  0.00    +0.000 A 
ATOM     13  O   UNL     1      43.932   3.399  13.422  0.00  0.00    +0.000 OA
ATOM     14  C   UNL     1      45.084   5.402  12.843  0.00  0.00    +0.000 A 
ATOM     15  H   UNL     1      42.218   4.129  11.881  0.00  0.00    +0.000 HD
ENDBRANCH   2   5
BRANCH   3  16
ATOM     16  C   UNL     1      47.291   3.480  16.650  0.00  0.00    +0.000 C 
BRANCH  16  17
ATOM     17  C   UNL     1      48.754   3.571  16.995  0.00  0.00    +0.000 A 
ATOM     18  C   UNL     1      49.526   2.404  17.072  0.00  0.00    +0.000 A 
ATOM     19  C   UNL     1      50.884   2.466  17.389  0.00  0.00    +0.000 A 
ATOM     20  C   UNL     1      51.513   3.697  17.628  0.00  0.00    +0.000 A 
ATOM     21  C   UNL     1      50.735   4.862  17.568  0.00  0.00    +0.000 A 
ATOM     22  C   UNL     1      49.370   4.799  17.268  0.00  0.00    +0.000 A 
BRANCH  20  23
ATOM     23  C   UNL     1      52.994   3.788  17.938  0.00  0.00    +0.000 C 
BRANCH  23  24
ATOM     24  C   UNL     1      53.308   4.525  19.215  0.00  0.00    +0.000 A 
ATOM     25  C   UNL     1      52.847   4.068  20.453  0.00  0.00    +0.000 A 
ATOM     26  C   UNL     1      53.005   4.862  21.586  0.00  0.00    +0.000 A 
ATOM     27  C   UNL     1      53.661   6.073  21.450  0.00  0.00    +0.000 A 
ATOM     28  N   UNL     1      54.180   6.518  20.286  0.00  0.00    +0.000 NA
ATOM     29  C   UNL     1      53.986   5.740  19.197  0.00  0.00    +0.000 A 
ENDBRANCH  23  24
ENDBRANCH  20  23
ENDBRANCH  16  17
ENDBRANCH   3  16
TORSDOF 5
ENDMDL
