MODEL 1
REMARK VINA RESULT:    -8.492      0.000      0.000
REMARK INTER + INTRA:         -12.969
REMARK INTER:                 -11.967
REMARK INTRA:                  -1.002
REMARK UNBOUND:                -1.002
REMARK  Name = 
REMARK  7 active torsions:
REMARK  status: ('A' for Active; 'I' for Inactive)
REMARK    1  A    between atoms: C_2  and  C_20
REMARK    2  A    between atoms: N_3  and  C_4
REMARK    3  A    between atoms: C_4  and  C_5
REMARK    4  A    between atoms: C_8  and  C_9
REMARK    5  A    between atoms: C_9  and  N_10
REMARK    6  A    between atoms: N_10  and  C_11
REMARK    7  A    between atoms: C_11  and  C_12
REMARK                            x       y       z     vdW  Elec       q    Type
REMARK                         _______ _______ _______ _____ _____    ______ ____
ROOT
ATOM      1  C   UNL     1      48.105   6.905  13.373  0.00  0.00    +0.000 C 
ENDROOT
BRANCH   1   2
ATOM      2  C   UNL     1      46.952   6.182  12.725  0.00  0.00    +0.000 A 
ATOM      3  C   UNL     1      46.218   5.236  13.451  0.00  0.00    +0.000 A 
ATOM      4  C   UNL     1      45.112   4.603  12.877  0.00  0.00    +0.000 A 
ATOM      5  C   UNL     1      44.715   4.898  11.564  0.00  0.00    +0.000 A 
ATOM      6  C   UNL     1      45.477   5.814  10.825  0.00  0.00    +0.000 A 
ATOM      7  C   UNL     1      46.589   6.444  11.398  0.00  0.00    +0.000 A 
BRANCH   5   8
ATOM      8  C   UNL     1      43.491   4.239  10.966  0.00  0.00    +0.000 C 
BRANCH   8   9
ATOM      9  N   UNL     1      43.783   3.733   9.626  0.00  0.00    +0.000 NA
ATOM     10  H   UNL     1      44.351   4.423   9.133  0.00  0.00    +0.000 HD
BRANCH   9  11
ATOM     11  C   UNL     1      44.530   2.471   9.663  0.00  0.00    +0.000 C 
BRANCH  11  12
ATOM     12  C   UNL     1      45.506   2.365   8.503  0.00  0.00    +0.000 A 
ATOM     13  C   UNL     1      45.720   3.463   7.667  0.00  0.00    +0.000 A 
ATOM     14  C   UNL     1      46.649   3.356   6.635  0.00  0.00    +0.000 A 
ATOM     15  C   UNL     1      47.332   2.161   6.457  0.00  0.00    +0.000 A 
ATOM     16  C   UNL     1      47.057   1.116   7.324  0.00  0.00    +0.000 A 
ATOM     17  N   UNL     1      46.167   1.191   8.339  0.00  0.00    +0.000 NA
ENDBRANCH  11  12
ENDBRANCH   9  11
ENDBRANCH   8   9
ENDBRANCH   5   8
ENDBRANCH   1   2
BRANCH   1  20
ATOM     18  O   UNL     1      50.252   6.823  15.191  0.00  0.00    +0.000 OA
ATOM     19  C   UNL     1      49.107   6.902  15.625  0.00  0.00    +0.000 C 
ATOM     20  N   UNL     1      48.005   6.903  14.810  0.00  0.00    +0.000 N 
ATOM     21  H   UNL     1      47.097   7.131  15.198  0.00  0.00    +0.000 HD
BRANCH  19  22
ATOM     22  C   UNL     1      48.844   6.950  17.068  0.00  0.00    +0.000 A 
ATOM     23  C   UNL     1      48.441   8.140  17.659  0.00  0.00    +0.000 A 
ATOM     24  S   UNL     1      48.144   8.004  19.333  0.00  0.00    +0.000 S 
ATOM     25  C   UNL     1      48.513   6.344  19.319  0.00  0.00    +0.000 A 
ATOM     26  N   UNL     1      48.411   5.593  20.448  0.00  0.00    +0.000 NA
ATOM     27  C   UNL     1      48.681   4.344  20.283  0.00  0.00    +0.000 A 
ATOM     28  N   UNL     1      49.068   3.776  19.096  0.00  0.00    +0.000 N 
ATOM     29  C   UNL     1      49.272   4.511  17.955  0.00  0.00    +0.000 A 
ATOM     30  O   UNL     1      49.776   4.004  16.957  0.00  0.00    +0.000 OA
ATOM     31  C   UNL     1      48.906   5.910  18.067  0.00  0.00    +0.000 A 
ATOM     32  H   UNL     1      49.312   2.798  19.044  0.00  0.00    +0.000 HD
ENDBRANCH  19  22
ENDBRANCH   1  20
TORSDOF 7
ENDMDL
MODEL 2
REMARK VINA RESULT:    -8.144      1.533      2.314
REMARK INTER + INTRA:         -12.479
REMARK INTER:                 -11.391
REMARK INTRA:                  -1.087
REMARK UNBOUND:                -1.002
REMARK  Name = 
REMARK  7 active torsions:
REMARK  status: ('A' for Active; 'I' for Inactive)
REMARK    1  A    between atoms: C_2  and  C_20
REMARK    2  A    between atoms: N_3  and  C_4
REMARK    3  A    between atoms: C_4  and  C_5
REMARK    4  A    between atoms: C_8  and  C_9
REMARK    5  A    between atoms: C_9  and  N_10
REMARK    6  A    between atoms: N_10  and  C_11
REMARK    7  A    between atoms: C_11  and  C_12
REMARK                            x       y       z     vdW  Elec       q    Type
REMARK                         _______ _______ _______ _____ _____    ______ ____
ROOT
ATOM      1  C   UNL     1      48.320   6.508  13.791  0.00  0.00    +0.000 C 
ENDROOT
BRANCH   1   2
ATOM      2  C   UNL     1      47.146   6.026  12.977  0.00  0.00    +0.000 A 
ATOM      3  C   UNL     1      46.314   5.016  13.472  0.00  0.00    +0.000 A 
ATOM      4  C   UNL     1      45.191   4.603  12.751  0.00  0.00    +0.000 A 
ATOM      5  C   UNL     1      44.875   5.187  11.515  0.00  0.00    +0.000 A 
ATOM      6  C   UNL     1      45.734   6.169  11.001  0.00  0.00    +0.000 A 
ATOM      7  C   UNL     1      46.862   6.578  11.721  0.00  0.00    +0.000 A 
BRANCH   5   8
ATOM      8  C   UNL     1      43.634   4.763  10.760  0.00  0.00    +0.000 C 
BRANCH   8   9
ATOM      9  N   UNL     1      43.986   4.249   9.438  0.00  0.00    +0.000 NA
ATOM     10  H   UNL     1      44.771   4.792   9.075  0.00  0.00    +0.000 HD
BRANCH   9  11
ATOM     11  C   UNL     1      44.390   2.839   9.484  0.00  0.00    +0.000 C 
BRANCH  11  12
ATOM     12  C   UNL     1      45.476   2.535   8.464  0.00  0.00    +0.000 A 
ATOM     13  C   UNL     1      45.943   3.544   7.620  0.00  0.00    +0.000 A 
ATOM     14  C   UNL     1      46.967   3.254   6.721  0.00  0.00    +0.000 A 
ATOM     15  C   UNL     1      47.490   1.969   6.680  0.00  0.00    +0.000 A 
ATOM     16  C   UNL     1      46.966   1.022   7.545  0.00  0.00    +0.000 A 
ATOM     17  N   UNL     1      45.978   1.275   8.434  0.00  0.00    +0.000 NA
ENDBRANCH  11  12
ENDBRANCH   9  11
ENDBRANCH   8   9
ENDBRANCH   5   8
ENDBRANCH   1   2
BRANCH   1  20
ATOM     18  O   UNL     1      50.157   6.156  15.893  0.00  0.00    +0.000 OA
ATOM     19  C   UNL     1      48.986   6.404  16.162  0.00  0.00    +0.000 C 
ATOM     20  N   UNL     1      48.020   6.546  15.199  0.00  0.00    +0.000 N 
ATOM     21  H   UNL     1      47.108   6.908  15.456  0.00  0.00    +0.000 HD
BRANCH  19  22
ATOM     22  C   UNL     1      48.533   6.516  17.554  0.00  0.00    +0.000 A 
ATOM     23  C   UNL     1      48.542   5.398  18.376  0.00  0.00    +0.000 A 
ATOM     24  S   UNL     1      48.021   5.718  19.968  0.00  0.00    +0.000 S 
ATOM     25  C   UNL     1      47.797   7.367  19.621  0.00  0.00    +0.000 A 
ATOM     26  N   UNL     1      47.396   8.240  20.585  0.00  0.00    +0.000 NA
ATOM     27  C   UNL     1      47.307   9.463  20.193  0.00  0.00    +0.000 A 
ATOM     28  N   UNL     1      47.559   9.897  18.916  0.00  0.00    +0.000 N 
ATOM     29  C   UNL     1      47.876   9.040  17.891  0.00  0.00    +0.000 A 
ATOM     30  O   UNL     1      47.932   9.435  16.731  0.00  0.00    +0.000 OA
ATOM     31  C   UNL     1      48.067   7.661  18.298  0.00  0.00    +0.000 A 
ATOM     32  H   UNL     1      47.424  10.864  18.661  0.00  0.00    +0.000 HD
ENDBRANCH  19  22
ENDBRANCH   1  20
TORSDOF 7
ENDMDL
MODEL 3
REMARK VINA RESULT:    -7.658      1.721      2.315
REMARK INTER + INTRA:         -11.794
REMARK INTER:                 -10.844
REMARK INTRA:                  -0.950
REMARK UNBOUND:                -1.002
REMARK  Name = 
REMARK  7 active torsions:
REMARK  status: ('A' for Active; 'I' for Inactive)
REMARK    1  A    between atoms: C_2  and  C_20
REMARK    2  A    between atoms: N_3  and  C_4
REMARK    3  A    between atoms: C_4  and  C_5
REMARK    4  A    between atoms: C_8  and  C_9
REMARK    5  A    between atoms: C_9  and  N_10
REMARK    6  A    between atoms: N_10  and  C_11
REMARK    7  A    between atoms: C_11  and  C_12
REMARK                            x       y       z     vdW  Elec       q    Type
REMARK                         _______ _______ _______ _____ _____    ______ ____
ROOT
ATOM      1  C   UNL     1      47.808   6.994  13.442  0.00  0.00    +0.000 C 
ENDROOT
BRANCH   1   2
ATOM      2  C   UNL     1      46.625   6.331  12.784  0.00  0.00    +0.000 A 
ATOM      3  C   UNL     1      46.344   6.576  11.435  0.00  0.00    +0.000 A 
ATOM      4  C   UNL     1      45.284   5.922  10.800  0.00  0.00    +0.000 A 
ATOM      5  C   UNL     1      44.479   5.011  11.500  0.00  0.00    +0.000 A 
ATOM      6  C   UNL     1      44.736   4.800  12.862  0.00  0.00    +0.000 A 
ATOM      7  C   UNL     1      45.794   5.459  13.499  0.00  0.00    +0.000 A 
BRANCH   5   8
ATOM      8  C   UNL     1      43.360   4.276  10.794  0.00  0.00    +0.000 C 
BRANCH   8   9
ATOM      9  N   UNL     1      43.811   3.774   9.498  0.00  0.00    +0.000 NA
ATOM     10  H   UNL     1      44.426   4.469   9.075  0.00  0.00    +0.000 HD
BRANCH   9  11
ATOM     11  C   UNL     1      44.560   2.518   9.623  0.00  0.00    +0.000 C 
BRANCH  11  12
ATOM     12  C   UNL     1      45.604   2.379   8.527  0.00  0.00    +0.000 A 
ATOM     13  C   UNL     1      45.932   3.478   7.731  0.00  0.00    +0.000 A 
ATOM     14  C   UNL     1      46.920   3.338   6.760  0.00  0.00    +0.000 A 
ATOM     15  C   UNL     1      47.548   2.110   6.601  0.00  0.00    +0.000 A 
ATOM     16  C   UNL     1      47.160   1.067   7.427  0.00  0.00    +0.000 A 
ATOM     17  N   UNL     1      46.210   1.173   8.383  0.00  0.00    +0.000 NA
ENDBRANCH  11  12
ENDBRANCH   9  11
ENDBRANCH   8   9
ENDBRANCH   5   8
ENDBRANCH   1   2
BRANCH   1  20
ATOM     18  O   UNL     1      48.881   7.977  15.851  0.00  0.00    +0.000 OA
ATOM     19  C   UNL     1      48.805   6.764  15.685  0.00  0.00    +0.000 C 
ATOM     20  N   UNL     1      48.336   6.204  14.525  0.00  0.00    +0.000 N 
ATOM     21  H   UNL     1      48.141   5.209  14.493  0.00  0.00    +0.000 HD
BRANCH  19  22
ATOM     22  C   UNL     1      49.265   5.826  16.715  0.00  0.00    +0.000 A 
ATOM     23  C   UNL     1      48.342   5.085  17.440  0.00  0.00    +0.000 A 
ATOM     24  S   UNL     1      49.053   4.020  18.566  0.00  0.00    +0.000 S 
ATOM     25  C   UNL     1      50.620   4.489  18.101  0.00  0.00    +0.000 A 
ATOM     26  N   UNL     1      51.720   3.913  18.657  0.00  0.00    +0.000 NA
ATOM     27  C   UNL     1      52.840   4.334  18.182  0.00  0.00    +0.000 A 
ATOM     28  N   UNL     1      52.968   5.299  17.215  0.00  0.00    +0.000 N 
ATOM     29  C   UNL     1      51.892   5.972  16.693  0.00  0.00    +0.000 A 
ATOM     30  O   UNL     1      52.048   6.940  15.955  0.00  0.00    +0.000 OA
ATOM     31  C   UNL     1      50.602   5.479  17.137  0.00  0.00    +0.000 A 
ATOM     32  H   UNL     1      53.878   5.620  16.919  0.00  0.00    +0.000 HD
ENDBRANCH  19  22
ENDBRANCH   1  20
TORSDOF 7
ENDMDL
MODEL 4
REMARK VINA RESULT:    -7.458      3.494      5.428
REMARK INTER + INTRA:         -11.513
REMARK INTER:                 -10.435
REMARK INTRA:                  -1.078
REMARK UNBOUND:                -1.002
REMARK  Name = 
REMARK  7 active torsions:
REMARK  status: ('A' for Active; 'I' for Inactive)
REMARK    1  A    between atoms: C_2  and  C_20
REMARK    2  A    between atoms: N_3  and  C_4
REMARK    3  A    between atoms: C_4  and  C_5
REMARK    4  A    between atoms: C_8  and  C_9
REMARK    5  A    between atoms: C_9  and  N_10
REMARK    6  A    between atoms: N_10  and  C_11
REMARK    7  A    between atoms: C_11  and  C_12
REMARK                            x       y       z     vdW  Elec       q    Type
REMARK                         _______ _______ _______ _____ _____    ______ ____
ROOT
ATOM      1  C   UNL     1      47.938   6.269  13.948  0.00  0.00    +0.000 C 
ENDROOT
BRANCH   1   2
ATOM      2  C   UNL     1      46.798   5.711  13.135  0.00  0.00    +0.000 A 
ATOM      3  C   UNL     1      45.941   4.754  13.691  0.00  0.00    +0.000 A 
ATOM      4  C   UNL     1      44.847   4.274  12.966  0.00  0.00    +0.000 A 
ATOM      5  C   UNL     1      44.585   4.737  11.667  0.00  0.00    +0.000 A 
ATOM      6  C   UNL     1      45.469   5.663  11.097  0.00  0.00    +0.000 A 
ATOM      7  C   UNL     1      46.569   6.140  11.821  0.00  0.00    +0.000 A 
BRANCH   5   8
ATOM      8  C   UNL     1      43.375   4.242  10.905  0.00  0.00    +0.000 C 
BRANCH   8   9
ATOM      9  N   UNL     1      43.760   3.773   9.576  0.00  0.00    +0.000 NA
ATOM     10  H   UNL     1      44.395   4.455   9.160  0.00  0.00    +0.000 HD
BRANCH   9  11
ATOM     11  C   UNL     1      44.450   2.479   9.626  0.00  0.00    +0.000 C 
BRANCH  11  12
ATOM     12  C   UNL     1      45.498   2.362   8.531  0.00  0.00    +0.000 A 
ATOM     13  C   UNL     1      45.840   3.480   7.769  0.00  0.00    +0.000 A 
ATOM     14  C   UNL     1      46.831   3.359   6.798  0.00  0.00    +0.000 A 
ATOM     15  C   UNL     1      47.448   2.131   6.606  0.00  0.00    +0.000 A 
ATOM     16  C   UNL     1      47.046   1.067   7.398  0.00  0.00    +0.000 A 
ATOM     17  N   UNL     1      46.092   1.155   8.354  0.00  0.00    +0.000 NA
ENDBRANCH  11  12
ENDBRANCH   9  11
ENDBRANCH   8   9
ENDBRANCH   5   8
ENDBRANCH   1   2
BRANCH   1  20
ATOM     18  O   UNL     1      50.337   7.482  14.779  0.00  0.00    +0.000 OA
ATOM     19  C   UNL     1      49.882   7.760  13.675  0.00  0.00    +0.000 C 
ATOM     20  N   UNL     1      48.697   7.247  13.212  0.00  0.00    +0.000 N 
ATOM     21  H   UNL     1      48.443   7.376  12.239  0.00  0.00    +0.000 HD
BRANCH  19  22
ATOM     22  C   UNL     1      50.563   8.712  12.790  0.00  0.00    +0.000 A 
ATOM     23  C   UNL     1      51.945   8.671  12.662  0.00  0.00    +0.000 A 
ATOM     24  S   UNL     1      52.564   9.822  11.566  0.00  0.00    +0.000 S 
ATOM     25  C   UNL     1      51.004  10.391  11.200  0.00  0.00    +0.000 A 
ATOM     26  N   UNL     1      50.813  11.369  10.274  0.00  0.00    +0.000 NA
ATOM     27  C   UNL     1      49.579  11.674  10.067  0.00  0.00    +0.000 A 
ATOM     28  N   UNL     1      48.512  11.108  10.718  0.00  0.00    +0.000 N 
ATOM     29  C   UNL     1      48.662  10.184  11.723  0.00  0.00    +0.000 A 
ATOM     30  O   UNL     1      47.704   9.821  12.397  0.00  0.00    +0.000 OA
ATOM     31  C   UNL     1      50.029   9.749  11.940  0.00  0.00    +0.000 A 
ATOM     32  H   UNL     1      47.570  11.425  10.544  0.00  0.00    +0.000 HD
ENDBRANCH  19  22
ENDBRANCH   1  20
TORSDOF 7
ENDMDL
MODEL 5
REMARK VINA RESULT:    -7.369      1.221      1.757
REMARK INTER + INTRA:         -11.386
REMARK INTER:                 -10.713
REMARK INTRA:                  -0.673
REMARK UNBOUND:                -1.002
REMARK  Name = 
REMARK  7 active torsions:
REMARK  status: ('A' for Active; 'I' for Inactive)
REMARK    1  A    between atoms: C_2  and  C_20
REMARK    2  A    between atoms: N_3  and  C_4
REMARK    3  A    between atoms: C_4  and  C_5
REMARK    4  A    between atoms: C_8  and  C_9
REMARK    5  A    between atoms: C_9  and  N_10
REMARK    6  A    between atoms: N_10  and  C_11
REMARK    7  A    between atoms: C_11  and  C_12
REMARK                            x       y       z     vdW  Elec       q    Type
REMARK                         _______ _______ _______ _____ _____    ______ ____
ROOT
ATOM      1  C   UNL     1      48.857   6.897  13.944  0.00  0.00    +0.000 C 
ENDROOT
BRANCH   1   2
ATOM      2  C   UNL     1      47.672   6.374  13.174  0.00  0.00    +0.000 A 
ATOM      3  C   UNL     1      47.332   6.938  11.939  0.00  0.00    +0.000 A 
ATOM      4  C   UNL     1      46.270   6.422  11.191  0.00  0.00    +0.000 A 
ATOM      5  C   UNL     1      45.522   5.332  11.660  0.00  0.00    +0.000 A 
ATOM      6  C   UNL     1      45.838   4.796  12.916  0.00  0.00    +0.000 A 
ATOM      7  C   UNL     1      46.898   5.317  13.669  0.00  0.00    +0.000 A 
BRANCH   5   8
ATOM      8  C   UNL     1      44.401   4.754  10.824  0.00  0.00    +0.000 C 
BRANCH   8   9
ATOM      9  N   UNL     1      44.716   4.856   9.400  0.00  0.00    +0.000 NA
ATOM     10  H   UNL     1      45.721   4.995   9.297  0.00  0.00    +0.000 HD
BRANCH   9  11
ATOM     11  C   UNL     1      44.346   3.641   8.665  0.00  0.00    +0.000 C 
BRANCH  11  12
ATOM     12  C   UNL     1      45.557   2.994   8.011  0.00  0.00    +0.000 A 
ATOM     13  C   UNL     1      45.878   1.666   8.298  0.00  0.00    +0.000 A 
ATOM     14  C   UNL     1      46.967   1.081   7.657  0.00  0.00    +0.000 A 
ATOM     15  C   UNL     1      47.710   1.832   6.757  0.00  0.00    +0.000 A 
ATOM     16  C   UNL     1      47.331   3.146   6.534  0.00  0.00    +0.000 A 
ATOM     17  N   UNL     1      46.275   3.740   7.135  0.00  0.00    +0.000 NA
ENDBRANCH  11  12
ENDBRANCH   9  11
ENDBRANCH   8   9
ENDBRANCH   5   8
ENDBRANCH   1   2
BRANCH   1  20
ATOM     18  O   UNL     1      50.147   6.123  16.322  0.00  0.00    +0.000 OA
ATOM     19  C   UNL     1      49.207   6.908  16.384  0.00  0.00    +0.000 C 
ATOM     20  N   UNL     1      48.498   7.302  15.279  0.00  0.00    +0.000 N 
ATOM     21  H   UNL     1      47.840   8.069  15.355  0.00  0.00    +0.000 HD
BRANCH  19  22
ATOM     22  C   UNL     1      48.747   7.442  17.671  0.00  0.00    +0.000 A 
ATOM     23  C   UNL     1      48.621   8.813  17.847  0.00  0.00    +0.000 A 
ATOM     24  S   UNL     1      48.039   9.254  19.388  0.00  0.00    +0.000 S 
ATOM     25  C   UNL     1      47.904   7.626  19.862  0.00  0.00    +0.000 A 
ATOM     26  N   UNL     1      47.412   7.289  21.084  0.00  0.00    +0.000 NA
ATOM     27  C   UNL     1      47.328   6.021  21.294  0.00  0.00    +0.000 A 
ATOM     28  N   UNL     1      47.713   5.052  20.402  0.00  0.00    +0.000 N 
ATOM     29  C   UNL     1      48.299   5.346  19.196  0.00  0.00    +0.000 A 
ATOM     30  O   UNL     1      48.783   4.462  18.495  0.00  0.00    +0.000 OA
ATOM     31  C   UNL     1      48.344   6.760  18.879  0.00  0.00    +0.000 A 
ATOM     32  H   UNL     1      47.666   4.074  20.646  0.00  0.00    +0.000 HD
ENDBRANCH  19  22
ENDBRANCH   1  20
TORSDOF 7
ENDMDL
MODEL 6
REMARK VINA RESULT:    -7.161      3.467      8.333
REMARK INTER + INTRA:         -11.094
REMARK INTER:                  -9.639
REMARK INTRA:                  -1.455
REMARK UNBOUND:                -1.002
REMARK  Name = 
REMARK  7 active torsions:
REMARK  status: ('A' for Active; 'I' for Inactive)
REMARK    1  A    between atoms: C_2  and  C_20
REMARK    2  A    between atoms: N_3  and  C_4
REMARK    3  A    between atoms: C_4  and  C_5
REMARK    4  A    between atoms: C_8  and  C_9
REMARK    5  A    between atoms: C_9  and  N_10
REMARK    6  A    between atoms: N_10  and  C_11
REMARK    7  A    between atoms: C_11  and  C_12
REMARK                            x       y       z     vdW  Elec       q    Type
REMARK                         _______ _______ _______ _____ _____    ______ ____
ROOT
ATOM      1  C   UNL     1      48.451   8.013  12.057  0.00  0.00    +0.000 C 
ENDROOT
BRANCH   1   2
ATOM      2  C   UNL     1      48.560   7.974  13.560  0.00  0.00    +0.000 A 
ATOM      3  C   UNL     1      48.261   9.112  14.317  0.00  0.00    +0.000 A 
ATOM      4  C   UNL     1      48.304   9.069  15.713  0.00  0.00    +0.000 A 
ATOM      5  C   UNL     1      48.650   7.887  16.385  0.00  0.00    +0.000 A 
ATOM      6  C   UNL     1      48.991   6.760  15.624  0.00  0.00    +0.000 A 
ATOM      7  C   UNL     1      48.954   6.805  14.225  0.00  0.00    +0.000 A 
BRANCH   5   8
ATOM      8  C   UNL     1      48.653   7.838  17.898  0.00  0.00    +0.000 C 
BRANCH   8   9
ATOM      9  N   UNL     1      47.427   7.217  18.395  0.00  0.00    +0.000 NA
ATOM     10  H   UNL     1      46.857   6.935  17.597  0.00  0.00    +0.000 HD
BRANCH   9  11
ATOM     11  C   UNL     1      47.701   6.024  19.203  0.00  0.00    +0.000 C 
BRANCH  11  12
ATOM     12  C   UNL     1      47.981   4.810  18.331  0.00  0.00    +0.000 A 
ATOM     13  C   UNL     1      49.234   4.196  18.369  0.00  0.00    +0.000 A 
ATOM     14  C   UNL     1      49.455   3.062  17.592  0.00  0.00    +0.000 A 
ATOM     15  C   UNL     1      48.429   2.575  16.794  0.00  0.00    +0.000 A 
ATOM     16  C   UNL     1      47.217   3.246  16.806  0.00  0.00    +0.000 A 
ATOM     17  N   UNL     1      46.969   4.345  17.555  0.00  0.00    +0.000 NA
ENDBRANCH  11  12
ENDBRANCH   9  11
ENDBRANCH   8   9
ENDBRANCH   5   8
ENDBRANCH   1   2
BRANCH   1  20
ATOM     18  O   UNL     1      45.661   7.973  11.694  0.00  0.00    +0.000 OA
ATOM     19  C   UNL     1      46.319   6.993  11.360  0.00  0.00    +0.000 C 
ATOM     20  N   UNL     1      47.675   6.915  11.543  0.00  0.00    +0.000 N 
ATOM     21  H   UNL     1      48.195   6.161  11.108  0.00  0.00    +0.000 HD
BRANCH  19  22
ATOM     22  C   UNL     1      45.675   5.807  10.781  0.00  0.00    +0.000 A 
ATOM     23  C   UNL     1      45.883   5.489   9.446  0.00  0.00    +0.000 A 
ATOM     24  S   UNL     1      45.090   4.062   8.954  0.00  0.00    +0.000 S 
ATOM     25  C   UNL     1      44.470   3.803  10.516  0.00  0.00    +0.000 A 
ATOM     26  N   UNL     1      43.723   2.702  10.801  0.00  0.00    +0.000 NA
ATOM     27  C   UNL     1      43.354   2.613  12.031  0.00  0.00    +0.000 A 
ATOM     28  N   UNL     1      43.641   3.537  13.005  0.00  0.00    +0.000 N 
ATOM     29  C   UNL     1      44.313   4.705  12.743  0.00  0.00    +0.000 A 
ATOM     30  O   UNL     1      44.410   5.584  13.594  0.00  0.00    +0.000 OA
ATOM     31  C   UNL     1      44.819   4.816  11.388  0.00  0.00    +0.000 A 
ATOM     32  H   UNL     1      43.282   3.432  13.942  0.00  0.00    +0.000 HD
ENDBRANCH  19  22
ENDBRANCH   1  20
TORSDOF 7
ENDMDL
MODEL 7
REMARK VINA RESULT:    -7.146      3.654      4.958
REMARK INTER + INTRA:         -11.072
REMARK INTER:                 -10.172
REMARK INTRA:                  -0.900
REMARK UNBOUND:                -1.002
REMARK  Name = 
REMARK  7 active torsions:
REMARK  status: ('A' for Active; 'I' for Inactive)
REMARK    1  A    between atoms: C_2  and  C_20
REMARK    2  A    between atoms: N_3  and  C_4
REMARK    3  A    between atoms: C_4  and  C_5
REMARK    4  A    between atoms: C_8  and  C_9
REMARK    5  A    between atoms: C_9  and  N_10
REMARK    6  A    between atoms: N_10  and  C_11
REMARK    7  A    between atoms: C_11  and  C_12
REMARK                            x       y       z     vdW  Elec       q    Type
REMARK                         _______ _______ _______ _____ _____    ______ ____
ROOT
ATOM      1  C   UNL     1      48.107   6.431  13.891  0.00  0.00    +0.000 C 
ENDROOT
BRANCH   1   2
ATOM      2  C   UNL     1      46.983   5.964  13.002  0.00  0.00    +0.000 A 
ATOM      3  C   UNL     1      46.153   4.914  13.412  0.00  0.00    +0.000 A 
ATOM      4  C   UNL     1      45.073   4.511  12.622  0.00  0.00    +0.000 A 
ATOM      5  C   UNL     1      44.800   5.146  11.401  0.00  0.00    +0.000 A 
ATOM      6  C   UNL     1      45.658   6.169  10.972  0.00  0.00    +0.000 A 
ATOM      7  C   UNL     1      46.743   6.568  11.761  0.00  0.00    +0.000 A 
BRANCH   5   8
ATOM      8  C   UNL     1      43.604   4.732  10.571  0.00  0.00    +0.000 C 
BRANCH   8   9
ATOM      9  N   UNL     1      44.032   4.236   9.264  0.00  0.00    +0.000 NA
ATOM     10  H   UNL     1      44.842   4.776   8.959  0.00  0.00    +0.000 HD
BRANCH   9  11
ATOM     11  C   UNL     1      44.418   2.822   9.310  0.00  0.00    +0.000 C 
BRANCH  11  12
ATOM     12  C   UNL     1      45.501   2.505   8.291  0.00  0.00    +0.000 A 
ATOM     13  C   UNL     1      45.866   3.459   7.340  0.00  0.00    +0.000 A 
ATOM     14  C   UNL     1      46.888   3.163   6.442  0.00  0.00    +0.000 A 
ATOM     15  C   UNL     1      47.513   1.925   6.509  0.00  0.00    +0.000 A 
ATOM     16  C   UNL     1      47.087   1.030   7.477  0.00  0.00    +0.000 A 
ATOM     17  N   UNL     1      46.103   1.291   8.367  0.00  0.00    +0.000 NA
ENDBRANCH  11  12
ENDBRANCH   9  11
ENDBRANCH   8   9
ENDBRANCH   5   8
ENDBRANCH   1   2
BRANCH   1  20
ATOM     18  O   UNL     1      49.325   8.965  14.022  0.00  0.00    +0.000 OA
ATOM     19  C   UNL     1      49.807   8.110  13.286  0.00  0.00    +0.000 C 
ATOM     20  N   UNL     1      49.250   6.867  13.131  0.00  0.00    +0.000 N 
ATOM     21  H   UNL     1      49.768   6.145  12.643  0.00  0.00    +0.000 HD
BRANCH  19  22
ATOM     22  C   UNL     1      50.999   8.390  12.476  0.00  0.00    +0.000 A 
ATOM     23  C   UNL     1      50.872   8.617  11.113  0.00  0.00    +0.000 A 
ATOM     24  S   UNL     1      52.351   8.964  10.338  0.00  0.00    +0.000 S 
ATOM     25  C   UNL     1      53.206   8.854  11.804  0.00  0.00    +0.000 A 
ATOM     26  N   UNL     1      54.545   9.092  11.855  0.00  0.00    +0.000 NA
ATOM     27  C   UNL     1      55.055   9.014  13.035  0.00  0.00    +0.000 A 
ATOM     28  N   UNL     1      54.356   8.696  14.172  0.00  0.00    +0.000 N 
ATOM     29  C   UNL     1      53.025   8.359  14.153  0.00  0.00    +0.000 A 
ATOM     30  O   UNL     1      52.469   7.920  15.155  0.00  0.00    +0.000 OA
ATOM     31  C   UNL     1      52.385   8.509  12.860  0.00  0.00    +0.000 A 
ATOM     32  H   UNL     1      54.825   8.605  15.061  0.00  0.00    +0.000 HD
ENDBRANCH  19  22
ENDBRANCH   1  20
TORSDOF 7
ENDMDL
MODEL 8
REMARK VINA RESULT:    -7.026      2.132      3.608
REMARK INTER + INTRA:         -10.903
REMARK INTER:                  -9.973
REMARK INTRA:                  -0.930
REMARK UNBOUND:                -1.002
REMARK  Name = 
REMARK  7 active torsions:
REMARK  status: ('A' for Active; 'I' for Inactive)
REMARK    1  A    between atoms: C_2  and  C_20
REMARK    2  A    between atoms: N_3  and  C_4
REMARK    3  A    between atoms: C_4  and  C_5
REMARK    4  A    between atoms: C_8  and  C_9
REMARK    5  A    between atoms: C_9  and  N_10
REMARK    6  A    between atoms: N_10  and  C_11
REMARK    7  A    between atoms: C_11  and  C_12
REMARK                            x       y       z     vdW  Elec       q    Type
REMARK                         _______ _______ _______ _____ _____    ______ ____
ROOT
ATOM      1  C   UNL     1      48.228   5.962  14.052  0.00  0.00    +0.000 C 
ENDROOT
BRANCH   1   2
ATOM      2  C   UNL     1      46.924   5.847  13.304  0.00  0.00    +0.000 A 
ATOM      3  C   UNL     1      46.637   6.725  12.252  0.00  0.00    +0.000 A 
ATOM      4  C   UNL     1      45.457   6.590  11.517  0.00  0.00    +0.000 A 
ATOM      5  C   UNL     1      44.534   5.576  11.816  0.00  0.00    +0.000 A 
ATOM      6  C   UNL     1      44.804   4.725  12.897  0.00  0.00    +0.000 A 
ATOM      7  C   UNL     1      45.984   4.864  13.638  0.00  0.00    +0.000 A 
BRANCH   5   8
ATOM      8  C   UNL     1      43.279   5.411  10.987  0.00  0.00    +0.000 C 
BRANCH   8   9
ATOM      9  N   UNL     1      43.595   4.831   9.683  0.00  0.00    +0.000 NA
ATOM     10  H   UNL     1      44.370   5.354   9.273  0.00  0.00    +0.000 HD
BRANCH   9  11
ATOM     11  C   UNL     1      44.000   3.425   9.789  0.00  0.00    +0.000 C 
BRANCH  11  12
ATOM     12  C   UNL     1      45.105   3.086   8.802  0.00  0.00    +0.000 A 
ATOM     13  C   UNL     1      45.565   1.772   8.692  0.00  0.00    +0.000 A 
ATOM     14  C   UNL     1      46.550   1.476   7.753  0.00  0.00    +0.000 A 
ATOM     15  C   UNL     1      47.055   2.494   6.956  0.00  0.00    +0.000 A 
ATOM     16  C   UNL     1      46.552   3.773   7.132  0.00  0.00    +0.000 A 
ATOM     17  N   UNL     1      45.591   4.090   8.029  0.00  0.00    +0.000 NA
ENDBRANCH  11  12
ENDBRANCH   9  11
ENDBRANCH   8   9
ENDBRANCH   5   8
ENDBRANCH   1   2
BRANCH   1  20
ATOM     18  O   UNL     1      50.149   6.397  16.061  0.00  0.00    +0.000 OA
ATOM     19  C   UNL     1      49.179   7.145  15.993  0.00  0.00    +0.000 C 
ATOM     20  N   UNL     1      48.177   6.975  15.074  0.00  0.00    +0.000 N 
ATOM     21  H   UNL     1      47.484   7.705  14.950  0.00  0.00    +0.000 HD
BRANCH  19  22
ATOM     22  C   UNL     1      49.006   8.252  16.941  0.00  0.00    +0.000 A 
ATOM     23  C   UNL     1      48.981   7.998  18.306  0.00  0.00    +0.000 A 
ATOM     24  S   UNL     1      48.811   9.402  19.259  0.00  0.00    +0.000 S 
ATOM     25  C   UNL     1      48.798  10.400  17.882  0.00  0.00    +0.000 A 
ATOM     26  N   UNL     1      48.722  11.753  17.997  0.00  0.00    +0.000 NA
ATOM     27  C   UNL     1      48.763  12.386  16.876  0.00  0.00    +0.000 A 
ATOM     28  N   UNL     1      48.849  11.791  15.642  0.00  0.00    +0.000 N 
ATOM     29  C   UNL     1      48.836  10.429  15.475  0.00  0.00    +0.000 A 
ATOM     30  O   UNL     1      48.747   9.930  14.357  0.00  0.00    +0.000 OA
ATOM     31  C   UNL     1      48.871   9.671  16.711  0.00  0.00    +0.000 A 
ATOM     32  H   UNL     1      48.829  12.343  14.798  0.00  0.00    +0.000 HD
ENDBRANCH  19  22
ENDBRANCH   1  20
TORSDOF 7
ENDMDL
MODEL 9
REMARK VINA RESULT:    -7.019      4.081      4.846
REMARK INTER + INTRA:         -10.894
REMARK INTER:                  -9.555
REMARK INTRA:                  -1.339
REMARK UNBOUND:                -1.002
REMARK  Name = 
REMARK  7 active torsions:
REMARK  status: ('A' for Active; 'I' for Inactive)
REMARK    1  A    between atoms: C_2  and  C_20
REMARK    2  A    between atoms: N_3  and  C_4
REMARK    3  A    between atoms: C_4  and  C_5
REMARK    4  A    between atoms: C_8  and  C_9
REMARK    5  A    between atoms: C_9  and  N_10
REMARK    6  A    between atoms: N_10  and  C_11
REMARK    7  A    between atoms: C_11  and  C_12
REMARK                            x       y       z     vdW  Elec       q    Type
REMARK                         _______ _______ _______ _____ _____    ______ ____
ROOT
ATOM      1  C   UNL     1      45.783   8.695  12.851  0.00  0.00    +0.000 C 
ENDROOT
BRANCH   1   2
ATOM      2  C   UNL     1      45.532   7.262  12.459  0.00  0.00    +0.000 A 
ATOM      3  C   UNL     1      45.218   6.939  11.134  0.00  0.00    +0.000 A 
ATOM      4  C   UNL     1      45.041   5.608  10.750  0.00  0.00    +0.000 A 
ATOM      5  C   UNL     1      45.170   4.567  11.681  0.00  0.00    +0.000 A 
ATOM      6  C   UNL     1      45.442   4.895  13.016  0.00  0.00    +0.000 A 
ATOM      7  C   UNL     1      45.614   6.229  13.403  0.00  0.00    +0.000 A 
BRANCH   5   8
ATOM      8  C   UNL     1      45.017   3.125  11.247  0.00  0.00    +0.000 C 
BRANCH   8   9
ATOM      9  N   UNL     1      44.072   3.019  10.136  0.00  0.00    +0.000 NA
ATOM     10  H   UNL     1      44.168   3.847   9.547  0.00  0.00    +0.000 HD
BRANCH   9  11
ATOM     11  C   UNL     1      44.327   1.837   9.306  0.00  0.00    +0.000 C 
BRANCH  11  12
ATOM     12  C   UNL     1      45.480   2.069   8.342  0.00  0.00    +0.000 A 
ATOM     13  C   UNL     1      45.638   3.313   7.730  0.00  0.00    +0.000 A 
ATOM     14  C   UNL     1      46.724   3.516   6.882  0.00  0.00    +0.000 A 
ATOM     15  C   UNL     1      47.616   2.476   6.660  0.00  0.00    +0.000 A 
ATOM     16  C   UNL     1      47.384   1.269   7.299  0.00  0.00    +0.000 A 
ATOM     17  N   UNL     1      46.344   1.044   8.134  0.00  0.00    +0.000 NA
ENDBRANCH  11  12
ENDBRANCH   9  11
ENDBRANCH   8   9
ENDBRANCH   5   8
ENDBRANCH   1   2
BRANCH   1  20
ATOM     18  O   UNL     1      47.720   8.957  14.875  0.00  0.00    +0.000 OA
ATOM     19  C   UNL     1      48.052   9.138  13.708  0.00  0.00    +0.000 C 
ATOM     20  N   UNL     1      47.161   9.072  12.668  0.00  0.00    +0.000 N 
ATOM     21  H   UNL     1      47.506   9.068  11.714  0.00  0.00    +0.000 HD
BRANCH  19  22
ATOM     22  C   UNL     1      49.432   9.489  13.356  0.00  0.00    +0.000 A 
ATOM     23  C   UNL     1      50.054  10.562  13.979  0.00  0.00    +0.000 A 
ATOM     24  S   UNL     1      51.666  10.802  13.477  0.00  0.00    +0.000 S 
ATOM     25  C   UNL     1      51.599   9.460  12.435  0.00  0.00    +0.000 A 
ATOM     26  N   UNL     1      52.688   9.073  11.717  0.00  0.00    +0.000 NA
ATOM     27  C   UNL     1      52.506   8.018  11.002  0.00  0.00    +0.000 A 
ATOM     28  N   UNL     1      51.327   7.323  10.915  0.00  0.00    +0.000 N 
ATOM     29  C   UNL     1      50.179   7.730  11.548  0.00  0.00    +0.000 A 
ATOM     30  O   UNL     1      49.103   7.185  11.320  0.00  0.00    +0.000 OA
ATOM     31  C   UNL     1      50.350   8.868  12.430  0.00  0.00    +0.000 A 
ATOM     32  H   UNL     1      51.236   6.530  10.297  0.00  0.00    +0.000 HD
ENDBRANCH  19  22
ENDBRANCH   1  20
TORSDOF 7
ENDMDL
