MODEL 1
REMARK VINA RESULT:    -8.746      0.000      0.000
REMARK INTER + INTRA:         -13.234
REMARK INTER:                 -12.326
REMARK INTRA:                  -0.909
REMARK UNBOUND:                -0.909
REMARK  Name = 
REMARK  7 active torsions:
REMARK  status: ('A' for Active; 'I' for Inactive)
REMARK    1  A    between atoms: C_2  and  S_3
REMARK    2  A    between atoms: C_2  and  C_11
REMARK    3  A    between atoms: S_3  and  C_4
REMARK    4  A    between atoms: C_4  and  C_5
REMARK    5  A    between atoms: C_14  and  C_15
REMARK    6  A    between atoms: C_15  and  N_16
REMARK    7  A    between atoms: C_17  and  C_19
REMARK                            x       y       z     vdW  Elec       q    Type
REMARK                         _______ _______ _______ _____ _____    ______ ____
ROOT
ATOM      1  C   UNL     1      45.467   4.467  12.441  0.00  0.00    +0.000 A 
ATOM      2  C   UNL     1      45.686   5.718  11.862  0.00  0.00    +0.000 A 
ATOM      3  C   UNL     1      46.626   6.601  12.416  0.00  0.00    +0.000 A 
ATOM      4  C   UNL     1      47.377   6.239  13.547  0.00  0.00    +0.000 A 
ATOM      5  C   UNL     1      47.156   4.972  14.107  0.00  0.00    +0.000 A 
ATOM      6  C   UNL     1      46.215   4.091  13.561  0.00  0.00    +0.000 A 
ENDROOT
BRANCH   1   8
ATOM      7  N   UNL     1      43.897   2.640  12.519  0.00  0.00    +0.000 NA
ATOM      8  C   UNL     1      44.445   3.572  11.824  0.00  0.00    +0.000 C 
ATOM      9  H   UNL     1      43.245   2.081  11.974  0.00  0.00    +0.000 HD
BRANCH   8  10
ATOM     10  S   UNL     1      44.135   3.807  10.116  0.00  0.00    +0.000 S 
BRANCH  10  11
ATOM     11  C   UNL     1      44.497   2.208   9.373  0.00  0.00    +0.000 C 
BRANCH  11  12
ATOM     12  C   UNL     1      45.584   2.315   8.329  0.00  0.00    +0.000 A 
ATOM     13  C   UNL     1      46.420   1.224   8.050  0.00  0.00    +0.000 A 
ATOM     14  C   UNL     1      47.407   1.320   7.066  0.00  0.00    +0.000 A 
ATOM     15  C   UNL     1      47.571   2.507   6.356  0.00  0.00    +0.000 A 
ATOM     16  C   UNL     1      46.762   3.606   6.639  0.00  0.00    +0.000 A 
ATOM     17  C   UNL     1      45.778   3.513   7.625  0.00  0.00    +0.000 A 
ENDBRANCH  11  12
ENDBRANCH  10  11
ENDBRANCH   8  10
ENDBRANCH   1   8
BRANCH   4  18
ATOM     18  C   UNL     1      48.428   7.141  14.160  0.00  0.00    +0.000 C 
BRANCH  18  19
ATOM     19  N   UNL     1      48.372   7.205  15.598  0.00  0.00    +0.000 N 
ATOM     20  C   UNL     1      49.378   6.718  16.391  0.00  0.00    +0.000 C 
ATOM     21  O   UNL     1      50.393   6.187  15.945  0.00  0.00    +0.000 OA
ATOM     22  H   UNL     1      47.462   7.333  16.025  0.00  0.00    +0.000 HD
BRANCH  20  23
ATOM     23  C   UNL     1      49.193   6.941  17.830  0.00  0.00    +0.000 A 
ATOM     24  C   UNL     1      49.226   8.226  18.354  0.00  0.00    +0.000 A 
ATOM     25  S   UNL     1      48.914   8.279  20.032  0.00  0.00    +0.000 S 
ATOM     26  C   UNL     1      48.780   6.586  20.117  0.00  0.00    +0.000 A 
ATOM     27  N   UNL     1      48.538   5.953  21.304  0.00  0.00    +0.000 NA
ATOM     28  C   UNL     1      48.494   4.673  21.225  0.00  0.00    +0.000 A 
ATOM     29  N   UNL     1      48.660   3.948  20.069  0.00  0.00    +0.000 N 
ATOM     30  C   UNL     1      48.847   4.545  18.849  0.00  0.00    +0.000 A 
ATOM     31  O   UNL     1      48.898   3.877  17.815  0.00  0.00    +0.000 OA
ATOM     32  C   UNL     1      48.942   5.989  18.887  0.00  0.00    +0.000 A 
ATOM     33  H   UNL     1      48.592   2.942  20.070  0.00  0.00    +0.000 HD
ENDBRANCH  20  23
ENDBRANCH  18  19
ENDBRANCH   4  18
TORSDOF 7
ENDMDL
MODEL 2
REMARK VINA RESULT:    -8.406      1.539      2.276
REMARK INTER + INTRA:         -12.755
REMARK INTER:                 -11.768
REMARK INTRA:                  -0.987
REMARK UNBOUND:                -0.909
REMARK  Name = 
REMARK  7 active torsions:
REMARK  status: ('A' for Active; 'I' for Inactive)
REMARK    1  A    between atoms: C_2  and  S_3
REMARK    2  A    between atoms: C_2  and  C_11
REMARK    3  A    between atoms: S_3  and  C_4
REMARK    4  A    between atoms: C_4  and  C_5
REMARK    5  A    between atoms: C_14  and  C_15
REMARK    6  A    between atoms: C_15  and  N_16
REMARK    7  A    between atoms: C_17  and  C_19
REMARK                            x       y       z     vdW  Elec       q    Type
REMARK                         _______ _______ _______ _____ _____    ______ ____
ROOT
ATOM      1  C   UNL     1      44.869   4.998  12.094  0.00  0.00    +0.000 A 
ATOM      2  C   UNL     1      45.558   4.145  12.956  0.00  0.00    +0.000 A 
ATOM      3  C   UNL     1      46.648   4.620  13.703  0.00  0.00    +0.000 A 
ATOM      4  C   UNL     1      47.053   5.962  13.613  0.00  0.00    +0.000 A 
ATOM      5  C   UNL     1      46.339   6.810  12.754  0.00  0.00    +0.000 A 
ATOM      6  C   UNL     1      45.256   6.338  12.003  0.00  0.00    +0.000 A 
ENDROOT
BRANCH   1   8
ATOM      7  N   UNL     1      42.535   4.877  11.503  0.00  0.00    +0.000 NA
ATOM      8  C   UNL     1      43.728   4.439  11.311  0.00  0.00    +0.000 C 
ATOM      9  H   UNL     1      41.846   4.392  10.933  0.00  0.00    +0.000 HD
BRANCH   8  10
ATOM     10  S   UNL     1      44.104   3.116  10.226  0.00  0.00    +0.000 S 
BRANCH  10  11
ATOM     11  C   UNL     1      44.740   3.920   8.746  0.00  0.00    +0.000 C 
BRANCH  11  12
ATOM     12  C   UNL     1      45.723   3.036   8.015  0.00  0.00    +0.000 A 
ATOM     13  C   UNL     1      45.911   1.700   8.399  0.00  0.00    +0.000 A 
ATOM     14  C   UNL     1      46.803   0.880   7.703  0.00  0.00    +0.000 A 
ATOM     15  C   UNL     1      47.519   1.389   6.622  0.00  0.00    +0.000 A 
ATOM     16  C   UNL     1      47.359   2.721   6.244  0.00  0.00    +0.000 A 
ATOM     17  C   UNL     1      46.471   3.543   6.941  0.00  0.00    +0.000 A 
ENDBRANCH  11  12
ENDBRANCH  10  11
ENDBRANCH   8  10
ENDBRANCH   1   8
BRANCH   4  18
ATOM     18  C   UNL     1      48.198   6.532  14.423  0.00  0.00    +0.000 C 
BRANCH  18  19
ATOM     19  N   UNL     1      48.077   6.306  15.841  0.00  0.00    +0.000 N 
ATOM     20  C   UNL     1      49.159   6.020  16.631  0.00  0.00    +0.000 C 
ATOM     21  O   UNL     1      50.306   5.928  16.198  0.00  0.00    +0.000 OA
ATOM     22  H   UNL     1      47.161   6.059  16.198  0.00  0.00    +0.000 HD
BRANCH  20  23
ATOM     23  C   UNL     1      48.864   5.901  18.064  0.00  0.00    +0.000 A 
ATOM     24  C   UNL     1      49.122   4.717  18.740  0.00  0.00    +0.000 A 
ATOM     25  S   UNL     1      48.783   4.807  20.412  0.00  0.00    +0.000 S 
ATOM     26  C   UNL     1      48.232   6.410  20.271  0.00  0.00    +0.000 A 
ATOM     27  N   UNL     1      47.760   7.095  21.355  0.00  0.00    +0.000 NA
ATOM     28  C   UNL     1      47.346   8.282  21.096  0.00  0.00    +0.000 A 
ATOM     29  N   UNL     1      47.365   8.870  19.853  0.00  0.00    +0.000 N 
ATOM     30  C   UNL     1      47.883   8.240  18.751  0.00  0.00    +0.000 A 
ATOM     31  O   UNL     1      47.975   8.822  17.670  0.00  0.00    +0.000 OA
ATOM     32  C   UNL     1      48.328   6.881  18.981  0.00  0.00    +0.000 A 
ATOM     33  H   UNL     1      47.046   9.817  19.719  0.00  0.00    +0.000 HD
ENDBRANCH  20  23
ENDBRANCH  18  19
ENDBRANCH   4  18
TORSDOF 7
ENDMDL
MODEL 3
REMARK VINA RESULT:    -7.903      1.920      2.493
REMARK INTER + INTRA:         -12.046
REMARK INTER:                 -11.069
REMARK INTRA:                  -0.977
REMARK UNBOUND:                -0.909
REMARK  Name = 
REMARK  7 active torsions:
REMARK  status: ('A' for Active; 'I' for Inactive)
REMARK    1  A    between atoms: C_2  and  S_3
REMARK    2  A    between atoms: C_2  and  C_11
REMARK    3  A    between atoms: S_3  and  C_4
REMARK    4  A    between atoms: C_4  and  C_5
REMARK    5  A    between atoms: C_14  and  C_15
REMARK    6  A    between atoms: C_15  and  N_16
REMARK    7  A    between atoms: C_17  and  C_19
REMARK                            x       y       z     vdW  Elec       q    Type
REMARK                         _______ _______ _______ _____ _____    ______ ____
ROOT
ATOM      1  C   UNL     1      44.994   5.065  11.997  0.00  0.00    +0.000 A 
ATOM      2  C   UNL     1      45.548   6.173  11.355  0.00  0.00    +0.000 A 
ATOM      3  C   UNL     1      46.635   6.853  11.926  0.00  0.00    +0.000 A 
ATOM      4  C   UNL     1      47.198   6.423  13.140  0.00  0.00    +0.000 A 
ATOM      5  C   UNL     1      46.638   5.299  13.763  0.00  0.00    +0.000 A 
ATOM      6  C   UNL     1      45.550   4.621  13.200  0.00  0.00    +0.000 A 
ENDROOT
BRANCH   1   8
ATOM      7  N   UNL     1      42.629   4.735  11.664  0.00  0.00    +0.000 NA
ATOM      8  C   UNL     1      43.828   4.388  11.356  0.00  0.00    +0.000 C 
ATOM      9  H   UNL     1      41.928   4.174  11.184  0.00  0.00    +0.000 HD
BRANCH   8  10
ATOM     10  S   UNL     1      44.198   3.061  10.273  0.00  0.00    +0.000 S 
BRANCH  10  11
ATOM     11  C   UNL     1      44.681   3.863   8.735  0.00  0.00    +0.000 C 
BRANCH  11  12
ATOM     12  C   UNL     1      45.663   3.020   7.955  0.00  0.00    +0.000 A 
ATOM     13  C   UNL     1      46.292   3.529   6.809  0.00  0.00    +0.000 A 
ATOM     14  C   UNL     1      47.218   2.754   6.106  0.00  0.00    +0.000 A 
ATOM     15  C   UNL     1      47.519   1.464   6.536  0.00  0.00    +0.000 A 
ATOM     16  C   UNL     1      46.884   0.939   7.660  0.00  0.00    +0.000 A 
ATOM     17  C   UNL     1      45.955   1.710   8.362  0.00  0.00    +0.000 A 
ENDBRANCH  11  12
ENDBRANCH  10  11
ENDBRANCH   8  10
ENDBRANCH   1   8
BRANCH   4  18
ATOM     18  C   UNL     1      48.392   7.100  13.778  0.00  0.00    +0.000 C 
BRANCH  18  19
ATOM     19  N   UNL     1      48.868   6.440  14.968  0.00  0.00    +0.000 N 
ATOM     20  C   UNL     1      48.868   7.053  16.193  0.00  0.00    +0.000 C 
ATOM     21  O   UNL     1      48.473   8.204  16.373  0.00  0.00    +0.000 OA
ATOM     22  H   UNL     1      49.479   5.641  14.846  0.00  0.00    +0.000 HD
BRANCH  20  23
ATOM     23  C   UNL     1      49.310   6.207  17.307  0.00  0.00    +0.000 A 
ATOM     24  C   UNL     1      48.399   5.750  18.249  0.00  0.00    +0.000 A 
ATOM     25  S   UNL     1      49.096   4.718  19.418  0.00  0.00    +0.000 S 
ATOM     26  C   UNL     1      50.643   4.895  18.733  0.00  0.00    +0.000 A 
ATOM     27  N   UNL     1      51.734   4.279  19.278  0.00  0.00    +0.000 NA
ATOM     28  C   UNL     1      52.841   4.528  18.678  0.00  0.00    +0.000 A 
ATOM     29  N   UNL     1      52.974   5.332  17.570  0.00  0.00    +0.000 N 
ATOM     30  C   UNL     1      51.898   5.921  16.957  0.00  0.00    +0.000 A 
ATOM     31  O   UNL     1      52.031   6.557  15.912  0.00  0.00    +0.000 OA
ATOM     32  C   UNL     1      50.628   5.703  17.618  0.00  0.00    +0.000 A 
ATOM     33  H   UNL     1      53.870   5.469  17.130  0.00  0.00    +0.000 HD
ENDBRANCH  20  23
ENDBRANCH  18  19
ENDBRANCH   4  18
TORSDOF 7
ENDMDL
MODEL 4
REMARK VINA RESULT:    -7.817      2.278      2.575
REMARK INTER + INTRA:         -11.925
REMARK INTER:                 -11.013
REMARK INTRA:                  -0.911
REMARK UNBOUND:                -0.909
REMARK  Name = 
REMARK  7 active torsions:
REMARK  status: ('A' for Active; 'I' for Inactive)
REMARK    1  A    between atoms: C_2  and  S_3
REMARK    2  A    between atoms: C_2  and  C_11
REMARK    3  A    between atoms: S_3  and  C_4
REMARK    4  A    between atoms: C_4  and  C_5
REMARK    5  A    between atoms: C_14  and  C_15
REMARK    6  A    between atoms: C_15  and  N_16
REMARK    7  A    between atoms: C_17  and  C_19
REMARK                            x       y       z     vdW  Elec       q    Type
REMARK                         _______ _______ _______ _____ _____    ______ ____
ROOT
ATOM      1  C   UNL     1      45.283   5.998  11.868  0.00  0.00    +0.000 A 
ATOM      2  C   UNL     1      45.164   7.388  11.919  0.00  0.00    +0.000 A 
ATOM      3  C   UNL     1      46.043   8.146  12.708  0.00  0.00    +0.000 A 
ATOM      4  C   UNL     1      47.068   7.527  13.443  0.00  0.00    +0.000 A 
ATOM      5  C   UNL     1      47.183   6.132  13.368  0.00  0.00    +0.000 A 
ATOM      6  C   UNL     1      46.305   5.372  12.587  0.00  0.00    +0.000 A 
ENDROOT
BRANCH   1   8
ATOM      7  N   UNL     1      43.208   5.782  10.660  0.00  0.00    +0.000 NA
ATOM      8  C   UNL     1      44.312   5.237  11.027  0.00  0.00    +0.000 C 
ATOM      9  H   UNL     1      42.622   5.148  10.122  0.00  0.00    +0.000 HD
BRANCH   8  10
ATOM     10  S   UNL     1      44.725   3.570  10.679  0.00  0.00    +0.000 S 
BRANCH  10  11
ATOM     11  C   UNL     1      44.349   3.373   8.930  0.00  0.00    +0.000 C 
BRANCH  11  12
ATOM     12  C   UNL     1      45.517   2.783   8.175  0.00  0.00    +0.000 A 
ATOM     13  C   UNL     1      46.279   3.573   7.301  0.00  0.00    +0.000 A 
ATOM     14  C   UNL     1      47.374   3.028   6.625  0.00  0.00    +0.000 A 
ATOM     15  C   UNL     1      47.713   1.690   6.810  0.00  0.00    +0.000 A 
ATOM     16  C   UNL     1      46.950   0.888   7.658  0.00  0.00    +0.000 A 
ATOM     17  C   UNL     1      45.854   1.430   8.332  0.00  0.00    +0.000 A 
ENDBRANCH  11  12
ENDBRANCH  10  11
ENDBRANCH   8  10
ENDBRANCH   1   8
BRANCH   4  18
ATOM     18  C   UNL     1      48.064   8.303  14.279  0.00  0.00    +0.000 C 
BRANCH  18  19
ATOM     19  N   UNL     1      49.085   7.483  14.878  0.00  0.00    +0.000 N 
ATOM     20  C   UNL     1      49.229   7.369  16.236  0.00  0.00    +0.000 C 
ATOM     21  O   UNL     1      48.510   7.956  17.043  0.00  0.00    +0.000 OA
ATOM     22  H   UNL     1      49.882   7.234  14.302  0.00  0.00    +0.000 HD
BRANCH  20  23
ATOM     23  C   UNL     1      50.267   6.428  16.671  0.00  0.00    +0.000 A 
ATOM     24  C   UNL     1      51.582   6.848  16.821  0.00  0.00    +0.000 A 
ATOM     25  S   UNL     1      52.619   5.626  17.408  0.00  0.00    +0.000 S 
ATOM     26  C   UNL     1      51.357   4.486  17.428  0.00  0.00    +0.000 A 
ATOM     27  N   UNL     1      51.574   3.194  17.814  0.00  0.00    +0.000 NA
ATOM     28  C   UNL     1      50.539   2.437  17.749  0.00  0.00    +0.000 A 
ATOM     29  N   UNL     1      49.291   2.843  17.341  0.00  0.00    +0.000 N 
ATOM     30  C   UNL     1      49.015   4.142  17.001  0.00  0.00    +0.000 A 
ATOM     31  O   UNL     1      47.869   4.500  16.732  0.00  0.00    +0.000 OA
ATOM     32  C   UNL     1      50.159   5.030  17.021  0.00  0.00    +0.000 A 
ATOM     33  H   UNL     1      48.512   2.203  17.334  0.00  0.00    +0.000 HD
ENDBRANCH  20  23
ENDBRANCH  18  19
ENDBRANCH   4  18
TORSDOF 7
ENDMDL
MODEL 5
REMARK VINA RESULT:    -7.636      3.913      9.880
REMARK INTER + INTRA:         -11.670
REMARK INTER:                  -9.548
REMARK INTRA:                  -2.122
REMARK UNBOUND:                -0.909
REMARK  Name = 
REMARK  7 active torsions:
REMARK  status: ('A' for Active; 'I' for Inactive)
REMARK    1  A    between atoms: C_2  and  S_3
REMARK    2  A    between atoms: C_2  and  C_11
REMARK    3  A    between atoms: S_3  and  C_4
REMARK    4  A    between atoms: C_4  and  C_5
REMARK    5  A    between atoms: C_14  and  C_15
REMARK    6  A    between atoms: C_15  and  N_16
REMARK    7  A    between atoms: C_17  and  C_19
REMARK                            x       y       z     vdW  Elec       q    Type
REMARK                         _______ _______ _______ _____ _____    ______ ____
ROOT
ATOM      1  C   UNL     1      51.283   4.796  17.879  0.00  0.00    +0.000 A 
ATOM      2  C   UNL     1      50.898   3.457  17.950  0.00  0.00    +0.000 A 
ATOM      3  C   UNL     1      49.618   3.063  17.526  0.00  0.00    +0.000 A 
ATOM      4  C   UNL     1      48.711   4.001  17.005  0.00  0.00    +0.000 A 
ATOM      5  C   UNL     1      49.121   5.340  16.925  0.00  0.00    +0.000 A 
ATOM      6  C   UNL     1      50.393   5.737  17.353  0.00  0.00    +0.000 A 
ENDROOT
BRANCH   1   8
ATOM      7  N   UNL     1      53.650   4.402  18.104  0.00  0.00    +0.000 NA
ATOM      8  C   UNL     1      52.648   5.165  18.358  0.00  0.00    +0.000 C 
ATOM      9  H   UNL     1      54.515   4.747  18.515  0.00  0.00    +0.000 HD
BRANCH   8  10
ATOM     10  S   UNL     1      52.761   6.606  19.348  0.00  0.00    +0.000 S 
BRANCH  10  11
ATOM     11  C   UNL     1      52.065   6.114  20.933  0.00  0.00    +0.000 C 
BRANCH  11  12
ATOM     12  C   UNL     1      50.557   6.048  20.881  0.00  0.00    +0.000 A 
ATOM     13  C   UNL     1      49.801   7.180  20.540  0.00  0.00    +0.000 A 
ATOM     14  C   UNL     1      48.408   7.108  20.468  0.00  0.00    +0.000 A 
ATOM     15  C   UNL     1      47.757   5.907  20.741  0.00  0.00    +0.000 A 
ATOM     16  C   UNL     1      48.494   4.781  21.103  0.00  0.00    +0.000 A 
ATOM     17  C   UNL     1      49.886   4.852  21.179  0.00  0.00    +0.000 A 
ENDBRANCH  11  12
ENDBRANCH  10  11
ENDBRANCH   8  10
ENDBRANCH   1   8
BRANCH   4  18
ATOM     18  C   UNL     1      47.335   3.622  16.501  0.00  0.00    +0.000 C 
BRANCH  18  19
ATOM     19  N   UNL     1      46.782   4.559  15.556  0.00  0.00    +0.000 N 
ATOM     20  C   UNL     1      46.743   4.302  14.210  0.00  0.00    +0.000 C 
ATOM     21  O   UNL     1      47.176   3.268  13.706  0.00  0.00    +0.000 OA
ATOM     22  H   UNL     1      46.702   5.526  15.849  0.00  0.00    +0.000 HD
BRANCH  20  23
ATOM     23  C   UNL     1      46.072   5.329  13.405  0.00  0.00    +0.000 A 
ATOM     24  C   UNL     1      46.702   6.536  13.135  0.00  0.00    +0.000 A 
ATOM     25  S   UNL     1      45.789   7.562  12.120  0.00  0.00    +0.000 S 
ATOM     26  C   UNL     1      44.505   6.449  12.056  0.00  0.00    +0.000 A 
ATOM     27  N   UNL     1      43.364   6.723  11.356  0.00  0.00    +0.000 NA
ATOM     28  C   UNL     1      42.465   5.808  11.423  0.00  0.00    +0.000 A 
ATOM     29  N   UNL     1      42.593   4.628  12.116  0.00  0.00    +0.000 N 
ATOM     30  C   UNL     1      43.742   4.288  12.782  0.00  0.00    +0.000 A 
ATOM     31  O   UNL     1      43.865   3.185  13.316  0.00  0.00    +0.000 OA
ATOM     32  C   UNL     1      44.774   5.303  12.771  0.00  0.00    +0.000 A 
ATOM     33  H   UNL     1      41.857   3.939  12.110  0.00  0.00    +0.000 HD
ENDBRANCH  20  23
ENDBRANCH  18  19
ENDBRANCH   4  18
TORSDOF 7
ENDMDL
MODEL 6
REMARK VINA RESULT:    -7.569      3.687      9.047
REMARK INTER + INTRA:         -11.575
REMARK INTER:                  -9.107
REMARK INTRA:                  -2.468
REMARK UNBOUND:                -0.909
REMARK  Name = 
REMARK  7 active torsions:
REMARK  status: ('A' for Active; 'I' for Inactive)
REMARK    1  A    between atoms: C_2  and  S_3
REMARK    2  A    between atoms: C_2  and  C_11
REMARK    3  A    between atoms: S_3  and  C_4
REMARK    4  A    between atoms: C_4  and  C_5
REMARK    5  A    between atoms: C_14  and  C_15
REMARK    6  A    between atoms: C_15  and  N_16
REMARK    7  A    between atoms: C_17  and  C_19
REMARK                            x       y       z     vdW  Elec       q    Type
REMARK                         _______ _______ _______ _____ _____    ______ ____
ROOT
ATOM      1  C   UNL     1      50.325   4.740  19.277  0.00  0.00    +0.000 A 
ATOM      2  C   UNL     1      49.042   5.209  19.561  0.00  0.00    +0.000 A 
ATOM      3  C   UNL     1      47.958   4.849  18.745  0.00  0.00    +0.000 A 
ATOM      4  C   UNL     1      48.138   3.997  17.642  0.00  0.00    +0.000 A 
ATOM      5  C   UNL     1      49.431   3.523  17.380  0.00  0.00    +0.000 A 
ATOM      6  C   UNL     1      50.515   3.885  18.188  0.00  0.00    +0.000 A 
ENDROOT
BRANCH   1   8
ATOM      7  N   UNL     1      52.085   4.295  20.863  0.00  0.00    +0.000 NA
ATOM      8  C   UNL     1      51.445   5.166  20.166  0.00  0.00    +0.000 C 
ATOM      9  H   UNL     1      52.800   4.718  21.451  0.00  0.00    +0.000 HD
BRANCH   8  10
ATOM     10  S   UNL     1      51.744   6.889  20.270  0.00  0.00    +0.000 S 
BRANCH  10  11
ATOM     11  C   UNL     1      52.252   7.354  18.607  0.00  0.00    +0.000 C 
BRANCH  11  12
ATOM     12  C   UNL     1      51.065   7.506  17.686  0.00  0.00    +0.000 A 
ATOM     13  C   UNL     1      51.046   6.882  16.429  0.00  0.00    +0.000 A 
ATOM     14  C   UNL     1      49.934   7.006  15.592  0.00  0.00    +0.000 A 
ATOM     15  C   UNL     1      48.835   7.758  15.999  0.00  0.00    +0.000 A 
ATOM     16  C   UNL     1      48.849   8.402  17.235  0.00  0.00    +0.000 A 
ATOM     17  C   UNL     1      49.961   8.283  18.072  0.00  0.00    +0.000 A 
ENDBRANCH  11  12
ENDBRANCH  10  11
ENDBRANCH   8  10
ENDBRANCH   1   8
BRANCH   4  18
ATOM     18  C   UNL     1      46.997   3.551  16.753  0.00  0.00    +0.000 C 
BRANCH  18  19
ATOM     19  N   UNL     1      46.651   4.502  15.727  0.00  0.00    +0.000 N 
ATOM     20  C   UNL     1      46.830   4.237  14.394  0.00  0.00    +0.000 C 
ATOM     21  O   UNL     1      47.300   3.182  13.972  0.00  0.00    +0.000 OA
ATOM     22  H   UNL     1      46.562   5.474  16.002  0.00  0.00    +0.000 HD
BRANCH  20  23
ATOM     23  C   UNL     1      46.348   5.284  13.486  0.00  0.00    +0.000 A 
ATOM     24  C   UNL     1      47.172   6.343  13.131  0.00  0.00    +0.000 A 
ATOM     25  S   UNL     1      46.454   7.411  12.008  0.00  0.00    +0.000 S 
ATOM     26  C   UNL     1      45.005   6.521  12.004  0.00  0.00    +0.000 A 
ATOM     27  N   UNL     1      43.934   6.914  11.253  0.00  0.00    +0.000 NA
ATOM     28  C   UNL     1      42.896   6.167  11.373  0.00  0.00    +0.000 A 
ATOM     29  N   UNL     1      42.818   5.048  12.168  0.00  0.00    +0.000 N 
ATOM     30  C   UNL     1      43.886   4.586  12.892  0.00  0.00    +0.000 A 
ATOM     31  O   UNL     1      43.819   3.529  13.520  0.00  0.00    +0.000 OA
ATOM     32  C   UNL     1      45.071   5.415  12.822  0.00  0.00    +0.000 A 
ATOM     33  H   UNL     1      41.979   4.490  12.200  0.00  0.00    +0.000 HD
ENDBRANCH  20  23
ENDBRANCH  18  19
ENDBRANCH   4  18
TORSDOF 7
ENDMDL
MODEL 7
REMARK VINA RESULT:    -7.351      3.419      8.742
REMARK INTER + INTRA:         -11.267
REMARK INTER:                  -8.882
REMARK INTRA:                  -2.385
REMARK UNBOUND:                -0.909
REMARK  Name = 
REMARK  7 active torsions:
REMARK  status: ('A' for Active; 'I' for Inactive)
REMARK    1  A    between atoms: C_2  and  S_3
REMARK    2  A    between atoms: C_2  and  C_11
REMARK    3  A    between atoms: S_3  and  C_4
REMARK    4  A    between atoms: C_4  and  C_5
REMARK    5  A    between atoms: C_14  and  C_15
REMARK    6  A    between atoms: C_15  and  N_16
REMARK    7  A    between atoms: C_17  and  C_19
REMARK                            x       y       z     vdW  Elec       q    Type
REMARK                         _______ _______ _______ _____ _____    ______ ____
ROOT
ATOM      1  C   UNL     1      49.928   7.361  18.427  0.00  0.00    +0.000 A 
ATOM      2  C   UNL     1      50.485   6.758  17.298  0.00  0.00    +0.000 A 
ATOM      3  C   UNL     1      49.986   7.051  16.019  0.00  0.00    +0.000 A 
ATOM      4  C   UNL     1      48.936   7.969  15.847  0.00  0.00    +0.000 A 
ATOM      5  C   UNL     1      48.400   8.578  16.991  0.00  0.00    +0.000 A 
ATOM      6  C   UNL     1      48.890   8.283  18.268  0.00  0.00    +0.000 A 
ENDROOT
BRANCH   1   8
ATOM      7  N   UNL     1      50.911   7.921  20.556  0.00  0.00    +0.000 NA
ATOM      8  C   UNL     1      50.483   7.002  19.765  0.00  0.00    +0.000 C 
ATOM      9  H   UNL     1      51.294   7.543  21.419  0.00  0.00    +0.000 HD
BRANCH   8  10
ATOM     10  S   UNL     1      50.604   5.292  20.123  0.00  0.00    +0.000 S 
BRANCH  10  11
ATOM     11  C   UNL     1      48.901   4.709  20.094  0.00  0.00    +0.000 C 
BRANCH  11  12
ATOM     12  C   UNL     1      48.531   4.147  18.741  0.00  0.00    +0.000 A 
ATOM     13  C   UNL     1      47.494   4.717  17.987  0.00  0.00    +0.000 A 
ATOM     14  C   UNL     1      47.172   4.210  16.726  0.00  0.00    +0.000 A 
ATOM     15  C   UNL     1      47.878   3.126  16.209  0.00  0.00    +0.000 A 
ATOM     16  C   UNL     1      48.895   2.536  16.958  0.00  0.00    +0.000 A 
ATOM     17  C   UNL     1      49.216   3.039  18.220  0.00  0.00    +0.000 A 
ENDBRANCH  11  12
ENDBRANCH  10  11
ENDBRANCH   8  10
ENDBRANCH   1   8
BRANCH   4  18
ATOM     18  C   UNL     1      48.388   8.346  14.487  0.00  0.00    +0.000 C 
BRANCH  18  19
ATOM     19  N   UNL     1      47.364   7.455  14.004  0.00  0.00    +0.000 N 
ATOM     20  C   UNL     1      47.646   6.392  13.187  0.00  0.00    +0.000 C 
ATOM     21  O   UNL     1      48.781   6.120  12.800  0.00  0.00    +0.000 OA
ATOM     22  H   UNL     1      46.408   7.790  14.020  0.00  0.00    +0.000 HD
BRANCH  20  23
ATOM     23  C   UNL     1      46.496   5.542  12.859  0.00  0.00    +0.000 A 
ATOM     24  C   UNL     1      46.531   4.179  13.115  0.00  0.00    +0.000 A 
ATOM     25  S   UNL     1      45.069   3.382  12.735  0.00  0.00    +0.000 S 
ATOM     26  C   UNL     1      44.366   4.824  12.168  0.00  0.00    +0.000 A 
ATOM     27  N   UNL     1      43.097   4.842  11.661  0.00  0.00    +0.000 NA
ATOM     28  C   UNL     1      42.709   5.991  11.239  0.00  0.00    +0.000 A 
ATOM     29  N   UNL     1      43.461   7.141  11.280  0.00  0.00    +0.000 N 
ATOM     30  C   UNL     1      44.715   7.179  11.833  0.00  0.00    +0.000 A 
ATOM     31  O   UNL     1      45.330   8.240  11.944  0.00  0.00    +0.000 OA
ATOM     32  C   UNL     1      45.217   5.900  12.289  0.00  0.00    +0.000 A 
ATOM     33  H   UNL     1      43.088   8.019  10.954  0.00  0.00    +0.000 HD
ENDBRANCH  20  23
ENDBRANCH  18  19
ENDBRANCH   4  18
TORSDOF 7
ENDMDL
MODEL 8
REMARK VINA RESULT:    -7.321      2.932      9.190
REMARK INTER + INTRA:         -11.226
REMARK INTER:                  -9.127
REMARK INTRA:                  -2.099
REMARK UNBOUND:                -0.909
REMARK  Name = 
REMARK  7 active torsions:
REMARK  status: ('A' for Active; 'I' for Inactive)
REMARK    1  A    between atoms: C_2  and  S_3
REMARK    2  A    between atoms: C_2  and  C_11
REMARK    3  A    between atoms: S_3  and  C_4
REMARK    4  A    between atoms: C_4  and  C_5
REMARK    5  A    between atoms: C_14  and  C_15
REMARK    6  A    between atoms: C_15  and  N_16
REMARK    7  A    between atoms: C_17  and  C_19
REMARK                            x       y       z     vdW  Elec       q    Type
REMARK                         _______ _______ _______ _____ _____    ______ ____
ROOT
ATOM      1  C   UNL     1      49.105   5.610  19.258  0.00  0.00    +0.000 A 
ATOM      2  C   UNL     1      48.982   4.898  18.064  0.00  0.00    +0.000 A 
ATOM      3  C   UNL     1      48.892   5.577  16.839  0.00  0.00    +0.000 A 
ATOM      4  C   UNL     1      48.944   6.981  16.787  0.00  0.00    +0.000 A 
ATOM      5  C   UNL     1      49.084   7.679  17.995  0.00  0.00    +0.000 A 
ATOM      6  C   UNL     1      49.168   7.005  19.219  0.00  0.00    +0.000 A 
ENDROOT
BRANCH   1   8
ATOM      7  N   UNL     1      48.412   3.827  20.724  0.00  0.00    +0.000 NA
ATOM      8  C   UNL     1      49.180   4.840  20.535  0.00  0.00    +0.000 C 
ATOM      9  H   UNL     1      48.538   3.412  21.645  0.00  0.00    +0.000 HD
BRANCH   8  10
ATOM     10  S   UNL     1      50.274   5.461  21.753  0.00  0.00    +0.000 S 
BRANCH  10  11
ATOM     11  C   UNL     1      51.853   4.685  21.371  0.00  0.00    +0.000 C 
BRANCH  11  12
ATOM     12  C   UNL     1      52.277   4.961  19.948  0.00  0.00    +0.000 A 
ATOM     13  C   UNL     1      52.617   6.260  19.540  0.00  0.00    +0.000 A 
ATOM     14  C   UNL     1      53.032   6.506  18.229  0.00  0.00    +0.000 A 
ATOM     15  C   UNL     1      53.106   5.459  17.313  0.00  0.00    +0.000 A 
ATOM     16  C   UNL     1      52.750   4.168  17.699  0.00  0.00    +0.000 A 
ATOM     17  C   UNL     1      52.330   3.921  19.008  0.00  0.00    +0.000 A 
ENDBRANCH  11  12
ENDBRANCH  10  11
ENDBRANCH   8  10
ENDBRANCH   1   8
BRANCH   4  18
ATOM     18  C   UNL     1      48.888   7.758  15.489  0.00  0.00    +0.000 C 
BRANCH  18  19
ATOM     19  N   UNL     1      47.755   7.430  14.663  0.00  0.00    +0.000 N 
ATOM     20  C   UNL     1      47.876   6.691  13.515  0.00  0.00    +0.000 C 
ATOM     21  O   UNL     1      48.950   6.259  13.100  0.00  0.00    +0.000 OA
ATOM     22  H   UNL     1      46.921   7.998  14.766  0.00  0.00    +0.000 HD
BRANCH  20  23
ATOM     23  C   UNL     1      46.609   6.382  12.842  0.00  0.00    +0.000 A 
ATOM     24  C   UNL     1      45.860   7.391  12.253  0.00  0.00    +0.000 A 
ATOM     25  S   UNL     1      44.463   6.817  11.457  0.00  0.00    +0.000 S 
ATOM     26  C   UNL     1      44.789   5.213  11.921  0.00  0.00    +0.000 A 
ATOM     27  N   UNL     1      43.948   4.192  11.580  0.00  0.00    +0.000 NA
ATOM     28  C   UNL     1      44.301   3.040  12.025  0.00  0.00    +0.000 A 
ATOM     29  N   UNL     1      45.425   2.797  12.778  0.00  0.00    +0.000 N 
ATOM     30  C   UNL     1      46.325   3.782  13.093  0.00  0.00    +0.000 A 
ATOM     31  O   UNL     1      47.372   3.522  13.686  0.00  0.00    +0.000 OA
ATOM     32  C   UNL     1      45.955   5.109  12.646  0.00  0.00    +0.000 A 
ATOM     33  H   UNL     1      45.659   1.864  13.078  0.00  0.00    +0.000 HD
ENDBRANCH  20  23
ENDBRANCH  18  19
ENDBRANCH   4  18
TORSDOF 7
ENDMDL
MODEL 9
REMARK VINA RESULT:    -7.222      3.383      9.252
REMARK INTER + INTRA:         -11.085
REMARK INTER:                  -8.671
REMARK INTRA:                  -2.414
REMARK UNBOUND:                -0.909
REMARK  Name = 
REMARK  7 active torsions:
REMARK  status: ('A' for Active; 'I' for Inactive)
REMARK    1  A    between atoms: C_2  and  S_3
REMARK    2  A    between atoms: C_2  and  C_11
REMARK    3  A    between atoms: S_3  and  C_4
REMARK    4  A    between atoms: C_4  and  C_5
REMARK    5  A    between atoms: C_14  and  C_15
REMARK    6  A    between atoms: C_15  and  N_16
REMARK    7  A    between atoms: C_17  and  C_19
REMARK                            x       y       z     vdW  Elec       q    Type
REMARK                         _______ _______ _______ _____ _____    ______ ____
ROOT
ATOM      1  C   UNL     1      50.436   5.010  17.368  0.00  0.00    +0.000 A 
ATOM      2  C   UNL     1      49.097   4.806  17.030  0.00  0.00    +0.000 A 
ATOM      3  C   UNL     1      48.445   5.687  16.152  0.00  0.00    +0.000 A 
ATOM      4  C   UNL     1      49.128   6.774  15.582  0.00  0.00    +0.000 A 
ATOM      5  C   UNL     1      50.477   6.955  15.920  0.00  0.00    +0.000 A 
ATOM      6  C   UNL     1      51.128   6.083  16.800  0.00  0.00    +0.000 A 
ENDROOT
BRANCH   1   8
ATOM      7  N   UNL     1      50.968   2.788  18.134  0.00  0.00    +0.000 NA
ATOM      8  C   UNL     1      51.078   4.055  18.319  0.00  0.00    +0.000 C 
ATOM      9  H   UNL     1      51.420   2.249  18.869  0.00  0.00    +0.000 HD
BRANCH   8  10
ATOM     10  S   UNL     1      51.871   4.761  19.712  0.00  0.00    +0.000 S 
BRANCH  10  11
ATOM     11  C   UNL     1      50.537   5.052  20.884  0.00  0.00    +0.000 C 
BRANCH  11  12
ATOM     12  C   UNL     1      49.560   6.083  20.368  0.00  0.00    +0.000 A 
ATOM     13  C   UNL     1      49.998   7.362  19.993  0.00  0.00    +0.000 A 
ATOM     14  C   UNL     1      49.095   8.303  19.492  0.00  0.00    +0.000 A 
ATOM     15  C   UNL     1      47.746   7.977  19.368  0.00  0.00    +0.000 A 
ATOM     16  C   UNL     1      47.294   6.718  19.758  0.00  0.00    +0.000 A 
ATOM     17  C   UNL     1      48.194   5.777  20.262  0.00  0.00    +0.000 A 
ENDBRANCH  11  12
ENDBRANCH  10  11
ENDBRANCH   8  10
ENDBRANCH   1   8
BRANCH   4  18
ATOM     18  C   UNL     1      48.480   7.730  14.603  0.00  0.00    +0.000 C 
BRANCH  18  19
ATOM     19  N   UNL     1      47.251   7.238  14.036  0.00  0.00    +0.000 N 
ATOM     20  C   UNL     1      47.061   7.131  12.683  0.00  0.00    +0.000 C 
ATOM     21  O   UNL     1      47.912   7.449  11.854  0.00  0.00    +0.000 OA
ATOM     22  H   UNL     1      46.424   7.258  14.622  0.00  0.00    +0.000 HD
BRANCH  20  23
ATOM     23  C   UNL     1      45.782   6.533  12.283  0.00  0.00    +0.000 A 
ATOM     24  C   UNL     1      44.785   7.315  11.718  0.00  0.00    +0.000 A 
ATOM     25  S   UNL     1      43.407   6.421  11.252  0.00  0.00    +0.000 S 
ATOM     26  C   UNL     1      44.079   4.973  11.841  0.00  0.00    +0.000 A 
ATOM     27  N   UNL     1      43.390   3.795  11.777  0.00  0.00    +0.000 NA
ATOM     28  C   UNL     1      44.005   2.790  12.289  0.00  0.00    +0.000 A 
ATOM     29  N   UNL     1      45.256   2.838  12.857  0.00  0.00    +0.000 N 
ATOM     30  C   UNL     1      46.004   3.986  12.889  0.00  0.00    +0.000 A 
ATOM     31  O   UNL     1      47.159   3.982  13.318  0.00  0.00    +0.000 OA
ATOM     32  C   UNL     1      45.341   5.159  12.359  0.00  0.00    +0.000 A 
ATOM     33  H   UNL     1      45.695   2.007  13.221  0.00  0.00    +0.000 HD
ENDBRANCH  20  23
ENDBRANCH  18  19
ENDBRANCH   4  18
TORSDOF 7
ENDMDL
