MODEL 1
REMARK VINA RESULT:    -8.086      0.000      0.000
REMARK INTER + INTRA:         -13.235
REMARK INTER:                 -12.341
REMARK INTRA:                  -0.894
REMARK UNBOUND:                -0.894
REMARK  Name = 
REMARK  11 active torsions:
REMARK  status: ('A' for Active; 'I' for Inactive)
REMARK    1  A    between atoms: C_1  and  C_2
REMARK    2  A    between atoms: C_2  and  C_3
REMARK    3  A    between atoms: C_3  and  N_4
REMARK    4  A    between atoms: C_3  and  C_22
REMARK    5  A    between atoms: N_4  and  C_5
REMARK    6  A    between atoms: C_5  and  C_6
REMARK    7  A    between atoms: C_9  and  C_10
REMARK    8  A    between atoms: C_10  and  N_11
REMARK    9  A    between atoms: N_11  and  C_12
REMARK   10  A    between atoms: N_11  and  C_13
REMARK   11  A    between atoms: C_13  and  C_14
REMARK                            x       y       z     vdW  Elec       q    Type
REMARK                         _______ _______ _______ _____ _____    ______ ____
ROOT
ATOM      1  C   UNL     1      48.623   6.477  15.077  0.00  0.00    +0.000 C 
ENDROOT
BRANCH   1   2
ATOM      2  C   UNL     1      47.683   6.167  13.938  0.00  0.00    +0.000 A 
ATOM      3  C   UNL     1      46.866   5.031  13.991  0.00  0.00    +0.000 A 
ATOM      4  C   UNL     1      45.937   4.788  12.985  0.00  0.00    +0.000 A 
ATOM      5  C   UNL     1      45.793   5.690  11.920  0.00  0.00    +0.000 A 
ATOM      6  C   UNL     1      46.638   6.803  11.843  0.00  0.00    +0.000 A 
ATOM      7  C   UNL     1      47.574   7.041  12.847  0.00  0.00    +0.000 A 
BRANCH   5   8
ATOM      8  C   UNL     1      44.704   5.480  10.894  0.00  0.00    +0.000 C 
BRANCH   8   9
ATOM      9  N   UNL     1      44.617   4.072  10.449  0.00  0.00    +0.000 NA
ATOM     10  C   UNL     1      43.524   3.364  11.125  0.00  0.00    +0.000 C 
BRANCH   9  11
ATOM     11  C   UNL     1      44.423   4.002   8.986  0.00  0.00    +0.000 C 
BRANCH  11  12
ATOM     12  C   UNL     1      45.458   3.150   8.286  0.00  0.00    +0.000 A 
ATOM     13  C   UNL     1      45.578   1.796   8.584  0.00  0.00    +0.000 A 
ATOM     14  N   UNL     1      46.541   1.008   8.052  0.00  0.00    +0.000 NA
ATOM     15  C   UNL     1      47.396   1.631   7.212  0.00  0.00    +0.000 A 
ATOM     16  C   UNL     1      47.282   2.973   6.902  0.00  0.00    +0.000 A 
ATOM     17  N   UNL     1      46.316   3.762   7.425  0.00  0.00    +0.000 NA
ENDBRANCH  11  12
ENDBRANCH   9  11
ENDBRANCH   8   9
ENDBRANCH   5   8
ENDBRANCH   1   2
BRANCH   1  18
ATOM     18  N   UNL     1      48.855   5.299  15.907  0.00  0.00    +0.000 NA
ATOM     19  H   UNL     1      49.705   4.840  15.583  0.00  0.00    +0.000 HD
BRANCH  18  20
ATOM     20  C   UNL     1      48.975   5.556  17.347  0.00  0.00    +0.000 C 
BRANCH  20  21
ATOM     21  C   UNL     1      50.255   4.929  17.876  0.00  0.00    +0.000 A 
ATOM     22  C   UNL     1      51.185   5.590  18.663  0.00  0.00    +0.000 A 
ATOM     23  S   UNL     1      52.593   4.683  18.973  0.00  0.00    +0.000 S 
ATOM     24  C   UNL     1      51.966   3.327  18.159  0.00  0.00    +0.000 A 
ATOM     25  N   UNL     1      52.689   2.177  18.071  0.00  0.00    +0.000 NA
ATOM     26  C   UNL     1      52.066   1.204  17.497  0.00  0.00    +0.000 A 
ATOM     27  N   UNL     1      50.792   1.278  16.995  0.00  0.00    +0.000 N 
ATOM     28  C   UNL     1      50.039   2.440  17.012  0.00  0.00    +0.000 A 
ATOM     29  O   UNL     1      48.922   2.465  16.504  0.00  0.00    +0.000 OA
ATOM     30  C   UNL     1      50.697   3.566  17.662  0.00  0.00    +0.000 A 
ATOM     31  H   UNL     1      50.357   0.472  16.573  0.00  0.00    +0.000 HD
ENDBRANCH  20  21
BRANCH  20  33
ATOM     32  C   UNL     1      47.280   6.096  19.227  0.00  0.00    +0.000 C 
ATOM     33  C   UNL     1      47.673   5.163  18.092  0.00  0.00    +0.000 C 
ENDBRANCH  20  33
ENDBRANCH  18  20
ENDBRANCH   1  18
TORSDOF 9
ENDMDL
MODEL 2
REMARK VINA RESULT:    -7.789      2.263      3.269
REMARK INTER + INTRA:         -12.781
REMARK INTER:                 -11.367
REMARK INTRA:                  -1.414
REMARK UNBOUND:                -0.894
REMARK  Name = 
REMARK  11 active torsions:
REMARK  status: ('A' for Active; 'I' for Inactive)
REMARK    1  A    between atoms: C_1  and  C_2
REMARK    2  A    between atoms: C_2  and  C_3
REMARK    3  A    between atoms: C_3  and  N_4
REMARK    4  A    between atoms: C_3  and  C_22
REMARK    5  A    between atoms: N_4  and  C_5
REMARK    6  A    between atoms: C_5  and  C_6
REMARK    7  A    between atoms: C_9  and  C_10
REMARK    8  A    between atoms: C_10  and  N_11
REMARK    9  A    between atoms: N_11  and  C_12
REMARK   10  A    between atoms: N_11  and  C_13
REMARK   11  A    between atoms: C_13  and  C_14
REMARK                            x       y       z     vdW  Elec       q    Type
REMARK                         _______ _______ _______ _____ _____    ______ ____
ROOT
ATOM      1  C   UNL     1      47.292   8.602  13.145  0.00  0.00    +0.000 C 
ENDROOT
BRANCH   1   2
ATOM      2  C   UNL     1      46.400   7.676  12.356  0.00  0.00    +0.000 A 
ATOM      3  C   UNL     1      46.957   6.778  11.436  0.00  0.00    +0.000 A 
ATOM      4  C   UNL     1      46.148   5.864  10.770  0.00  0.00    +0.000 A 
ATOM      5  C   UNL     1      44.770   5.815  11.031  0.00  0.00    +0.000 A 
ATOM      6  C   UNL     1      44.205   6.740  11.917  0.00  0.00    +0.000 A 
ATOM      7  C   UNL     1      45.016   7.661  12.577  0.00  0.00    +0.000 A 
BRANCH   5   8
ATOM      8  C   UNL     1      43.917   4.745  10.391  0.00  0.00    +0.000 C 
BRANCH   8   9
ATOM      9  N   UNL     1      44.438   3.384  10.648  0.00  0.00    +0.000 NA
ATOM     10  C   UNL     1      43.787   2.773  11.811  0.00  0.00    +0.000 C 
BRANCH   9  11
ATOM     11  C   UNL     1      44.247   2.525   9.463  0.00  0.00    +0.000 C 
BRANCH  11  12
ATOM     12  C   UNL     1      45.460   2.468   8.562  0.00  0.00    +0.000 A 
ATOM     13  C   UNL     1      45.868   3.596   7.854  0.00  0.00    +0.000 A 
ATOM     14  N   UNL     1      46.892   3.578   6.970  0.00  0.00    +0.000 NA
ATOM     15  C   UNL     1      47.492   2.378   6.807  0.00  0.00    +0.000 A 
ATOM     16  C   UNL     1      47.100   1.254   7.508  0.00  0.00    +0.000 A 
ATOM     17  N   UNL     1      46.083   1.269   8.400  0.00  0.00    +0.000 NA
ENDBRANCH  11  12
ENDBRANCH   9  11
ENDBRANCH   8   9
ENDBRANCH   5   8
ENDBRANCH   1   2
BRANCH   1  18
ATOM     18  N   UNL     1      47.623   8.032  14.448  0.00  0.00    +0.000 NA
ATOM     19  H   UNL     1      46.874   7.396  14.720  0.00  0.00    +0.000 HD
BRANCH  18  20
ATOM     20  C   UNL     1      48.901   7.314  14.516  0.00  0.00    +0.000 C 
BRANCH  20  21
ATOM     21  C   UNL     1      49.021   6.601  15.854  0.00  0.00    +0.000 A 
ATOM     22  C   UNL     1      49.812   7.035  16.906  0.00  0.00    +0.000 A 
ATOM     23  S   UNL     1      49.867   5.950  18.218  0.00  0.00    +0.000 S 
ATOM     24  C   UNL     1      48.746   4.908  17.476  0.00  0.00    +0.000 A 
ATOM     25  N   UNL     1      48.343   3.768  18.100  0.00  0.00    +0.000 NA
ATOM     26  C   UNL     1      47.434   3.110  17.464  0.00  0.00    +0.000 A 
ATOM     27  N   UNL     1      46.898   3.483  16.258  0.00  0.00    +0.000 N 
ATOM     28  C   UNL     1      47.314   4.604  15.560  0.00  0.00    +0.000 A 
ATOM     29  O   UNL     1      46.836   4.865  14.460  0.00  0.00    +0.000 OA
ATOM     30  C   UNL     1      48.334   5.387  16.245  0.00  0.00    +0.000 A 
ATOM     31  H   UNL     1      46.175   2.930  15.823  0.00  0.00    +0.000 HD
ENDBRANCH  20  21
BRANCH  20  33
ATOM     32  C   UNL     1      50.579   8.102  12.709  0.00  0.00    +0.000 C 
ATOM     33  C   UNL     1      50.083   8.246  14.140  0.00  0.00    +0.000 C 
ENDBRANCH  20  33
ENDBRANCH  18  20
ENDBRANCH   1  18
TORSDOF 9
ENDMDL
MODEL 3
REMARK VINA RESULT:    -7.309      1.518      1.852
REMARK INTER + INTRA:         -12.049
REMARK INTER:                 -10.884
REMARK INTRA:                  -1.165
REMARK UNBOUND:                -0.894
REMARK  Name = 
REMARK  11 active torsions:
REMARK  status: ('A' for Active; 'I' for Inactive)
REMARK    1  A    between atoms: C_1  and  C_2
REMARK    2  A    between atoms: C_2  and  C_3
REMARK    3  A    between atoms: C_3  and  N_4
REMARK    4  A    between atoms: C_3  and  C_22
REMARK    5  A    between atoms: N_4  and  C_5
REMARK    6  A    between atoms: C_5  and  C_6
REMARK    7  A    between atoms: C_9  and  C_10
REMARK    8  A    between atoms: C_10  and  N_11
REMARK    9  A    between atoms: N_11  and  C_12
REMARK   10  A    between atoms: N_11  and  C_13
REMARK   11  A    between atoms: C_13  and  C_14
REMARK                            x       y       z     vdW  Elec       q    Type
REMARK                         _______ _______ _______ _____ _____    ______ ____
ROOT
ATOM      1  C   UNL     1      48.834   6.986  14.369  0.00  0.00    +0.000 C 
ENDROOT
BRANCH   1   2
ATOM      2  C   UNL     1      47.791   6.440  13.426  0.00  0.00    +0.000 A 
ATOM      3  C   UNL     1      46.961   5.386  13.828  0.00  0.00    +0.000 A 
ATOM      4  C   UNL     1      45.941   4.938  12.996  0.00  0.00    +0.000 A 
ATOM      5  C   UNL     1      45.718   5.553  11.756  0.00  0.00    +0.000 A 
ATOM      6  C   UNL     1      46.572   6.579  11.333  0.00  0.00    +0.000 A 
ATOM      7  C   UNL     1      47.599   7.020  12.164  0.00  0.00    +0.000 A 
BRANCH   5   8
ATOM      8  C   UNL     1      44.537   5.139  10.908  0.00  0.00    +0.000 C 
BRANCH   8   9
ATOM      9  N   UNL     1      44.656   3.746  10.423  0.00  0.00    +0.000 NA
ATOM     10  C   UNL     1      43.640   2.880  11.029  0.00  0.00    +0.000 C 
BRANCH   9  11
ATOM     11  C   UNL     1      44.536   3.698   8.952  0.00  0.00    +0.000 C 
BRANCH  11  12
ATOM     12  C   UNL     1      45.658   2.936   8.284  0.00  0.00    +0.000 A 
ATOM     13  C   UNL     1      46.544   3.587   7.429  0.00  0.00    +0.000 A 
ATOM     14  N   UNL     1      47.511   2.937   6.740  0.00  0.00    +0.000 NA
ATOM     15  C   UNL     1      47.553   1.600   6.927  0.00  0.00    +0.000 A 
ATOM     16  C   UNL     1      46.684   0.945   7.778  0.00  0.00    +0.000 A 
ATOM     17  N   UNL     1      45.723   1.590   8.476  0.00  0.00    +0.000 NA
ENDBRANCH  11  12
ENDBRANCH   9  11
ENDBRANCH   8   9
ENDBRANCH   5   8
ENDBRANCH   1   2
BRANCH   1  18
ATOM     18  N   UNL     1      48.290   7.170  15.710  0.00  0.00    +0.000 NA
ATOM     19  H   UNL     1      47.880   6.287  16.015  0.00  0.00    +0.000 HD
BRANCH  18  20
ATOM     20  C   UNL     1      49.250   7.620  16.724  0.00  0.00    +0.000 C 
BRANCH  20  21
ATOM     21  C   UNL     1      50.248   6.510  17.017  0.00  0.00    +0.000 A 
ATOM     22  C   UNL     1      51.618   6.693  17.114  0.00  0.00    +0.000 A 
ATOM     23  S   UNL     1      52.495   5.243  17.293  0.00  0.00    +0.000 S 
ATOM     24  C   UNL     1      51.066   4.322  17.359  0.00  0.00    +0.000 A 
ATOM     25  N   UNL     1      51.120   2.972  17.521  0.00  0.00    +0.000 NA
ATOM     26  C   UNL     1      49.966   2.406  17.633  0.00  0.00    +0.000 A 
ATOM     27  N   UNL     1      48.764   3.066  17.589  0.00  0.00    +0.000 N 
ATOM     28  C   UNL     1      48.657   4.429  17.371  0.00  0.00    +0.000 A 
ATOM     29  O   UNL     1      47.554   4.961  17.291  0.00  0.00    +0.000 OA
ATOM     30  C   UNL     1      49.936   5.114  17.250  0.00  0.00    +0.000 A 
ATOM     31  H   UNL     1      47.897   2.563  17.702  0.00  0.00    +0.000 HD
ENDBRANCH  20  21
BRANCH  20  33
ATOM     32  C   UNL     1      47.723   9.478  17.681  0.00  0.00    +0.000 C 
ATOM     33  C   UNL     1      48.520   8.212  17.957  0.00  0.00    +0.000 C 
ENDBRANCH  20  33
ENDBRANCH  18  20
ENDBRANCH   1  18
TORSDOF 9
ENDMDL
MODEL 4
REMARK VINA RESULT:    -7.309      1.632      2.004
REMARK INTER + INTRA:         -12.049
REMARK INTER:                 -11.159
REMARK INTRA:                  -0.890
REMARK UNBOUND:                -0.894
REMARK  Name = 
REMARK  11 active torsions:
REMARK  status: ('A' for Active; 'I' for Inactive)
REMARK    1  A    between atoms: C_1  and  C_2
REMARK    2  A    between atoms: C_2  and  C_3
REMARK    3  A    between atoms: C_3  and  N_4
REMARK    4  A    between atoms: C_3  and  C_22
REMARK    5  A    between atoms: N_4  and  C_5
REMARK    6  A    between atoms: C_5  and  C_6
REMARK    7  A    between atoms: C_9  and  C_10
REMARK    8  A    between atoms: C_10  and  N_11
REMARK    9  A    between atoms: N_11  and  C_12
REMARK   10  A    between atoms: N_11  and  C_13
REMARK   11  A    between atoms: C_13  and  C_14
REMARK                            x       y       z     vdW  Elec       q    Type
REMARK                         _______ _______ _______ _____ _____    ______ ____
ROOT
ATOM      1  C   UNL     1      48.881   6.884  14.647  0.00  0.00    +0.000 C 
ENDROOT
BRANCH   1   2
ATOM      2  C   UNL     1      47.828   6.446  13.660  0.00  0.00    +0.000 A 
ATOM      3  C   UNL     1      46.962   5.392  13.976  0.00  0.00    +0.000 A 
ATOM      4  C   UNL     1      45.935   5.042  13.106  0.00  0.00    +0.000 A 
ATOM      5  C   UNL     1      45.741   5.758  11.915  0.00  0.00    +0.000 A 
ATOM      6  C   UNL     1      46.631   6.785  11.577  0.00  0.00    +0.000 A 
ATOM      7  C   UNL     1      47.665   7.127  12.445  0.00  0.00    +0.000 A 
BRANCH   5   8
ATOM      8  C   UNL     1      44.555   5.448  11.032  0.00  0.00    +0.000 C 
BRANCH   8   9
ATOM      9  N   UNL     1      44.567   4.051  10.546  0.00  0.00    +0.000 NA
ATOM     10  C   UNL     1      43.544   3.242  11.215  0.00  0.00    +0.000 C 
BRANCH   9  11
ATOM     11  C   UNL     1      44.356   4.009   9.085  0.00  0.00    +0.000 C 
BRANCH  11  12
ATOM     12  C   UNL     1      45.397   3.194   8.352  0.00  0.00    +0.000 A 
ATOM     13  C   UNL     1      45.553   1.837   8.624  0.00  0.00    +0.000 A 
ATOM     14  N   UNL     1      46.524   1.081   8.061  0.00  0.00    +0.000 NA
ATOM     15  C   UNL     1      47.350   1.738   7.219  0.00  0.00    +0.000 A 
ATOM     16  C   UNL     1      47.202   3.083   6.936  0.00  0.00    +0.000 A 
ATOM     17  N   UNL     1      46.227   3.840   7.488  0.00  0.00    +0.000 NA
ENDBRANCH  11  12
ENDBRANCH   9  11
ENDBRANCH   8   9
ENDBRANCH   5   8
ENDBRANCH   1   2
BRANCH   1  18
ATOM     18  N   UNL     1      48.276   7.452  15.849  0.00  0.00    +0.000 NA
ATOM     19  H   UNL     1      47.284   7.214  15.851  0.00  0.00    +0.000 HD
BRANCH  18  20
ATOM     20  C   UNL     1      48.870   7.019  17.119  0.00  0.00    +0.000 C 
BRANCH  20  21
ATOM     21  C   UNL     1      48.841   5.501  17.210  0.00  0.00    +0.000 A 
ATOM     22  C   UNL     1      47.687   4.734  17.164  0.00  0.00    +0.000 A 
ATOM     23  S   UNL     1      47.951   3.075  17.448  0.00  0.00    +0.000 S 
ATOM     24  C   UNL     1      49.635   3.301  17.533  0.00  0.00    +0.000 A 
ATOM     25  N   UNL     1      50.465   2.244  17.747  0.00  0.00    +0.000 NA
ATOM     26  C   UNL     1      51.720   2.541  17.712  0.00  0.00    +0.000 A 
ATOM     27  N   UNL     1      52.220   3.799  17.490  0.00  0.00    +0.000 N 
ATOM     28  C   UNL     1      51.416   4.914  17.321  0.00  0.00    +0.000 A 
ATOM     29  O   UNL     1      51.916   6.025  17.176  0.00  0.00    +0.000 OA
ATOM     30  C   UNL     1      49.988   4.626  17.342  0.00  0.00    +0.000 A 
ATOM     31  H   UNL     1      53.215   3.959  17.456  0.00  0.00    +0.000 HD
ENDBRANCH  20  21
BRANCH  20  33
ATOM     32  C   UNL     1      49.131   8.841  18.938  0.00  0.00    +0.000 C 
ATOM     33  C   UNL     1      48.239   7.779  18.314  0.00  0.00    +0.000 C 
ENDBRANCH  20  33
ENDBRANCH  18  20
ENDBRANCH   1  18
TORSDOF 9
ENDMDL
MODEL 5
REMARK VINA RESULT:    -7.263      2.196      2.956
REMARK INTER + INTRA:         -11.978
REMARK INTER:                 -10.934
REMARK INTRA:                  -1.045
REMARK UNBOUND:                -0.894
REMARK  Name = 
REMARK  11 active torsions:
REMARK  status: ('A' for Active; 'I' for Inactive)
REMARK    1  A    between atoms: C_1  and  C_2
REMARK    2  A    between atoms: C_2  and  C_3
REMARK    3  A    between atoms: C_3  and  N_4
REMARK    4  A    between atoms: C_3  and  C_22
REMARK    5  A    between atoms: N_4  and  C_5
REMARK    6  A    between atoms: C_5  and  C_6
REMARK    7  A    between atoms: C_9  and  C_10
REMARK    8  A    between atoms: C_10  and  N_11
REMARK    9  A    between atoms: N_11  and  C_12
REMARK   10  A    between atoms: N_11  and  C_13
REMARK   11  A    between atoms: C_13  and  C_14
REMARK                            x       y       z     vdW  Elec       q    Type
REMARK                         _______ _______ _______ _____ _____    ______ ____
ROOT
ATOM      1  C   UNL     1      48.828   6.832  14.466  0.00  0.00    +0.000 C 
ENDROOT
BRANCH   1   2
ATOM      2  C   UNL     1      47.783   6.292  13.521  0.00  0.00    +0.000 A 
ATOM      3  C   UNL     1      47.012   5.181  13.885  0.00  0.00    +0.000 A 
ATOM      4  C   UNL     1      45.990   4.733  13.056  0.00  0.00    +0.000 A 
ATOM      5  C   UNL     1      45.705   5.405  11.857  0.00  0.00    +0.000 A 
ATOM      6  C   UNL     1      46.501   6.489  11.471  0.00  0.00    +0.000 A 
ATOM      7  C   UNL     1      47.531   6.931  12.299  0.00  0.00    +0.000 A 
BRANCH   5   8
ATOM      8  C   UNL     1      44.520   4.984  11.018  0.00  0.00    +0.000 C 
BRANCH   8   9
ATOM      9  N   UNL     1      44.645   3.594  10.529  0.00  0.00    +0.000 NA
ATOM     10  C   UNL     1      43.648   2.717  11.151  0.00  0.00    +0.000 C 
BRANCH   9  11
ATOM     11  C   UNL     1      44.500   3.547   9.060  0.00  0.00    +0.000 C 
BRANCH  11  12
ATOM     12  C   UNL     1      45.638   2.828   8.369  0.00  0.00    +0.000 A 
ATOM     13  C   UNL     1      46.508   3.522   7.533  0.00  0.00    +0.000 A 
ATOM     14  N   UNL     1      47.487   2.915   6.824  0.00  0.00    +0.000 NA
ATOM     15  C   UNL     1      47.558   1.574   6.972  0.00  0.00    +0.000 A 
ATOM     16  C   UNL     1      46.705   0.875   7.804  0.00  0.00    +0.000 A 
ATOM     17  N   UNL     1      45.731   1.479   8.522  0.00  0.00    +0.000 NA
ENDBRANCH  11  12
ENDBRANCH   9  11
ENDBRANCH   8   9
ENDBRANCH   5   8
ENDBRANCH   1   2
BRANCH   1  18
ATOM     18  N   UNL     1      48.843   6.083  15.720  0.00  0.00    +0.000 NA
ATOM     19  H   UNL     1      48.686   5.099  15.508  0.00  0.00    +0.000 HD
BRANCH  18  20
ATOM     20  C   UNL     1      50.073   6.207  16.512  0.00  0.00    +0.000 C 
BRANCH  20  21
ATOM     21  C   UNL     1      49.733   6.676  17.918  0.00  0.00    +0.000 A 
ATOM     22  C   UNL     1      49.783   7.996  18.338  0.00  0.00    +0.000 A 
ATOM     23  S   UNL     1      49.503   8.199  20.006  0.00  0.00    +0.000 S 
ATOM     24  C   UNL     1      49.193   6.539  20.213  0.00  0.00    +0.000 A 
ATOM     25  N   UNL     1      48.868   6.043  21.437  0.00  0.00    +0.000 NA
ATOM     26  C   UNL     1      48.583   4.785  21.439  0.00  0.00    +0.000 A 
ATOM     27  N   UNL     1      48.601   3.976  20.331  0.00  0.00    +0.000 N 
ATOM     28  C   UNL     1      48.978   4.422  19.076  0.00  0.00    +0.000 A 
ATOM     29  O   UNL     1      49.026   3.646  18.128  0.00  0.00    +0.000 OA
ATOM     30  C   UNL     1      49.299   5.842  19.021  0.00  0.00    +0.000 A 
ATOM     31  H   UNL     1      48.349   3.002  20.400  0.00  0.00    +0.000 HD
ENDBRANCH  20  21
BRANCH  20  33
ATOM     32  C   UNL     1      52.567   6.840  16.235  0.00  0.00    +0.000 C 
ATOM     33  C   UNL     1      51.137   7.046  15.759  0.00  0.00    +0.000 C 
ENDBRANCH  20  33
ENDBRANCH  18  20
ENDBRANCH   1  18
TORSDOF 9
ENDMDL
MODEL 6
REMARK VINA RESULT:    -7.203      2.599      3.763
REMARK INTER + INTRA:         -11.887
REMARK INTER:                 -10.367
REMARK INTRA:                  -1.520
REMARK UNBOUND:                -0.894
REMARK  Name = 
REMARK  11 active torsions:
REMARK  status: ('A' for Active; 'I' for Inactive)
REMARK    1  A    between atoms: C_1  and  C_2
REMARK    2  A    between atoms: C_2  and  C_3
REMARK    3  A    between atoms: C_3  and  N_4
REMARK    4  A    between atoms: C_3  and  C_22
REMARK    5  A    between atoms: N_4  and  C_5
REMARK    6  A    between atoms: C_5  and  C_6
REMARK    7  A    between atoms: C_9  and  C_10
REMARK    8  A    between atoms: C_10  and  N_11
REMARK    9  A    between atoms: N_11  and  C_12
REMARK   10  A    between atoms: N_11  and  C_13
REMARK   11  A    between atoms: C_13  and  C_14
REMARK                            x       y       z     vdW  Elec       q    Type
REMARK                         _______ _______ _______ _____ _____    ______ ____
ROOT
ATOM      1  C   UNL     1      49.356   7.733  13.239  0.00  0.00    +0.000 C 
ENDROOT
BRANCH   1   2
ATOM      2  C   UNL     1      47.981   7.189  12.937  0.00  0.00    +0.000 A 
ATOM      3  C   UNL     1      47.073   7.948  12.190  0.00  0.00    +0.000 A 
ATOM      4  C   UNL     1      45.838   7.417  11.835  0.00  0.00    +0.000 A 
ATOM      5  C   UNL     1      45.500   6.105  12.200  0.00  0.00    +0.000 A 
ATOM      6  C   UNL     1      46.389   5.358  12.983  0.00  0.00    +0.000 A 
ATOM      7  C   UNL     1      47.622   5.896  13.346  0.00  0.00    +0.000 A 
BRANCH   5   8
ATOM      8  C   UNL     1      44.207   5.494  11.714  0.00  0.00    +0.000 C 
BRANCH   8   9
ATOM      9  N   UNL     1      44.389   4.109  11.226  0.00  0.00    +0.000 NA
ATOM     10  C   UNL     1      43.687   3.145  12.078  0.00  0.00    +0.000 C 
BRANCH   9  11
ATOM     11  C   UNL     1      43.911   3.983   9.835  0.00  0.00    +0.000 C 
BRANCH  11  12
ATOM     12  C   UNL     1      44.945   3.404   8.895  0.00  0.00    +0.000 A 
ATOM     13  C   UNL     1      45.263   2.050   8.941  0.00  0.00    +0.000 A 
ATOM     14  N   UNL     1      46.240   1.497   8.185  0.00  0.00    +0.000 NA
ATOM     15  C   UNL     1      46.904   2.358   7.383  0.00  0.00    +0.000 A 
ATOM     16  C   UNL     1      46.593   3.704   7.324  0.00  0.00    +0.000 A 
ATOM     17  N   UNL     1      45.611   4.258   8.071  0.00  0.00    +0.000 NA
ENDBRANCH  11  12
ENDBRANCH   9  11
ENDBRANCH   8   9
ENDBRANCH   5   8
ENDBRANCH   1   2
BRANCH   1  18
ATOM     18  N   UNL     1      50.044   6.909  14.228  0.00  0.00    +0.000 NA
ATOM     19  H   UNL     1      50.738   6.339  13.745  0.00  0.00    +0.000 HD
BRANCH  18  20
ATOM     20  C   UNL     1      50.707   7.645  15.311  0.00  0.00    +0.000 C 
BRANCH  20  21
ATOM     21  C   UNL     1      49.681   8.064  16.352  0.00  0.00    +0.000 A 
ATOM     22  C   UNL     1      49.332   9.377  16.626  0.00  0.00    +0.000 A 
ATOM     23  S   UNL     1      48.273   9.545  17.950  0.00  0.00    +0.000 S 
ATOM     24  C   UNL     1      48.152   7.859  18.139  0.00  0.00    +0.000 A 
ATOM     25  N   UNL     1      47.366   7.327  19.115  0.00  0.00    +0.000 NA
ATOM     26  C   UNL     1      47.303   6.039  19.099  0.00  0.00    +0.000 A 
ATOM     27  N   UNL     1      47.960   5.234  18.203  0.00  0.00    +0.000 N 
ATOM     28  C   UNL     1      48.812   5.725  17.229  0.00  0.00    +0.000 A 
ATOM     29  O   UNL     1      49.415   4.959  16.484  0.00  0.00    +0.000 OA
ATOM     30  C   UNL     1      48.908   7.179  17.200  0.00  0.00    +0.000 A 
ATOM     31  H   UNL     1      47.852   4.232  18.235  0.00  0.00    +0.000 HD
ENDBRANCH  20  21
BRANCH  20  33
ATOM     32  C   UNL     1      52.961   8.337  14.243  0.00  0.00    +0.000 C 
ATOM     33  C   UNL     1      51.597   8.783  14.745  0.00  0.00    +0.000 C 
ENDBRANCH  20  33
ENDBRANCH  18  20
ENDBRANCH   1  18
TORSDOF 9
ENDMDL
MODEL 7
REMARK VINA RESULT:    -6.767      2.352      3.377
REMARK INTER + INTRA:         -11.221
REMARK INTER:                  -9.776
REMARK INTRA:                  -1.445
REMARK UNBOUND:                -0.894
REMARK  Name = 
REMARK  11 active torsions:
REMARK  status: ('A' for Active; 'I' for Inactive)
REMARK    1  A    between atoms: C_1  and  C_2
REMARK    2  A    between atoms: C_2  and  C_3
REMARK    3  A    between atoms: C_3  and  N_4
REMARK    4  A    between atoms: C_3  and  C_22
REMARK    5  A    between atoms: N_4  and  C_5
REMARK    6  A    between atoms: C_5  and  C_6
REMARK    7  A    between atoms: C_9  and  C_10
REMARK    8  A    between atoms: C_10  and  N_11
REMARK    9  A    between atoms: N_11  and  C_12
REMARK   10  A    between atoms: N_11  and  C_13
REMARK   11  A    between atoms: C_13  and  C_14
REMARK                            x       y       z     vdW  Elec       q    Type
REMARK                         _______ _______ _______ _____ _____    ______ ____
ROOT
ATOM      1  C   UNL     1      50.148   7.767  13.671  0.00  0.00    +0.000 C 
ENDROOT
BRANCH   1   2
ATOM      2  C   UNL     1      48.860   7.167  13.164  0.00  0.00    +0.000 A 
ATOM      3  C   UNL     1      48.070   6.379  14.010  0.00  0.00    +0.000 A 
ATOM      4  C   UNL     1      46.841   5.896  13.575  0.00  0.00    +0.000 A 
ATOM      5  C   UNL     1      46.369   6.213  12.292  0.00  0.00    +0.000 A 
ATOM      6  C   UNL     1      47.175   6.965  11.429  0.00  0.00    +0.000 A 
ATOM      7  C   UNL     1      48.411   7.440  11.864  0.00  0.00    +0.000 A 
BRANCH   5   8
ATOM      8  C   UNL     1      44.984   5.783  11.868  0.00  0.00    +0.000 C 
BRANCH   8   9
ATOM      9  N   UNL     1      44.949   4.375  11.413  0.00  0.00    +0.000 NA
ATOM     10  C   UNL     1      44.260   3.517  12.382  0.00  0.00    +0.000 C 
BRANCH   9  11
ATOM     11  C   UNL     1      44.285   4.273  10.099  0.00  0.00    +0.000 C 
BRANCH  11  12
ATOM     12  C   UNL     1      45.140   3.603   9.046  0.00  0.00    +0.000 A 
ATOM     13  C   UNL     1      45.323   2.223   9.057  0.00  0.00    +0.000 A 
ATOM     14  N   UNL     1      46.145   1.583   8.193  0.00  0.00    +0.000 NA
ATOM     15  C   UNL     1      46.795   2.381   7.318  0.00  0.00    +0.000 A 
ATOM     16  C   UNL     1      46.616   3.751   7.293  0.00  0.00    +0.000 A 
ATOM     17  N   UNL     1      45.788   4.394   8.148  0.00  0.00    +0.000 NA
ENDBRANCH  11  12
ENDBRANCH   9  11
ENDBRANCH   8   9
ENDBRANCH   5   8
ENDBRANCH   1   2
BRANCH   1  18
ATOM     18  N   UNL     1      50.035   8.153  15.074  0.00  0.00    +0.000 NA
ATOM     19  H   UNL     1      49.157   7.783  15.439  0.00  0.00    +0.000 HD
BRANCH  18  20
ATOM     20  C   UNL     1      51.132   7.709  15.941  0.00  0.00    +0.000 C 
BRANCH  20  21
ATOM     21  C   UNL     1      50.656   6.575  16.835  0.00  0.00    +0.000 A 
ATOM     22  C   UNL     1      51.364   5.407  17.066  0.00  0.00    +0.000 A 
ATOM     23  S   UNL     1      50.510   4.253  17.984  0.00  0.00    +0.000 S 
ATOM     24  C   UNL     1      49.201   5.316  18.204  0.00  0.00    +0.000 A 
ATOM     25  N   UNL     1      48.115   4.936  18.931  0.00  0.00    +0.000 NA
ATOM     26  C   UNL     1      47.231   5.862  19.085  0.00  0.00    +0.000 A 
ATOM     27  N   UNL     1      47.328   7.130  18.571  0.00  0.00    +0.000 N 
ATOM     28  C   UNL     1      48.385   7.546  17.779  0.00  0.00    +0.000 A 
ATOM     29  O   UNL     1      48.399   8.676  17.303  0.00  0.00    +0.000 OA
ATOM     30  C   UNL     1      49.417   6.536  17.587  0.00  0.00    +0.000 A 
ATOM     31  H   UNL     1      46.606   7.813  18.745  0.00  0.00    +0.000 HD
ENDBRANCH  20  21
BRANCH  20  33
ATOM     32  C   UNL     1      51.239  10.273  16.272  0.00  0.00    +0.000 C 
ATOM     33  C   UNL     1      51.788   8.911  16.668  0.00  0.00    +0.000 C 
ENDBRANCH  20  33
ENDBRANCH  18  20
ENDBRANCH   1  18
TORSDOF 9
ENDMDL
MODEL 8
REMARK VINA RESULT:    -6.741      1.974      2.678
REMARK INTER + INTRA:         -11.183
REMARK INTER:                 -10.535
REMARK INTRA:                  -0.647
REMARK UNBOUND:                -0.894
REMARK  Name = 
REMARK  11 active torsions:
REMARK  status: ('A' for Active; 'I' for Inactive)
REMARK    1  A    between atoms: C_1  and  C_2
REMARK    2  A    between atoms: C_2  and  C_3
REMARK    3  A    between atoms: C_3  and  N_4
REMARK    4  A    between atoms: C_3  and  C_22
REMARK    5  A    between atoms: N_4  and  C_5
REMARK    6  A    between atoms: C_5  and  C_6
REMARK    7  A    between atoms: C_9  and  C_10
REMARK    8  A    between atoms: C_10  and  N_11
REMARK    9  A    between atoms: N_11  and  C_12
REMARK   10  A    between atoms: N_11  and  C_13
REMARK   11  A    between atoms: C_13  and  C_14
REMARK                            x       y       z     vdW  Elec       q    Type
REMARK                         _______ _______ _______ _____ _____    ______ ____
ROOT
ATOM      1  C   UNL     1      48.515   6.340  14.782  0.00  0.00    +0.000 C 
ENDROOT
BRANCH   1   2
ATOM      2  C   UNL     1      47.441   6.012  13.774  0.00  0.00    +0.000 A 
ATOM      3  C   UNL     1      47.351   6.739  12.581  0.00  0.00    +0.000 A 
ATOM      4  C   UNL     1      46.419   6.385  11.612  0.00  0.00    +0.000 A 
ATOM      5  C   UNL     1      45.577   5.281  11.809  0.00  0.00    +0.000 A 
ATOM      6  C   UNL     1      45.636   4.578  13.018  0.00  0.00    +0.000 A 
ATOM      7  C   UNL     1      46.564   4.941  13.993  0.00  0.00    +0.000 A 
BRANCH   5   8
ATOM      8  C   UNL     1      44.648   4.832  10.705  0.00  0.00    +0.000 C 
BRANCH   8   9
ATOM      9  N   UNL     1      44.602   3.359  10.575  0.00  0.00    +0.000 NA
ATOM     10  C   UNL     1      43.580   2.777  11.450  0.00  0.00    +0.000 C 
BRANCH   9  11
ATOM     11  C   UNL     1      44.338   2.971   9.175  0.00  0.00    +0.000 C 
BRANCH  11  12
ATOM     12  C   UNL     1      45.581   2.548   8.426  0.00  0.00    +0.000 A 
ATOM     13  C   UNL     1      46.308   3.474   7.683  0.00  0.00    +0.000 A 
ATOM     14  N   UNL     1      47.376   3.133   6.925  0.00  0.00    +0.000 NA
ATOM     15  C   UNL     1      47.688   1.818   6.927  0.00  0.00    +0.000 A 
ATOM     16  C   UNL     1      46.978   0.891   7.666  0.00  0.00    +0.000 A 
ATOM     17  N   UNL     1      45.916   1.229   8.431  0.00  0.00    +0.000 NA
ENDBRANCH  11  12
ENDBRANCH   9  11
ENDBRANCH   8   9
ENDBRANCH   5   8
ENDBRANCH   1   2
BRANCH   1  18
ATOM     18  N   UNL     1      48.089   6.001  16.137  0.00  0.00    +0.000 NA
ATOM     19  H   UNL     1      48.042   4.986  16.214  0.00  0.00    +0.000 HD
BRANCH  18  20
ATOM     20  C   UNL     1      48.941   6.519  17.214  0.00  0.00    +0.000 C 
BRANCH  20  21
ATOM     21  C   UNL     1      50.189   5.659  17.341  0.00  0.00    +0.000 A 
ATOM     22  C   UNL     1      50.216   4.392  17.901  0.00  0.00    +0.000 A 
ATOM     23  S   UNL     1      51.782   3.737  18.048  0.00  0.00    +0.000 S 
ATOM     24  C   UNL     1      52.477   5.078  17.266  0.00  0.00    +0.000 A 
ATOM     25  N   UNL     1      53.820   5.136  17.055  0.00  0.00    +0.000 NA
ATOM     26  C   UNL     1      54.205   6.168  16.383  0.00  0.00    +0.000 A 
ATOM     27  N   UNL     1      53.372   7.150  15.912  0.00  0.00    +0.000 N 
ATOM     28  C   UNL     1      52.008   7.163  16.148  0.00  0.00    +0.000 A 
ATOM     29  O   UNL     1      51.315   8.092  15.746  0.00  0.00    +0.000 OA
ATOM     30  C   UNL     1      51.523   6.010  16.894  0.00  0.00    +0.000 A 
ATOM     31  H   UNL     1      53.738   7.923  15.376  0.00  0.00    +0.000 HD
ENDBRANCH  20  21
BRANCH  20  33
ATOM     32  C   UNL     1      46.984   5.738  18.717  0.00  0.00    +0.000 C 
ATOM     33  C   UNL     1      48.127   6.721  18.518  0.00  0.00    +0.000 C 
ENDBRANCH  20  33
ENDBRANCH  18  20
ENDBRANCH   1  18
TORSDOF 9
ENDMDL
MODEL 9
REMARK VINA RESULT:    -6.674      2.562      3.850
REMARK INTER + INTRA:         -11.080
REMARK INTER:                  -9.374
REMARK INTRA:                  -1.705
REMARK UNBOUND:                -0.894
REMARK  Name = 
REMARK  11 active torsions:
REMARK  status: ('A' for Active; 'I' for Inactive)
REMARK    1  A    between atoms: C_1  and  C_2
REMARK    2  A    between atoms: C_2  and  C_3
REMARK    3  A    between atoms: C_3  and  N_4
REMARK    4  A    between atoms: C_3  and  C_22
REMARK    5  A    between atoms: N_4  and  C_5
REMARK    6  A    between atoms: C_5  and  C_6
REMARK    7  A    between atoms: C_9  and  C_10
REMARK    8  A    between atoms: C_10  and  N_11
REMARK    9  A    between atoms: N_11  and  C_12
REMARK   10  A    between atoms: N_11  and  C_13
REMARK   11  A    between atoms: C_13  and  C_14
REMARK                            x       y       z     vdW  Elec       q    Type
REMARK                         _______ _______ _______ _____ _____    ______ ____
ROOT
ATOM      1  C   UNL     1      49.613   8.028  17.938  0.00  0.00    +0.000 C 
ENDROOT
BRANCH   1   2
ATOM      2  C   UNL     1      49.193   8.034  16.489  0.00  0.00    +0.000 A 
ATOM      3  C   UNL     1      49.489   6.940  15.666  0.00  0.00    +0.000 A 
ATOM      4  C   UNL     1      49.030   6.904  14.354  0.00  0.00    +0.000 A 
ATOM      5  C   UNL     1      48.244   7.951  13.850  0.00  0.00    +0.000 A 
ATOM      6  C   UNL     1      47.983   9.065  14.656  0.00  0.00    +0.000 A 
ATOM      7  C   UNL     1      48.452   9.104  15.967  0.00  0.00    +0.000 A 
BRANCH   5   8
ATOM      8  C   UNL     1      47.652   7.851  12.463  0.00  0.00    +0.000 C 
BRANCH   8   9
ATOM      9  N   UNL     1      46.326   7.194  12.465  0.00  0.00    +0.000 NA
ATOM     10  C   UNL     1      45.246   8.170  12.292  0.00  0.00    +0.000 C 
BRANCH   9  11
ATOM     11  C   UNL     1      46.252   6.176  11.398  0.00  0.00    +0.000 C 
BRANCH  11  12
ATOM     12  C   UNL     1      45.201   5.118  11.653  0.00  0.00    +0.000 A 
ATOM     13  C   UNL     1      44.994   4.623  12.938  0.00  0.00    +0.000 A 
ATOM     14  N   UNL     1      44.130   3.617  13.208  0.00  0.00    +0.000 NA
ATOM     15  C   UNL     1      43.484   3.109  12.135  0.00  0.00    +0.000 A 
ATOM     16  C   UNL     1      43.676   3.597  10.857  0.00  0.00    +0.000 A 
ATOM     17  N   UNL     1      44.531   4.609  10.584  0.00  0.00    +0.000 NA
ENDBRANCH  11  12
ENDBRANCH   9  11
ENDBRANCH   8   9
ENDBRANCH   5   8
ENDBRANCH   1   2
BRANCH   1  18
ATOM     18  N   UNL     1      48.664   7.282  18.759  0.00  0.00    +0.000 NA
ATOM     19  H   UNL     1      48.033   6.775  18.140  0.00  0.00    +0.000 HD
BRANCH  18  20
ATOM     20  C   UNL     1      49.261   6.333  19.707  0.00  0.00    +0.000 C 
BRANCH  20  21
ATOM     21  C   UNL     1      49.779   5.115  18.958  0.00  0.00    +0.000 A 
ATOM     22  C   UNL     1      51.083   4.651  19.023  0.00  0.00    +0.000 A 
ATOM     23  S   UNL     1      51.410   3.364  17.955  0.00  0.00    +0.000 S 
ATOM     24  C   UNL     1      49.789   3.303  17.443  0.00  0.00    +0.000 A 
ATOM     25  N   UNL     1      49.388   2.386  16.522  0.00  0.00    +0.000 NA
ATOM     26  C   UNL     1      48.120   2.398  16.281  0.00  0.00    +0.000 A 
ATOM     27  N   UNL     1      47.220   3.248  16.870  0.00  0.00    +0.000 N 
ATOM     28  C   UNL     1      47.587   4.233  17.771  0.00  0.00    +0.000 A 
ATOM     29  O   UNL     1      46.748   5.000  18.231  0.00  0.00    +0.000 OA
ATOM     30  C   UNL     1      49.010   4.252  18.084  0.00  0.00    +0.000 A 
ATOM     31  H   UNL     1      46.237   3.191  16.649  0.00  0.00    +0.000 HD
ENDBRANCH  20  21
BRANCH  20  33
ATOM     32  C   UNL     1      47.445   7.223  21.322  0.00  0.00    +0.000 C 
ATOM     33  C   UNL     1      48.293   6.040  20.883  0.00  0.00    +0.000 C 
ENDBRANCH  20  33
ENDBRANCH  18  20
ENDBRANCH   1  18
TORSDOF 9
ENDMDL
