MODEL 1
REMARK VINA RESULT:    -7.680      0.000      0.000
REMARK INTER + INTRA:         -10.047
REMARK INTER:                  -9.476
REMARK INTRA:                  -0.571
REMARK UNBOUND:                -0.571
REMARK  Name = 
REMARK  4 active torsions:
REMARK  status: ('A' for Active; 'I' for Inactive)
REMARK    1  A    between atoms: C_4  and  O_5
REMARK    2  A    between atoms: O_5  and  C_6
REMARK    3  A    between atoms: C_6  and  C_7
REMARK    4  A    between atoms: C_11  and  N_12
REMARK                            x       y       z     vdW  Elec       q    Type
REMARK                         _______ _______ _______ _____ _____    ______ ____
ROOT
ATOM      1  C   UNL     1      44.192   4.699  10.546  0.00  0.00    +0.000 A 
ATOM      2  C   UNL     1      42.946   4.778  11.174  0.00  0.00    +0.000 A 
ATOM      3  C   UNL     1      42.866   5.108  12.523  0.00  0.00    +0.000 A 
ATOM      4  C   UNL     1      44.031   5.357  13.253  0.00  0.00    +0.000 A 
ATOM      5  C   UNL     1      45.300   5.286  12.661  0.00  0.00    +0.000 A 
ATOM      6  C   UNL     1      45.351   4.980  11.292  0.00  0.00    +0.000 A 
ENDROOT
BRANCH   5   7
ATOM      7  N   UNL     1      46.437   5.410  13.439  0.00  0.00    +0.000 N 
ATOM      8  C   UNL     1      46.866   4.316  14.317  0.00  0.00    +0.000 C 
ATOM      9  C   UNL     1      47.577   4.914  15.554  0.00  0.00    +0.000 C 
ATOM     10  N   UNL     1      48.722   5.787  15.212  0.00  0.00    +0.000 NA
ATOM     11  C   UNL     1      48.255   6.847  14.286  0.00  0.00    +0.000 C 
ATOM     12  C   UNL     1      47.518   6.319  13.030  0.00  0.00    +0.000 C 
ATOM     13  H   UNL     1      49.410   5.220  14.718  0.00  0.00    +0.000 HD
ENDBRANCH   5   7
BRANCH   1  14
ATOM     14  C   UNL     1      44.296   4.275   9.101  0.00  0.00    +0.000 C 
BRANCH  14  15
ATOM     15  O   UNL     1      44.562   2.878   9.024  0.00  0.00    +0.000 OA
BRANCH  15  19
ATOM     16  C   UNL     1      47.591   1.968   6.305  0.00  0.00    +0.000 A 
ATOM     17  C   UNL     1      47.206   0.989   7.216  0.00  0.00    +0.000 A 
ATOM     18  C   UNL     1      46.197   1.251   8.147  0.00  0.00    +0.000 A 
ATOM     19  C   UNL     1      45.566   2.498   8.171  0.00  0.00    +0.000 A 
ATOM     20  C   UNL     1      45.959   3.475   7.253  0.00  0.00    +0.000 A 
ATOM     21  C   UNL     1      46.969   3.213   6.323  0.00  0.00    +0.000 A 
ENDBRANCH  15  19
ENDBRANCH  14  15
ENDBRANCH   1  14
TORSDOF 4
ENDMDL
MODEL 2
REMARK VINA RESULT:    -7.528      2.098      2.988
REMARK INTER + INTRA:          -9.859
REMARK INTER:                  -9.217
REMARK INTRA:                  -0.642
REMARK UNBOUND:                -0.571
REMARK  Name = 
REMARK  4 active torsions:
REMARK  status: ('A' for Active; 'I' for Inactive)
REMARK    1  A    between atoms: C_4  and  O_5
REMARK    2  A    between atoms: O_5  and  C_6
REMARK    3  A    between atoms: C_6  and  C_7
REMARK    4  A    between atoms: C_11  and  N_12
REMARK                            x       y       z     vdW  Elec       q    Type
REMARK                         _______ _______ _______ _____ _____    ______ ____
ROOT
ATOM      1  C   UNL     1      44.816   3.985  11.095  0.00  0.00    +0.000 A 
ATOM      2  C   UNL     1      45.364   3.248  12.148  0.00  0.00    +0.000 A 
ATOM      3  C   UNL     1      46.007   3.902  13.195  0.00  0.00    +0.000 A 
ATOM      4  C   UNL     1      46.107   5.296  13.193  0.00  0.00    +0.000 A 
ATOM      5  C   UNL     1      45.572   6.071  12.154  0.00  0.00    +0.000 A 
ATOM      6  C   UNL     1      44.904   5.388  11.126  0.00  0.00    +0.000 A 
ENDROOT
BRANCH   5   7
ATOM      7  N   UNL     1      45.802   7.434  12.116  0.00  0.00    +0.000 N 
ATOM      8  C   UNL     1      47.169   7.965  12.165  0.00  0.00    +0.000 C 
ATOM      9  C   UNL     1      47.148   9.341  12.872  0.00  0.00    +0.000 C 
ATOM     10  N   UNL     1      46.232  10.317  12.238  0.00  0.00    +0.000 NA
ATOM     11  C   UNL     1      44.876   9.721  12.164  0.00  0.00    +0.000 C 
ATOM     12  C   UNL     1      44.825   8.332  11.482  0.00  0.00    +0.000 C 
ATOM     13  H   UNL     1      46.557  10.475  11.285  0.00  0.00    +0.000 HD
ENDBRANCH   5   7
BRANCH   1  14
ATOM     14  C   UNL     1      44.178   3.283   9.921  0.00  0.00    +0.000 C 
BRANCH  14  15
ATOM     15  O   UNL     1      44.980   2.174   9.524  0.00  0.00    +0.000 OA
BRANCH  15  19
ATOM     16  C   UNL     1      47.353   2.428   6.104  0.00  0.00    +0.000 A 
ATOM     17  C   UNL     1      46.596   3.539   6.466  0.00  0.00    +0.000 A 
ATOM     18  C   UNL     1      45.785   3.498   7.604  0.00  0.00    +0.000 A 
ATOM     19  C   UNL     1      45.726   2.342   8.386  0.00  0.00    +0.000 A 
ATOM     20  C   UNL     1      46.488   1.231   8.014  0.00  0.00    +0.000 A 
ATOM     21  C   UNL     1      47.298   1.273   6.876  0.00  0.00    +0.000 A 
ENDBRANCH  15  19
ENDBRANCH  14  15
ENDBRANCH   1  14
TORSDOF 4
ENDMDL
MODEL 3
REMARK VINA RESULT:    -7.321      1.191      1.805
REMARK INTER + INTRA:          -9.604
REMARK INTER:                  -8.890
REMARK INTRA:                  -0.714
REMARK UNBOUND:                -0.571
REMARK  Name = 
REMARK  4 active torsions:
REMARK  status: ('A' for Active; 'I' for Inactive)
REMARK    1  A    between atoms: C_4  and  O_5
REMARK    2  A    between atoms: O_5  and  C_6
REMARK    3  A    between atoms: C_6  and  C_7
REMARK    4  A    between atoms: C_11  and  N_12
REMARK                            x       y       z     vdW  Elec       q    Type
REMARK                         _______ _______ _______ _____ _____    ______ ____
ROOT
ATOM      1  C   UNL     1      44.570   5.160  11.232  0.00  0.00    +0.000 A 
ATOM      2  C   UNL     1      44.210   6.496  11.040  0.00  0.00    +0.000 A 
ATOM      3  C   UNL     1      44.807   7.495  11.803  0.00  0.00    +0.000 A 
ATOM      4  C   UNL     1      45.766   7.162  12.763  0.00  0.00    +0.000 A 
ATOM      5  C   UNL     1      46.154   5.834  12.988  0.00  0.00    +0.000 A 
ATOM      6  C   UNL     1      45.557   4.849  12.185  0.00  0.00    +0.000 A 
ENDROOT
BRANCH   5   7
ATOM      7  N   UNL     1      47.006   5.526  14.033  0.00  0.00    +0.000 N 
ATOM      8  C   UNL     1      47.058   4.167  14.582  0.00  0.00    +0.000 C 
ATOM      9  C   UNL     1      47.405   4.246  16.087  0.00  0.00    +0.000 C 
ATOM     10  N   UNL     1      48.667   4.968  16.366  0.00  0.00    +0.000 NA
ATOM     11  C   UNL     1      48.591   6.317  15.752  0.00  0.00    +0.000 C 
ATOM     12  C   UNL     1      48.230   6.313  14.245  0.00  0.00    +0.000 C 
ATOM     13  H   UNL     1      49.424   4.460  15.911  0.00  0.00    +0.000 HD
ENDBRANCH   5   7
BRANCH   1  14
ATOM     14  C   UNL     1      43.880   4.062  10.460  0.00  0.00    +0.000 C 
BRANCH  14  15
ATOM     15  O   UNL     1      44.067   4.261   9.061  0.00  0.00    +0.000 OA
BRANCH  15  19
ATOM     16  C   UNL     1      47.016   1.814   7.415  0.00  0.00    +0.000 A 
ATOM     17  C   UNL     1      47.007   3.163   7.068  0.00  0.00    +0.000 A 
ATOM     18  C   UNL     1      46.036   4.019   7.595  0.00  0.00    +0.000 A 
ATOM     19  C   UNL     1      45.065   3.529   8.473  0.00  0.00    +0.000 A 
ATOM     20  C   UNL     1      45.081   2.174   8.814  0.00  0.00    +0.000 A 
ATOM     21  C   UNL     1      46.052   1.318   8.287  0.00  0.00    +0.000 A 
ENDBRANCH  15  19
ENDBRANCH  14  15
ENDBRANCH   1  14
TORSDOF 4
ENDMDL
MODEL 4
REMARK VINA RESULT:    -6.996      1.716      2.382
REMARK INTER + INTRA:          -9.203
REMARK INTER:                  -8.593
REMARK INTRA:                  -0.610
REMARK UNBOUND:                -0.571
REMARK  Name = 
REMARK  4 active torsions:
REMARK  status: ('A' for Active; 'I' for Inactive)
REMARK    1  A    between atoms: C_4  and  O_5
REMARK    2  A    between atoms: O_5  and  C_6
REMARK    3  A    between atoms: C_6  and  C_7
REMARK    4  A    between atoms: C_11  and  N_12
REMARK                            x       y       z     vdW  Elec       q    Type
REMARK                         _______ _______ _______ _____ _____    ______ ____
ROOT
ATOM      1  C   UNL     1      45.055   4.803  11.346  0.00  0.00    +0.000 A 
ATOM      2  C   UNL     1      45.217   3.744  12.243  0.00  0.00    +0.000 A 
ATOM      3  C   UNL     1      46.125   3.853  13.292  0.00  0.00    +0.000 A 
ATOM      4  C   UNL     1      46.877   5.020  13.448  0.00  0.00    +0.000 A 
ATOM      5  C   UNL     1      46.746   6.103  12.568  0.00  0.00    +0.000 A 
ATOM      6  C   UNL     1      45.803   5.979  11.537  0.00  0.00    +0.000 A 
ENDROOT
BRANCH   5   7
ATOM      7  N   UNL     1      47.597   7.189  12.672  0.00  0.00    +0.000 N 
ATOM      8  C   UNL     1      49.052   7.001  12.691  0.00  0.00    +0.000 C 
ATOM      9  C   UNL     1      49.691   8.117  13.551  0.00  0.00    +0.000 C 
ATOM     10  N   UNL     1      49.349   9.483  13.095  0.00  0.00    +0.000 NA
ATOM     11  C   UNL     1      47.872   9.613  13.043  0.00  0.00    +0.000 C 
ATOM     12  C   UNL     1      47.163   8.516  12.210  0.00  0.00    +0.000 C 
ATOM     13  H   UNL     1      49.706   9.594  12.147  0.00  0.00    +0.000 HD
ENDBRANCH   5   7
BRANCH   1  14
ATOM     14  C   UNL     1      44.124   4.670  10.165  0.00  0.00    +0.000 C 
BRANCH  14  15
ATOM     15  O   UNL     1      44.090   3.316   9.724  0.00  0.00    +0.000 OA
BRANCH  15  19
ATOM     16  C   UNL     1      47.089   2.418   6.969  0.00  0.00    +0.000 A 
ATOM     17  C   UNL     1      46.630   1.400   7.800  0.00  0.00    +0.000 A 
ATOM     18  C   UNL     1      45.628   1.656   8.740  0.00  0.00    +0.000 A 
ATOM     19  C   UNL     1      45.078   2.936   8.853  0.00  0.00    +0.000 A 
ATOM     20  C   UNL     1      45.546   3.952   8.015  0.00  0.00    +0.000 A 
ATOM     21  C   UNL     1      46.549   3.695   7.076  0.00  0.00    +0.000 A 
ENDBRANCH  15  19
ENDBRANCH  14  15
ENDBRANCH   1  14
TORSDOF 4
ENDMDL
MODEL 5
REMARK VINA RESULT:    -6.853      1.749      3.301
REMARK INTER + INTRA:          -9.026
REMARK INTER:                  -8.415
REMARK INTRA:                  -0.612
REMARK UNBOUND:                -0.571
REMARK  Name = 
REMARK  4 active torsions:
REMARK  status: ('A' for Active; 'I' for Inactive)
REMARK    1  A    between atoms: C_4  and  O_5
REMARK    2  A    between atoms: O_5  and  C_6
REMARK    3  A    between atoms: C_6  and  C_7
REMARK    4  A    between atoms: C_11  and  N_12
REMARK                            x       y       z     vdW  Elec       q    Type
REMARK                         _______ _______ _______ _____ _____    ______ ____
ROOT
ATOM      1  C   UNL     1      45.796   5.220  12.651  0.00  0.00    +0.000 A 
ATOM      2  C   UNL     1      46.488   6.326  12.150  0.00  0.00    +0.000 A 
ATOM      3  C   UNL     1      47.561   6.855  12.859  0.00  0.00    +0.000 A 
ATOM      4  C   UNL     1      47.947   6.283  14.074  0.00  0.00    +0.000 A 
ATOM      5  C   UNL     1      47.279   5.175  14.611  0.00  0.00    +0.000 A 
ATOM      6  C   UNL     1      46.218   4.643  13.862  0.00  0.00    +0.000 A 
ENDROOT
BRANCH   5   7
ATOM      7  N   UNL     1      47.601   4.715  15.876  0.00  0.00    +0.000 N 
ATOM      8  C   UNL     1      47.748   3.278  16.135  0.00  0.00    +0.000 C 
ATOM      9  C   UNL     1      47.328   2.986  17.595  0.00  0.00    +0.000 C 
ATOM     10  N   UNL     1      48.081   3.776  18.596  0.00  0.00    +0.000 NA
ATOM     11  C   UNL     1      47.946   5.216  18.267  0.00  0.00    +0.000 C 
ATOM     12  C   UNL     1      48.335   5.579  16.813  0.00  0.00    +0.000 C 
ATOM     13  H   UNL     1      49.065   3.527  18.513  0.00  0.00    +0.000 HD
ENDBRANCH   5   7
BRANCH   1  14
ATOM     14  C   UNL     1      44.587   4.680  11.926  0.00  0.00    +0.000 C 
BRANCH  14  15
ATOM     15  O   UNL     1      44.572   5.159  10.584  0.00  0.00    +0.000 OA
BRANCH  15  19
ATOM     16  C   UNL     1      46.041   2.386   7.838  0.00  0.00    +0.000 A 
ATOM     17  C   UNL     1      46.314   3.735   7.625  0.00  0.00    +0.000 A 
ATOM     18  C   UNL     1      45.840   4.699   8.519  0.00  0.00    +0.000 A 
ATOM     19  C   UNL     1      45.087   4.318   9.633  0.00  0.00    +0.000 A 
ATOM     20  C   UNL     1      44.816   2.963   9.837  0.00  0.00    +0.000 A 
ATOM     21  C   UNL     1      45.291   1.999   8.943  0.00  0.00    +0.000 A 
ENDBRANCH  15  19
ENDBRANCH  14  15
ENDBRANCH   1  14
TORSDOF 4
ENDMDL
MODEL 6
REMARK VINA RESULT:    -6.623      1.924      2.802
REMARK INTER + INTRA:          -8.742
REMARK INTER:                  -8.040
REMARK INTRA:                  -0.702
REMARK UNBOUND:                -0.571
REMARK  Name = 
REMARK  4 active torsions:
REMARK  status: ('A' for Active; 'I' for Inactive)
REMARK    1  A    between atoms: C_4  and  O_5
REMARK    2  A    between atoms: O_5  and  C_6
REMARK    3  A    between atoms: C_6  and  C_7
REMARK    4  A    between atoms: C_11  and  N_12
REMARK                            x       y       z     vdW  Elec       q    Type
REMARK                         _______ _______ _______ _____ _____    ______ ____
ROOT
ATOM      1  C   UNL     1      44.857   5.462  11.556  0.00  0.00    +0.000 A 
ATOM      2  C   UNL     1      43.932   6.495  11.388  0.00  0.00    +0.000 A 
ATOM      3  C   UNL     1      44.332   7.819  11.540  0.00  0.00    +0.000 A 
ATOM      4  C   UNL     1      45.659   8.116  11.861  0.00  0.00    +0.000 A 
ATOM      5  C   UNL     1      46.617   7.109  12.039  0.00  0.00    +0.000 A 
ATOM      6  C   UNL     1      46.194   5.784  11.853  0.00  0.00    +0.000 A 
ENDROOT
BRANCH   5   7
ATOM      7  N   UNL     1      47.887   7.429  12.484  0.00  0.00    +0.000 N 
ATOM      8  C   UNL     1      48.837   8.119  11.604  0.00  0.00    +0.000 C 
ATOM      9  C   UNL     1      50.273   7.675  11.970  0.00  0.00    +0.000 C 
ATOM     10  N   UNL     1      50.619   7.904  13.391  0.00  0.00    +0.000 NA
ATOM     11  C   UNL     1      49.607   7.233  14.243  0.00  0.00    +0.000 C 
ATOM     12  C   UNL     1      48.142   7.620  13.920  0.00  0.00    +0.000 C 
ATOM     13  H   UNL     1      50.562   8.906  13.568  0.00  0.00    +0.000 HD
ENDBRANCH   5   7
BRANCH   1  14
ATOM     14  C   UNL     1      44.421   4.020  11.463  0.00  0.00    +0.000 C 
BRANCH  14  15
ATOM     15  O   UNL     1      43.907   3.751  10.161  0.00  0.00    +0.000 OA
BRANCH  15  19
ATOM     16  C   UNL     1      46.682   2.390   7.362  0.00  0.00    +0.000 A 
ATOM     17  C   UNL     1      46.387   3.750   7.391  0.00  0.00    +0.000 A 
ATOM     18  C   UNL     1      45.461   4.250   8.312  0.00  0.00    +0.000 A 
ATOM     19  C   UNL     1      44.824   3.389   9.209  0.00  0.00    +0.000 A 
ATOM     20  C   UNL     1      45.126   2.025   9.172  0.00  0.00    +0.000 A 
ATOM     21  C   UNL     1      46.052   1.526   8.251  0.00  0.00    +0.000 A 
ENDBRANCH  15  19
ENDBRANCH  14  15
ENDBRANCH   1  14
TORSDOF 4
ENDMDL
MODEL 7
REMARK VINA RESULT:    -6.528      2.979      6.376
REMARK INTER + INTRA:          -8.625
REMARK INTER:                  -7.929
REMARK INTRA:                  -0.697
REMARK UNBOUND:                -0.571
REMARK  Name = 
REMARK  4 active torsions:
REMARK  status: ('A' for Active; 'I' for Inactive)
REMARK    1  A    between atoms: C_4  and  O_5
REMARK    2  A    between atoms: O_5  and  C_6
REMARK    3  A    between atoms: C_6  and  C_7
REMARK    4  A    between atoms: C_11  and  N_12
REMARK                            x       y       z     vdW  Elec       q    Type
REMARK                         _______ _______ _______ _____ _____    ______ ____
ROOT
ATOM      1  C   UNL     1      44.425   5.681  11.430  0.00  0.00    +0.000 A 
ATOM      2  C   UNL     1      43.483   4.955  12.162  0.00  0.00    +0.000 A 
ATOM      3  C   UNL     1      43.235   3.622  11.850  0.00  0.00    +0.000 A 
ATOM      4  C   UNL     1      43.927   3.008  10.803  0.00  0.00    +0.000 A 
ATOM      5  C   UNL     1      44.879   3.702  10.043  0.00  0.00    +0.000 A 
ATOM      6  C   UNL     1      45.131   5.036  10.397  0.00  0.00    +0.000 A 
ENDROOT
BRANCH   5   7
ATOM      7  N   UNL     1      45.450   3.106   8.933  0.00  0.00    +0.000 N 
ATOM      8  C   UNL     1      45.293   1.668   8.692  0.00  0.00    +0.000 C 
ATOM      9  C   UNL     1      46.550   1.141   7.959  0.00  0.00    +0.000 C 
ATOM     10  N   UNL     1      46.837   1.854   6.693  0.00  0.00    +0.000 NA
ATOM     11  C   UNL     1      46.939   3.307   6.975  0.00  0.00    +0.000 C 
ATOM     12  C   UNL     1      45.719   3.898   7.724  0.00  0.00    +0.000 C 
ATOM     13  H   UNL     1      46.045   1.710   6.068  0.00  0.00    +0.000 HD
ENDBRANCH   5   7
BRANCH   1  14
ATOM     14  C   UNL     1      44.653   7.146  11.713  0.00  0.00    +0.000 C 
BRANCH  14  15
ATOM     15  O   UNL     1      45.600   7.296  12.767  0.00  0.00    +0.000 OA
BRANCH  15  19
ATOM     16  C   UNL     1      49.395   8.690  11.746  0.00  0.00    +0.000 A 
ATOM     17  C   UNL     1      48.356   9.612  11.838  0.00  0.00    +0.000 A 
ATOM     18  C   UNL     1      47.067   9.189  12.176  0.00  0.00    +0.000 A 
ATOM     19  C   UNL     1      46.811   7.837  12.422  0.00  0.00    +0.000 A 
ATOM     20  C   UNL     1      47.860   6.919  12.326  0.00  0.00    +0.000 A 
ATOM     21  C   UNL     1      49.148   7.343  11.988  0.00  0.00    +0.000 A 
ENDBRANCH  15  19
ENDBRANCH  14  15
ENDBRANCH   1  14
TORSDOF 4
ENDMDL
MODEL 8
REMARK VINA RESULT:    -6.089      2.801      7.131
REMARK INTER + INTRA:          -8.085
REMARK INTER:                  -7.661
REMARK INTRA:                  -0.424
REMARK UNBOUND:                -0.571
REMARK  Name = 
REMARK  4 active torsions:
REMARK  status: ('A' for Active; 'I' for Inactive)
REMARK    1  A    between atoms: C_4  and  O_5
REMARK    2  A    between atoms: O_5  and  C_6
REMARK    3  A    between atoms: C_6  and  C_7
REMARK    4  A    between atoms: C_11  and  N_12
REMARK                            x       y       z     vdW  Elec       q    Type
REMARK                         _______ _______ _______ _____ _____    ______ ____
ROOT
ATOM      1  C   UNL     1      45.458   4.545  12.976  0.00  0.00    +0.000 A 
ATOM      2  C   UNL     1      44.094   4.691  13.238  0.00  0.00    +0.000 A 
ATOM      3  C   UNL     1      43.158   4.328  12.275  0.00  0.00    +0.000 A 
ATOM      4  C   UNL     1      43.581   3.818  11.045  0.00  0.00    +0.000 A 
ATOM      5  C   UNL     1      44.940   3.657  10.743  0.00  0.00    +0.000 A 
ATOM      6  C   UNL     1      45.862   4.005  11.742  0.00  0.00    +0.000 A 
ENDROOT
BRANCH   5   7
ATOM      7  N   UNL     1      45.328   3.274   9.472  0.00  0.00    +0.000 N 
ATOM      8  C   UNL     1      45.151   1.890   9.019  0.00  0.00    +0.000 C 
ATOM      9  C   UNL     1      46.277   1.540   8.018  0.00  0.00    +0.000 C 
ATOM     10  N   UNL     1      46.345   2.462   6.861  0.00  0.00    +0.000 NA
ATOM     11  C   UNL     1      46.474   3.851   7.364  0.00  0.00    +0.000 C 
ATOM     12  C   UNL     1      45.386   4.264   8.386  0.00  0.00    +0.000 C 
ATOM     13  H   UNL     1      45.463   2.392   6.355  0.00  0.00    +0.000 HD
ENDBRANCH   5   7
BRANCH   1  14
ATOM     14  C   UNL     1      46.485   5.000  13.985  0.00  0.00    +0.000 C 
BRANCH  14  15
ATOM     15  O   UNL     1      46.336   4.264  15.196  0.00  0.00    +0.000 OA
BRANCH  15  19
ATOM     16  C   UNL     1      49.725   4.365  17.622  0.00  0.00    +0.000 A 
ATOM     17  C   UNL     1      49.060   3.152  17.468  0.00  0.00    +0.000 A 
ATOM     18  C   UNL     1      47.918   3.072  16.665  0.00  0.00    +0.000 A 
ATOM     19  C   UNL     1      47.435   4.209  16.012  0.00  0.00    +0.000 A 
ATOM     20  C   UNL     1      48.108   5.423  16.175  0.00  0.00    +0.000 A 
ATOM     21  C   UNL     1      49.250   5.501  16.977  0.00  0.00    +0.000 A 
ENDBRANCH  15  19
ENDBRANCH  14  15
ENDBRANCH   1  14
TORSDOF 4
ENDMDL
MODEL 9
REMARK VINA RESULT:    -6.003      3.275      7.194
REMARK INTER + INTRA:          -7.978
REMARK INTER:                  -7.389
REMARK INTRA:                  -0.590
REMARK UNBOUND:                -0.571
REMARK  Name = 
REMARK  4 active torsions:
REMARK  status: ('A' for Active; 'I' for Inactive)
REMARK    1  A    between atoms: C_4  and  O_5
REMARK    2  A    between atoms: O_5  and  C_6
REMARK    3  A    between atoms: C_6  and  C_7
REMARK    4  A    between atoms: C_11  and  N_12
REMARK                            x       y       z     vdW  Elec       q    Type
REMARK                         _______ _______ _______ _____ _____    ______ ____
ROOT
ATOM      1  C   UNL     1      47.416   7.012  13.664  0.00  0.00    +0.000 A 
ATOM      2  C   UNL     1      46.999   8.295  13.302  0.00  0.00    +0.000 A 
ATOM      3  C   UNL     1      45.850   8.462  12.536  0.00  0.00    +0.000 A 
ATOM      4  C   UNL     1      45.114   7.347  12.125  0.00  0.00    +0.000 A 
ATOM      5  C   UNL     1      45.500   6.044  12.466  0.00  0.00    +0.000 A 
ATOM      6  C   UNL     1      46.647   5.905  13.264  0.00  0.00    +0.000 A 
ENDROOT
BRANCH   5   7
ATOM      7  N   UNL     1      44.826   4.959  11.936  0.00  0.00    +0.000 N 
ATOM      8  C   UNL     1      43.649   4.404  12.613  0.00  0.00    +0.000 C 
ATOM      9  C   UNL     1      43.579   2.884  12.336  0.00  0.00    +0.000 C 
ATOM     10  N   UNL     1      43.557   2.547  10.894  0.00  0.00    +0.000 NA
ATOM     11  C   UNL     1      44.736   3.167  10.240  0.00  0.00    +0.000 C 
ATOM     12  C   UNL     1      44.878   4.689  10.491  0.00  0.00    +0.000 C 
ATOM     13  H   UNL     1      42.720   2.964  10.489  0.00  0.00    +0.000 HD
ENDBRANCH   5   7
BRANCH   1  14
ATOM     14  C   UNL     1      48.698   6.813  14.437  0.00  0.00    +0.000 C 
BRANCH  14  15
ATOM     15  O   UNL     1      48.415   6.714  15.830  0.00  0.00    +0.000 OA
BRANCH  15  19
ATOM     16  C   UNL     1      49.135   3.015  17.615  0.00  0.00    +0.000 A 
ATOM     17  C   UNL     1      47.914   3.212  16.975  0.00  0.00    +0.000 A 
ATOM     18  C   UNL     1      47.630   4.437  16.365  0.00  0.00    +0.000 A 
ATOM     19  C   UNL     1      48.567   5.473  16.393  0.00  0.00    +0.000 A 
ATOM     20  C   UNL     1      49.789   5.266  17.039  0.00  0.00    +0.000 A 
ATOM     21  C   UNL     1      50.072   4.041  17.649  0.00  0.00    +0.000 A 
ENDBRANCH  15  19
ENDBRANCH  14  15
ENDBRANCH   1  14
TORSDOF 4
ENDMDL
