MODEL 1
REMARK VINA RESULT:    -7.057      0.000      0.000
REMARK INTER + INTRA:         -10.038
REMARK INTER:                  -9.326
REMARK INTRA:                  -0.712
REMARK UNBOUND:                -0.712
REMARK  Name = 
REMARK  6 active torsions:
REMARK  status: ('A' for Active; 'I' for Inactive)
REMARK    1  A    between atoms: N_1  and  C_2
REMARK    2  A    between atoms: C_2  and  C_3
REMARK    3  A    between atoms: C_6  and  C_7
REMARK    4  A    between atoms: C_7  and  C_8
REMARK    5  A    between atoms: C_8  and  O_9
REMARK    6  A    between atoms: O_9  and  C_10
REMARK                            x       y       z     vdW  Elec       q    Type
REMARK                         _______ _______ _______ _____ _____    ______ ____
ROOT
ATOM      1  C   UNL     1      46.599   2.748   6.972  0.00  0.00    +0.000 A 
ATOM      2  C   UNL     1      46.042   3.956   7.398  0.00  0.00    +0.000 A 
ATOM      3  C   UNL     1      45.286   4.002   8.568  0.00  0.00    +0.000 A 
ATOM      4  C   UNL     1      45.097   2.830   9.294  0.00  0.00    +0.000 A 
ATOM      5  N   UNL     1      45.621   1.644   8.901  0.00  0.00    +0.000 NA
ATOM      6  C   UNL     1      46.358   1.632   7.764  0.00  0.00    +0.000 A 
ENDROOT
BRANCH   1   7
ATOM      7  C   UNL     1      47.383   2.645   5.694  0.00  0.00    +0.000 C 
BRANCH   7   8
ATOM      8  N   UNL     1      48.518   1.735   5.817  0.00  0.00    +0.000 NA
ATOM      9  H   UNL     1      49.061   1.988   6.637  0.00  0.00    +0.000 HD
ATOM     10  H   UNL     1      49.133   1.862   5.014  0.00  0.00    +0.000 HD
ENDBRANCH   7   8
ENDBRANCH   1   7
BRANCH   4  11
ATOM     11  C   UNL     1      44.211   2.814  10.513  0.00  0.00    +0.000 C 
BRANCH  11  12
ATOM     12  C   UNL     1      43.586   4.193  10.716  0.00  0.00    +0.000 C 
BRANCH  12  13
ATOM     13  O   UNL     1      43.775   4.627  12.069  0.00  0.00    +0.000 OA
BRANCH  13  14
ATOM     14  C   UNL     1      45.029   5.106  12.352  0.00  0.00    +0.000 A 
ATOM     15  C   UNL     1      45.847   4.647  13.387  0.00  0.00    +0.000 A 
ATOM     16  C   UNL     1      47.112   5.206  13.593  0.00  0.00    +0.000 A 
ATOM     17  C   UNL     1      47.565   6.222  12.755  0.00  0.00    +0.000 A 
ATOM     18 CL   UNL     1      49.118   6.915  13.023  0.00  0.00    +0.000 Cl
ATOM     19  C   UNL     1      46.769   6.674  11.706  0.00  0.00    +0.000 A 
ATOM     20  C   UNL     1      45.506   6.108  11.501  0.00  0.00    +0.000 A 
ENDBRANCH  13  14
ENDBRANCH  12  13
ENDBRANCH  11  12
ENDBRANCH   4  11
TORSDOF 6
ENDMDL
MODEL 2
REMARK VINA RESULT:    -6.865      3.280      5.995
REMARK INTER + INTRA:          -9.784
REMARK INTER:                  -9.143
REMARK INTRA:                  -0.641
REMARK UNBOUND:                -0.712
REMARK  Name = 
REMARK  6 active torsions:
REMARK  status: ('A' for Active; 'I' for Inactive)
REMARK    1  A    between atoms: N_1  and  C_2
REMARK    2  A    between atoms: C_2  and  C_3
REMARK    3  A    between atoms: C_6  and  C_7
REMARK    4  A    between atoms: C_7  and  C_8
REMARK    5  A    between atoms: C_8  and  O_9
REMARK    6  A    between atoms: O_9  and  C_10
REMARK                            x       y       z     vdW  Elec       q    Type
REMARK                         _______ _______ _______ _____ _____    ______ ____
ROOT
ATOM      1  C   UNL     1      47.409   6.106  13.592  0.00  0.00    +0.000 A 
ATOM      2  C   UNL     1      46.735   6.388  12.402  0.00  0.00    +0.000 A 
ATOM      3  C   UNL     1      45.703   5.557  11.969  0.00  0.00    +0.000 A 
ATOM      4  C   UNL     1      45.365   4.448  12.739  0.00  0.00    +0.000 A 
ATOM      5  N   UNL     1      46.006   4.147  13.895  0.00  0.00    +0.000 NA
ATOM      6  C   UNL     1      46.999   4.978  14.293  0.00  0.00    +0.000 A 
ENDROOT
BRANCH   1   7
ATOM      7  C   UNL     1      48.555   6.950  14.072  0.00  0.00    +0.000 C 
BRANCH   7   8
ATOM      8  N   UNL     1      49.708   6.871  13.179  0.00  0.00    +0.000 NA
ATOM      9  H   UNL     1      50.055   5.917  13.167  0.00  0.00    +0.000 HD
ATOM     10  H   UNL     1      50.460   7.447  13.557  0.00  0.00    +0.000 HD
ENDBRANCH   7   8
ENDBRANCH   1   7
BRANCH   4  11
ATOM     11  C   UNL     1      44.321   3.471  12.263  0.00  0.00    +0.000 C 
BRANCH  11  12
ATOM     12  C   UNL     1      43.737   3.944  10.934  0.00  0.00    +0.000 C 
BRANCH  12  13
ATOM     13  O   UNL     1      43.692   2.859  10.000  0.00  0.00    +0.000 OA
BRANCH  13  14
ATOM     14  C   UNL     1      44.722   2.833   9.094  0.00  0.00    +0.000 A 
ATOM     15  C   UNL     1      45.220   3.949   8.416  0.00  0.00    +0.000 A 
ATOM     16  C   UNL     1      46.276   3.814   7.509  0.00  0.00    +0.000 A 
ATOM     17  C   UNL     1      46.840   2.562   7.284  0.00  0.00    +0.000 A 
ATOM     18 CL   UNL     1      48.129   2.401   6.154  0.00  0.00    +0.000 Cl
ATOM     19  C   UNL     1      46.367   1.445   7.968  0.00  0.00    +0.000 A 
ATOM     20  C   UNL     1      45.315   1.585   8.879  0.00  0.00    +0.000 A 
ENDBRANCH  13  14
ENDBRANCH  12  13
ENDBRANCH  11  12
ENDBRANCH   4  11
TORSDOF 6
ENDMDL
MODEL 3
REMARK VINA RESULT:    -6.578      3.342      6.068
REMARK INTER + INTRA:          -9.405
REMARK INTER:                  -8.924
REMARK INTRA:                  -0.481
REMARK UNBOUND:                -0.712
REMARK  Name = 
REMARK  6 active torsions:
REMARK  status: ('A' for Active; 'I' for Inactive)
REMARK    1  A    between atoms: N_1  and  C_2
REMARK    2  A    between atoms: C_2  and  C_3
REMARK    3  A    between atoms: C_6  and  C_7
REMARK    4  A    between atoms: C_7  and  C_8
REMARK    5  A    between atoms: C_8  and  O_9
REMARK    6  A    between atoms: O_9  and  C_10
REMARK                            x       y       z     vdW  Elec       q    Type
REMARK                         _______ _______ _______ _____ _____    ______ ____
ROOT
ATOM      1  C   UNL     1      45.980   7.134  12.664  0.00  0.00    +0.000 A 
ATOM      2  C   UNL     1      46.320   5.921  13.268  0.00  0.00    +0.000 A 
ATOM      3  C   UNL     1      45.466   4.824  13.161  0.00  0.00    +0.000 A 
ATOM      4  C   UNL     1      44.279   4.963  12.449  0.00  0.00    +0.000 A 
ATOM      5  N   UNL     1      43.922   6.129  11.858  0.00  0.00    +0.000 NA
ATOM      6  C   UNL     1      44.775   7.175  11.973  0.00  0.00    +0.000 A 
ENDROOT
BRANCH   1   7
ATOM      7  C   UNL     1      46.850   8.352  12.793  0.00  0.00    +0.000 C 
BRANCH   7   8
ATOM      8  N   UNL     1      46.954   8.810  14.175  0.00  0.00    +0.000 NA
ATOM      9  H   UNL     1      46.475   8.151  14.782  0.00  0.00    +0.000 HD
ATOM     10  H   UNL     1      46.462   9.698  14.269  0.00  0.00    +0.000 HD
ENDBRANCH   7   8
ENDBRANCH   1   7
BRANCH   4  11
ATOM     11  C   UNL     1      43.283   3.833  12.386  0.00  0.00    +0.000 C 
BRANCH  11  12
ATOM     12  C   UNL     1      43.696   2.840  11.301  0.00  0.00    +0.000 C 
BRANCH  12  13
ATOM     13  O   UNL     1      43.671   3.473  10.016  0.00  0.00    +0.000 OA
BRANCH  13  14
ATOM     14  C   UNL     1      44.696   3.117   9.176  0.00  0.00    +0.000 A 
ATOM     15  C   UNL     1      45.167   1.813   8.996  0.00  0.00    +0.000 A 
ATOM     16  C   UNL     1      46.222   1.557   8.114  0.00  0.00    +0.000 A 
ATOM     17  C   UNL     1      46.802   2.605   7.404  0.00  0.00    +0.000 A 
ATOM     18 CL   UNL     1      48.110   2.283   6.332  0.00  0.00    +0.000 Cl
ATOM     19  C   UNL     1      46.327   3.905   7.558  0.00  0.00    +0.000 A 
ATOM     20  C   UNL     1      45.268   4.157   8.438  0.00  0.00    +0.000 A 
ENDBRANCH  13  14
ENDBRANCH  12  13
ENDBRANCH  11  12
ENDBRANCH   4  11
TORSDOF 6
ENDMDL
MODEL 4
REMARK VINA RESULT:    -6.396      1.322      1.991
REMARK INTER + INTRA:          -9.164
REMARK INTER:                  -8.465
REMARK INTRA:                  -0.699
REMARK UNBOUND:                -0.712
REMARK  Name = 
REMARK  6 active torsions:
REMARK  status: ('A' for Active; 'I' for Inactive)
REMARK    1  A    between atoms: N_1  and  C_2
REMARK    2  A    between atoms: C_2  and  C_3
REMARK    3  A    between atoms: C_6  and  C_7
REMARK    4  A    between atoms: C_7  and  C_8
REMARK    5  A    between atoms: C_8  and  O_9
REMARK    6  A    between atoms: O_9  and  C_10
REMARK                            x       y       z     vdW  Elec       q    Type
REMARK                         _______ _______ _______ _____ _____    ______ ____
ROOT
ATOM      1  C   UNL     1      45.658   3.146   8.349  0.00  0.00    +0.000 A 
ATOM      2  C   UNL     1      45.582   4.471   8.783  0.00  0.00    +0.000 A 
ATOM      3  C   UNL     1      44.734   4.814   9.836  0.00  0.00    +0.000 A 
ATOM      4  C   UNL     1      43.970   3.818  10.435  0.00  0.00    +0.000 A 
ATOM      5  N   UNL     1      44.020   2.526  10.031  0.00  0.00    +0.000 NA
ATOM      6  C   UNL     1      44.859   2.222   9.011  0.00  0.00    +0.000 A 
ENDROOT
BRANCH   1   7
ATOM      7  C   UNL     1      46.525   2.742   7.191  0.00  0.00    +0.000 C 
BRANCH   7   8
ATOM      8  N   UNL     1      46.750   3.845   6.261  0.00  0.00    +0.000 NA
ATOM      9  H   UNL     1      47.726   4.122   6.303  0.00  0.00    +0.000 HD
ATOM     10  H   UNL     1      46.208   4.653   6.567  0.00  0.00    +0.000 HD
ENDBRANCH   7   8
ENDBRANCH   1   7
BRANCH   4  11
ATOM     11  C   UNL     1      42.972   4.158  11.513  0.00  0.00    +0.000 C 
BRANCH  11  12
ATOM     12  C   UNL     1      43.676   4.227  12.866  0.00  0.00    +0.000 C 
BRANCH  12  13
ATOM     13  O   UNL     1      43.874   5.593  13.251  0.00  0.00    +0.000 OA
BRANCH  13  14
ATOM     14  C   UNL     1      45.102   6.113  12.926  0.00  0.00    +0.000 A 
ATOM     15  C   UNL     1      45.310   7.347  12.305  0.00  0.00    +0.000 A 
ATOM     16  C   UNL     1      46.606   7.785  12.015  0.00  0.00    +0.000 A 
ATOM     17  C   UNL     1      47.698   6.991  12.355  0.00  0.00    +0.000 A 
ATOM     18 CL   UNL     1      49.290   7.530  11.982  0.00  0.00    +0.000 Cl
ATOM     19  C   UNL     1      47.505   5.769  12.994  0.00  0.00    +0.000 A 
ATOM     20  C   UNL     1      46.207   5.337  13.287  0.00  0.00    +0.000 A 
ENDBRANCH  13  14
ENDBRANCH  12  13
ENDBRANCH  11  12
ENDBRANCH   4  11
TORSDOF 6
ENDMDL
MODEL 5
REMARK VINA RESULT:    -5.398      3.613      6.257
REMARK INTER + INTRA:          -7.846
REMARK INTER:                  -7.285
REMARK INTRA:                  -0.561
REMARK UNBOUND:                -0.712
REMARK  Name = 
REMARK  6 active torsions:
REMARK  status: ('A' for Active; 'I' for Inactive)
REMARK    1  A    between atoms: N_1  and  C_2
REMARK    2  A    between atoms: C_2  and  C_3
REMARK    3  A    between atoms: C_6  and  C_7
REMARK    4  A    between atoms: C_7  and  C_8
REMARK    5  A    between atoms: C_8  and  O_9
REMARK    6  A    between atoms: O_9  and  C_10
REMARK                            x       y       z     vdW  Elec       q    Type
REMARK                         _______ _______ _______ _____ _____    ______ ____
ROOT
ATOM      1  C   UNL     1      46.742   8.668  12.273  0.00  0.00    +0.000 A 
ATOM      2  C   UNL     1      47.534   7.629  12.768  0.00  0.00    +0.000 A 
ATOM      3  C   UNL     1      46.957   6.399  13.080  0.00  0.00    +0.000 A 
ATOM      4  C   UNL     1      45.589   6.231  12.894  0.00  0.00    +0.000 A 
ATOM      5  N   UNL     1      44.796   7.224  12.422  0.00  0.00    +0.000 NA
ATOM      6  C   UNL     1      45.386   8.405  12.119  0.00  0.00    +0.000 A 
ENDROOT
BRANCH   1   7
ATOM      7  C   UNL     1      47.315  10.022  11.966  0.00  0.00    +0.000 C 
BRANCH   7   8
ATOM      8  N   UNL     1      48.699   9.942  11.508  0.00  0.00    +0.000 NA
ATOM      9  H   UNL     1      49.009  10.865  11.220  0.00  0.00    +0.000 HD
ATOM     10  H   UNL     1      48.740   9.353  10.676  0.00  0.00    +0.000 HD
ENDBRANCH   7   8
ENDBRANCH   1   7
BRANCH   4  11
ATOM     11  C   UNL     1      44.907   4.951  13.306  0.00  0.00    +0.000 C 
BRANCH  11  12
ATOM     12  C   UNL     1      45.313   3.823  12.361  0.00  0.00    +0.000 C 
BRANCH  12  13
ATOM     13  O   UNL     1      44.374   3.718  11.283  0.00  0.00    +0.000 OA
BRANCH  13  14
ATOM     14  C   UNL     1      44.935   3.639  10.034  0.00  0.00    +0.000 A 
ATOM     15  C   UNL     1      45.345   4.734   9.269  0.00  0.00    +0.000 A 
ATOM     16  C   UNL     1      45.906   4.543   8.002  0.00  0.00    +0.000 A 
ATOM     17  C   UNL     1      46.064   3.254   7.501  0.00  0.00    +0.000 A 
ATOM     18 CL   UNL     1      46.741   3.028   5.934  0.00  0.00    +0.000 Cl
ATOM     19  C   UNL     1      45.680   2.153   8.262  0.00  0.00    +0.000 A 
ATOM     20  C   UNL     1      45.124   2.348   9.531  0.00  0.00    +0.000 A 
ENDBRANCH  13  14
ENDBRANCH  12  13
ENDBRANCH  11  12
ENDBRANCH   4  11
TORSDOF 6
ENDMDL
MODEL 6
REMARK VINA RESULT:    -5.391      4.878      8.104
REMARK INTER + INTRA:          -7.837
REMARK INTER:                  -7.432
REMARK INTRA:                  -0.405
REMARK UNBOUND:                -0.712
REMARK  Name = 
REMARK  6 active torsions:
REMARK  status: ('A' for Active; 'I' for Inactive)
REMARK    1  A    between atoms: N_1  and  C_2
REMARK    2  A    between atoms: C_2  and  C_3
REMARK    3  A    between atoms: C_6  and  C_7
REMARK    4  A    between atoms: C_7  and  C_8
REMARK    5  A    between atoms: C_8  and  O_9
REMARK    6  A    between atoms: O_9  and  C_10
REMARK                            x       y       z     vdW  Elec       q    Type
REMARK                         _______ _______ _______ _____ _____    ______ ____
ROOT
ATOM      1  C   UNL     1      48.542   4.521  18.400  0.00  0.00    +0.000 A 
ATOM      2  C   UNL     1      48.028   3.260  18.090  0.00  0.00    +0.000 A 
ATOM      3  C   UNL     1      47.590   2.983  16.795  0.00  0.00    +0.000 A 
ATOM      4  C   UNL     1      47.673   3.981  15.830  0.00  0.00    +0.000 A 
ATOM      5  N   UNL     1      48.163   5.215  16.104  0.00  0.00    +0.000 NA
ATOM      6  C   UNL     1      48.587   5.451  17.369  0.00  0.00    +0.000 A 
ENDROOT
BRANCH   1   7
ATOM      7  C   UNL     1      48.983   4.874  19.792  0.00  0.00    +0.000 C 
BRANCH   7   8
ATOM      8  N   UNL     1      48.461   3.942  20.787  0.00  0.00    +0.000 NA
ATOM      9  H   UNL     1      49.074   3.941  21.597  0.00  0.00    +0.000 HD
ATOM     10  H   UNL     1      48.489   2.997  20.404  0.00  0.00    +0.000 HD
ENDBRANCH   7   8
ENDBRANCH   1   7
BRANCH   4  11
ATOM     11  C   UNL     1      47.127   3.758  14.442  0.00  0.00    +0.000 C 
BRANCH  11  12
ATOM     12  C   UNL     1      46.308   4.971  14.008  0.00  0.00    +0.000 C 
BRANCH  12  13
ATOM     13  O   UNL     1      45.057   4.548  13.451  0.00  0.00    +0.000 OA
BRANCH  13  14
ATOM     14  C   UNL     1      45.053   4.397  12.087  0.00  0.00    +0.000 A 
ATOM     15  C   UNL     1      45.495   5.357  11.173  0.00  0.00    +0.000 A 
ATOM     16  C   UNL     1      45.447   5.103   9.799  0.00  0.00    +0.000 A 
ATOM     17  C   UNL     1      44.964   3.882   9.337  0.00  0.00    +0.000 A 
ATOM     18 CL   UNL     1      44.895   3.582   7.643  0.00  0.00    +0.000 Cl
ATOM     19  C   UNL     1      44.541   2.908  10.237  0.00  0.00    +0.000 A 
ATOM     20  C   UNL     1      44.596   3.164  11.612  0.00  0.00    +0.000 A 
ENDBRANCH  13  14
ENDBRANCH  12  13
ENDBRANCH  11  12
ENDBRANCH   4  11
TORSDOF 6
ENDMDL
MODEL 7
REMARK VINA RESULT:    -5.354      5.482      8.177
REMARK INTER + INTRA:          -7.788
REMARK INTER:                  -7.402
REMARK INTRA:                  -0.386
REMARK UNBOUND:                -0.712
REMARK  Name = 
REMARK  6 active torsions:
REMARK  status: ('A' for Active; 'I' for Inactive)
REMARK    1  A    between atoms: N_1  and  C_2
REMARK    2  A    between atoms: C_2  and  C_3
REMARK    3  A    between atoms: C_6  and  C_7
REMARK    4  A    between atoms: C_7  and  C_8
REMARK    5  A    between atoms: C_8  and  O_9
REMARK    6  A    between atoms: O_9  and  C_10
REMARK                            x       y       z     vdW  Elec       q    Type
REMARK                         _______ _______ _______ _____ _____    ______ ____
ROOT
ATOM      1  C   UNL     1      51.404   2.355  17.549  0.00  0.00    +0.000 A 
ATOM      2  C   UNL     1      50.231   1.762  17.079  0.00  0.00    +0.000 A 
ATOM      3  C   UNL     1      49.100   2.542  16.840  0.00  0.00    +0.000 A 
ATOM      4  C   UNL     1      49.164   3.910  17.081  0.00  0.00    +0.000 A 
ATOM      5  N   UNL     1      50.288   4.512  17.543  0.00  0.00    +0.000 NA
ATOM      6  C   UNL     1      51.372   3.729  17.758  0.00  0.00    +0.000 A 
ENDROOT
BRANCH   1   7
ATOM      7  C   UNL     1      52.630   1.545  17.862  0.00  0.00    +0.000 C 
BRANCH   7   8
ATOM      8  N   UNL     1      52.300   0.181  18.262  0.00  0.00    +0.000 NA
ATOM      9  H   UNL     1      52.477   0.073  19.256  0.00  0.00    +0.000 HD
ATOM     10  H   UNL     1      52.929  -0.466  17.786  0.00  0.00    +0.000 HD
ENDBRANCH   7   8
ENDBRANCH   1   7
BRANCH   4  11
ATOM     11  C   UNL     1      47.941   4.777  16.926  0.00  0.00    +0.000 C 
BRANCH  11  12
ATOM     12  C   UNL     1      47.142   4.331  15.703  0.00  0.00    +0.000 C 
BRANCH  12  13
ATOM     13  O   UNL     1      47.655   4.958  14.522  0.00  0.00    +0.000 OA
BRANCH  13  14
ATOM     14  C   UNL     1      46.819   4.917  13.435  0.00  0.00    +0.000 A 
ATOM     15  C   UNL     1      46.636   5.961  12.525  0.00  0.00    +0.000 A 
ATOM     16  C   UNL     1      45.755   5.817  11.448  0.00  0.00    +0.000 A 
ATOM     17  C   UNL     1      45.061   4.622  11.276  0.00  0.00    +0.000 A 
ATOM     18 CL   UNL     1      43.967   4.458   9.957  0.00  0.00    +0.000 Cl
ATOM     19  C   UNL     1      45.250   3.566  12.164  0.00  0.00    +0.000 A 
ATOM     20  C   UNL     1      46.136   3.713  13.237  0.00  0.00    +0.000 A 
ENDBRANCH  13  14
ENDBRANCH  12  13
ENDBRANCH  11  12
ENDBRANCH   4  11
TORSDOF 6
ENDMDL
MODEL 8
REMARK VINA RESULT:    -4.874      4.995      6.746
REMARK INTER + INTRA:          -7.154
REMARK INTER:                  -6.585
REMARK INTRA:                  -0.569
REMARK UNBOUND:                -0.712
REMARK  Name = 
REMARK  6 active torsions:
REMARK  status: ('A' for Active; 'I' for Inactive)
REMARK    1  A    between atoms: N_1  and  C_2
REMARK    2  A    between atoms: C_2  and  C_3
REMARK    3  A    between atoms: C_6  and  C_7
REMARK    4  A    between atoms: C_7  and  C_8
REMARK    5  A    between atoms: C_8  and  O_9
REMARK    6  A    between atoms: O_9  and  C_10
REMARK                            x       y       z     vdW  Elec       q    Type
REMARK                         _______ _______ _______ _____ _____    ______ ____
ROOT
ATOM      1  C   UNL     1      44.946   5.110  12.932  0.00  0.00    +0.000 A 
ATOM      2  C   UNL     1      45.142   6.444  12.567  0.00  0.00    +0.000 A 
ATOM      3  C   UNL     1      46.422   6.996  12.595  0.00  0.00    +0.000 A 
ATOM      4  C   UNL     1      47.489   6.198  12.993  0.00  0.00    +0.000 A 
ATOM      5  N   UNL     1      47.328   4.902  13.357  0.00  0.00    +0.000 NA
ATOM      6  C   UNL     1      46.074   4.392  13.312  0.00  0.00    +0.000 A 
ENDROOT
BRANCH   1   7
ATOM      7  C   UNL     1      43.579   4.490  12.958  0.00  0.00    +0.000 C 
BRANCH   7   8
ATOM      8  N   UNL     1      42.544   5.454  13.320  0.00  0.00    +0.000 NA
ATOM      9  H   UNL     1      42.637   6.279  12.735  0.00  0.00    +0.000 HD
ATOM     10  H   UNL     1      42.700   5.763  14.279  0.00  0.00    +0.000 HD
ENDBRANCH   7   8
ENDBRANCH   1   7
BRANCH   4  11
ATOM     11  C   UNL     1      48.875   6.776  13.128  0.00  0.00    +0.000 C 
BRANCH  11  12
ATOM     12  C   UNL     1      49.074   7.318  14.542  0.00  0.00    +0.000 C 
BRANCH  12  13
ATOM     13  O   UNL     1      49.639   6.306  15.384  0.00  0.00    +0.000 OA
BRANCH  13  14
ATOM     14  C   UNL     1      49.032   6.167  16.607  0.00  0.00    +0.000 A 
ATOM     15  C   UNL     1      48.112   5.168  16.935  0.00  0.00    +0.000 A 
ATOM     16  C   UNL     1      47.549   5.115  18.214  0.00  0.00    +0.000 A 
ATOM     17  C   UNL     1      47.912   6.059  19.171  0.00  0.00    +0.000 A 
ATOM     18 CL   UNL     1      47.203   5.997  20.738  0.00  0.00    +0.000 Cl
ATOM     19  C   UNL     1      48.843   7.047  18.863  0.00  0.00    +0.000 A 
ATOM     20  C   UNL     1      49.409   7.094  17.584  0.00  0.00    +0.000 A 
ENDBRANCH  13  14
ENDBRANCH  12  13
ENDBRANCH  11  12
ENDBRANCH   4  11
TORSDOF 6
ENDMDL
MODEL 9
REMARK VINA RESULT:    -4.844      4.287      6.034
REMARK INTER + INTRA:          -7.113
REMARK INTER:                  -6.603
REMARK INTRA:                  -0.510
REMARK UNBOUND:                -0.712
REMARK  Name = 
REMARK  6 active torsions:
REMARK  status: ('A' for Active; 'I' for Inactive)
REMARK    1  A    between atoms: N_1  and  C_2
REMARK    2  A    between atoms: C_2  and  C_3
REMARK    3  A    between atoms: C_6  and  C_7
REMARK    4  A    between atoms: C_7  and  C_8
REMARK    5  A    between atoms: C_8  and  O_9
REMARK    6  A    between atoms: O_9  and  C_10
REMARK                            x       y       z     vdW  Elec       q    Type
REMARK                         _______ _______ _______ _____ _____    ______ ____
ROOT
ATOM      1  C   UNL     1      44.755   3.985  11.221  0.00  0.00    +0.000 A 
ATOM      2  C   UNL     1      45.133   4.114  12.560  0.00  0.00    +0.000 A 
ATOM      3  C   UNL     1      45.826   5.247  12.985  0.00  0.00    +0.000 A 
ATOM      4  C   UNL     1      46.132   6.235  12.055  0.00  0.00    +0.000 A 
ATOM      5  N   UNL     1      45.782   6.134  10.749  0.00  0.00    +0.000 NA
ATOM      6  C   UNL     1      45.104   5.026  10.368  0.00  0.00    +0.000 A 
ENDROOT
BRANCH   1   7
ATOM      7  C   UNL     1      44.048   2.761  10.714  0.00  0.00    +0.000 C 
BRANCH   7   8
ATOM      8  N   UNL     1      43.039   2.280  11.653  0.00  0.00    +0.000 NA
ATOM      9  H   UNL     1      43.301   1.354  11.978  0.00  0.00    +0.000 HD
ATOM     10  H   UNL     1      42.152   2.172  11.162  0.00  0.00    +0.000 HD
ENDBRANCH   7   8
ENDBRANCH   1   7
BRANCH   4  11
ATOM     11  C   UNL     1      46.959   7.433  12.449  0.00  0.00    +0.000 C 
BRANCH  11  12
ATOM     12  C   UNL     1      46.051   8.528  13.004  0.00  0.00    +0.000 C 
BRANCH  12  13
ATOM     13  O   UNL     1      46.209   9.733  12.245  0.00  0.00    +0.000 OA
BRANCH  13  14
ATOM     14  C   UNL     1      45.072  10.171  11.614  0.00  0.00    +0.000 A 
ATOM     15  C   UNL     1      44.070   9.341  11.103  0.00  0.00    +0.000 A 
ATOM     16  C   UNL     1      42.948   9.890  10.474  0.00  0.00    +0.000 A 
ATOM     17  C   UNL     1      42.823  11.272  10.361  0.00  0.00    +0.000 A 
ATOM     18 CL   UNL     1      41.447  11.940   9.572  0.00  0.00    +0.000 Cl
ATOM     19  C   UNL     1      43.804  12.110  10.885  0.00  0.00    +0.000 A 
ATOM     20  C   UNL     1      44.923  11.558  11.519  0.00  0.00    +0.000 A 
ENDBRANCH  13  14
ENDBRANCH  12  13
ENDBRANCH  11  12
ENDBRANCH   4  11
TORSDOF 6
ENDMDL
