MODEL 1
REMARK VINA RESULT:    -8.515      0.000      0.000
REMARK INTER + INTRA:         -10.833
REMARK INTER:                 -10.506
REMARK INTRA:                  -0.327
REMARK UNBOUND:                -0.327
REMARK  Name = 
REMARK  4 active torsions:
REMARK  status: ('A' for Active; 'I' for Inactive)
REMARK    1  A    between atoms: C_2  and  C_4
REMARK    2  A    between atoms: C_8  and  C_9
REMARK    3  A    between atoms: C_9  and  N_10
REMARK    4  A    between atoms: C_15  and  C_16
REMARK                            x       y       z     vdW  Elec       q    Type
REMARK                         _______ _______ _______ _____ _____    ______ ____
ROOT
ATOM      1  N   UNL     1      45.057   2.778  12.124  0.00  0.00    +0.000 N 
ATOM      2  C   UNL     1      45.743   3.862  12.653  0.00  0.00    +0.000 A 
ATOM      3  N   UNL     1      45.714   5.041  12.020  0.00  0.00    +0.000 NA
ATOM      4  C   UNL     1      46.337   6.068  12.617  0.00  0.00    +0.000 A 
ATOM      5  C   UNL     1      46.973   5.963  13.827  0.00  0.00    +0.000 A 
ATOM      6  C   UNL     1      46.977   4.709  14.409  0.00  0.00    +0.000 A 
ATOM      7  N   UNL     1      46.387   3.653  13.805  0.00  0.00    +0.000 NA
ATOM      8  H   UNL     1      45.759   2.127  11.786  0.00  0.00    +0.000 HD
ENDROOT
BRANCH   6   9
ATOM      9  C   UNL     1      47.604   4.441  15.720  0.00  0.00    +0.000 A 
ATOM     10  C   UNL     1      47.720   3.127  16.214  0.00  0.00    +0.000 A 
ATOM     11  C   UNL     1      48.310   2.864  17.455  0.00  0.00    +0.000 A 
ATOM     12  C   UNL     1      48.800   3.910  18.230  0.00  0.00    +0.000 A 
ATOM     13  C   UNL     1      48.699   5.218  17.767  0.00  0.00    +0.000 A 
ATOM     14  C   UNL     1      48.108   5.479  16.527  0.00  0.00    +0.000 A 
ENDBRANCH   6   9
BRANCH   1  15
ATOM     15  C   UNL     1      44.049   3.127  11.147  0.00  0.00    +0.000 C 
BRANCH  15  20
ATOM     16  C   UNL     1      46.093   2.125   8.090  0.00  0.00    +0.000 A 
ATOM     17  C   UNL     1      45.867   3.246   7.307  0.00  0.00    +0.000 A 
ATOM     18  N   UNL     1      45.061   4.271   7.679  0.00  0.00    +0.000 NA
ATOM     19  C   UNL     1      44.477   4.175   8.896  0.00  0.00    +0.000 A 
ATOM     20  C   UNL     1      44.658   3.100   9.771  0.00  0.00    +0.000 A 
ATOM     21  C   UNL     1      45.492   2.056   9.348  0.00  0.00    +0.000 A 
BRANCH  16  23
ATOM     22  N   UNL     1      48.093   1.473   6.879  0.00  0.00    +0.000 N 
ATOM     23  C   UNL     1      46.987   1.068   7.574  0.00  0.00    +0.000 C 
ATOM     24  O   UNL     1      46.768  -0.117   7.782  0.00  0.00    +0.000 OA
ATOM     25  H   UNL     1      48.754   0.741   6.640  0.00  0.00    +0.000 HD
ATOM     26  H   UNL     1      48.449   2.420   6.926  0.00  0.00    +0.000 HD
ENDBRANCH  16  23
ENDBRANCH  15  20
ENDBRANCH   1  15
TORSDOF 4
ENDMDL
MODEL 2
REMARK VINA RESULT:    -8.378      2.557      3.600
REMARK INTER + INTRA:         -10.665
REMARK INTER:                 -10.045
REMARK INTRA:                  -0.619
REMARK UNBOUND:                -0.327
REMARK  Name = 
REMARK  4 active torsions:
REMARK  status: ('A' for Active; 'I' for Inactive)
REMARK    1  A    between atoms: C_2  and  C_4
REMARK    2  A    between atoms: C_8  and  C_9
REMARK    3  A    between atoms: C_9  and  N_10
REMARK    4  A    between atoms: C_15  and  C_16
REMARK                            x       y       z     vdW  Elec       q    Type
REMARK                         _______ _______ _______ _____ _____    ______ ____
ROOT
ATOM      1  N   UNL     1      45.119   5.520   9.572  0.00  0.00    +0.000 N 
ATOM      2  C   UNL     1      45.480   5.531  10.912  0.00  0.00    +0.000 A 
ATOM      3  N   UNL     1      44.768   4.825  11.799  0.00  0.00    +0.000 NA
ATOM      4  C   UNL     1      45.209   4.819  13.066  0.00  0.00    +0.000 A 
ATOM      5  C   UNL     1      46.340   5.478  13.474  0.00  0.00    +0.000 A 
ATOM      6  C   UNL     1      47.009   6.200  12.505  0.00  0.00    +0.000 A 
ATOM      7  N   UNL     1      46.560   6.251  11.230  0.00  0.00    +0.000 NA
ATOM      8  H   UNL     1      44.750   6.442   9.364  0.00  0.00    +0.000 HD
ENDROOT
BRANCH   6   9
ATOM      9  C   UNL     1      48.254   6.947  12.784  0.00  0.00    +0.000 A 
ATOM     10  C   UNL     1      48.889   7.701  11.779  0.00  0.00    +0.000 A 
ATOM     11  C   UNL     1      50.069   8.409  12.033  0.00  0.00    +0.000 A 
ATOM     12  C   UNL     1      50.639   8.381  13.302  0.00  0.00    +0.000 A 
ATOM     13  C   UNL     1      50.032   7.645  14.315  0.00  0.00    +0.000 A 
ATOM     14  C   UNL     1      48.855   6.937  14.057  0.00  0.00    +0.000 A 
ENDBRANCH   6   9
BRANCH   1  15
ATOM     15  C   UNL     1      44.244   4.430   9.197  0.00  0.00    +0.000 C 
BRANCH  15  20
ATOM     16  C   UNL     1      46.629   2.298   7.126  0.00  0.00    +0.000 A 
ATOM     17  C   UNL     1      46.391   1.071   7.724  0.00  0.00    +0.000 A 
ATOM     18  N   UNL     1      45.557   0.900   8.779  0.00  0.00    +0.000 NA
ATOM     19  C   UNL     1      44.919   2.003   9.236  0.00  0.00    +0.000 A 
ATOM     20  C   UNL     1      45.071   3.280   8.688  0.00  0.00    +0.000 A 
ATOM     21  C   UNL     1      45.948   3.419   7.604  0.00  0.00    +0.000 A 
BRANCH  16  23
ATOM     22  N   UNL     1      47.388   3.377   5.088  0.00  0.00    +0.000 N 
ATOM     23  C   UNL     1      47.567   2.361   5.986  0.00  0.00    +0.000 C 
ATOM     24  O   UNL     1      48.483   1.560   5.862  0.00  0.00    +0.000 OA
ATOM     25  H   UNL     1      48.113   3.474   4.384  0.00  0.00    +0.000 HD
ATOM     26  H   UNL     1      46.837   4.200   5.300  0.00  0.00    +0.000 HD
ENDBRANCH  16  23
ENDBRANCH  15  20
ENDBRANCH   1  15
TORSDOF 4
ENDMDL
MODEL 3
REMARK VINA RESULT:    -7.686      1.863      3.194
REMARK INTER + INTRA:          -9.810
REMARK INTER:                  -9.167
REMARK INTRA:                  -0.643
REMARK UNBOUND:                -0.327
REMARK  Name = 
REMARK  4 active torsions:
REMARK  status: ('A' for Active; 'I' for Inactive)
REMARK    1  A    between atoms: C_2  and  C_4
REMARK    2  A    between atoms: C_8  and  C_9
REMARK    3  A    between atoms: C_9  and  N_10
REMARK    4  A    between atoms: C_15  and  C_16
REMARK                            x       y       z     vdW  Elec       q    Type
REMARK                         _______ _______ _______ _____ _____    ______ ____
ROOT
ATOM      1  N   UNL     1      44.166   4.488  11.552  0.00  0.00    +0.000 N 
ATOM      2  C   UNL     1      45.270   4.568  12.388  0.00  0.00    +0.000 A 
ATOM      3  N   UNL     1      45.809   3.448  12.889  0.00  0.00    +0.000 NA
ATOM      4  C   UNL     1      46.917   3.586  13.632  0.00  0.00    +0.000 A 
ATOM      5  C   UNL     1      47.512   4.796  13.880  0.00  0.00    +0.000 A 
ATOM      6  C   UNL     1      46.887   5.906  13.346  0.00  0.00    +0.000 A 
ATOM      7  N   UNL     1      45.748   5.793  12.626  0.00  0.00    +0.000 NA
ATOM      8  H   UNL     1      43.378   4.856  12.076  0.00  0.00    +0.000 HD
ENDROOT
BRANCH   6   9
ATOM      9  C   UNL     1      47.418   7.275  13.510  0.00  0.00    +0.000 A 
ATOM     10  C   UNL     1      47.100   8.292  12.588  0.00  0.00    +0.000 A 
ATOM     11  C   UNL     1      47.600   9.591  12.733  0.00  0.00    +0.000 A 
ATOM     12  C   UNL     1      48.428   9.903  13.807  0.00  0.00    +0.000 A 
ATOM     13  C   UNL     1      48.759   8.919  14.733  0.00  0.00    +0.000 A 
ATOM     14  C   UNL     1      48.259   7.622  14.584  0.00  0.00    +0.000 A 
ENDBRANCH   6   9
BRANCH   1  15
ATOM     15  C   UNL     1      43.941   3.177  10.981  0.00  0.00    +0.000 C 
BRANCH  15  20
ATOM     16  C   UNL     1      46.087   2.042   8.043  0.00  0.00    +0.000 A 
ATOM     17  C   UNL     1      45.930   3.149   7.225  0.00  0.00    +0.000 A 
ATOM     18  N   UNL     1      45.140   4.206   7.536  0.00  0.00    +0.000 NA
ATOM     19  C   UNL     1      44.500   4.157   8.728  0.00  0.00    +0.000 A 
ATOM     20  C   UNL     1      44.610   3.099   9.635  0.00  0.00    +0.000 A 
ATOM     21  C   UNL     1      45.429   2.021   9.275  0.00  0.00    +0.000 A 
BRANCH  16  23
ATOM     22  N   UNL     1      48.077   1.298   6.868  0.00  0.00    +0.000 N 
ATOM     23  C   UNL     1      46.971   0.947   7.593  0.00  0.00    +0.000 C 
ATOM     24  O   UNL     1      46.744  -0.221   7.878  0.00  0.00    +0.000 OA
ATOM     25  H   UNL     1      48.731   0.546   6.674  0.00  0.00    +0.000 HD
ATOM     26  H   UNL     1      48.440   2.242   6.852  0.00  0.00    +0.000 HD
ENDBRANCH  16  23
ENDBRANCH  15  20
ENDBRANCH   1  15
TORSDOF 4
ENDMDL
MODEL 4
REMARK VINA RESULT:    -7.438      2.205      4.244
REMARK INTER + INTRA:          -9.505
REMARK INTER:                  -9.014
REMARK INTRA:                  -0.491
REMARK UNBOUND:                -0.327
REMARK  Name = 
REMARK  4 active torsions:
REMARK  status: ('A' for Active; 'I' for Inactive)
REMARK    1  A    between atoms: C_2  and  C_4
REMARK    2  A    between atoms: C_8  and  C_9
REMARK    3  A    between atoms: C_9  and  N_10
REMARK    4  A    between atoms: C_15  and  C_16
REMARK                            x       y       z     vdW  Elec       q    Type
REMARK                         _______ _______ _______ _____ _____    ______ ____
ROOT
ATOM      1  N   UNL     1      46.465   4.620  15.005  0.00  0.00    +0.000 N 
ATOM      2  C   UNL     1      47.250   4.028  15.985  0.00  0.00    +0.000 A 
ATOM      3  N   UNL     1      47.969   2.937  15.693  0.00  0.00    +0.000 NA
ATOM      4  C   UNL     1      48.762   2.454  16.661  0.00  0.00    +0.000 A 
ATOM      5  C   UNL     1      48.873   3.028  17.901  0.00  0.00    +0.000 A 
ATOM      6  C   UNL     1      48.085   4.139  18.133  0.00  0.00    +0.000 A 
ATOM      7  N   UNL     1      47.251   4.620  17.183  0.00  0.00    +0.000 NA
ATOM      8  H   UNL     1      45.499   4.441  15.261  0.00  0.00    +0.000 HD
ENDROOT
BRANCH   6   9
ATOM      9  C   UNL     1      48.109   4.880  19.412  0.00  0.00    +0.000 A 
ATOM     10  C   UNL     1      48.826   4.391  20.520  0.00  0.00    +0.000 A 
ATOM     11  C   UNL     1      48.853   5.084  21.736  0.00  0.00    +0.000 A 
ATOM     12  C   UNL     1      48.162   6.284  21.869  0.00  0.00    +0.000 A 
ATOM     13  C   UNL     1      47.445   6.791  20.790  0.00  0.00    +0.000 A 
ATOM     14  C   UNL     1      47.419   6.096  19.577  0.00  0.00    +0.000 A 
ENDBRANCH   6   9
BRANCH   1  15
ATOM     15  C   UNL     1      46.804   4.235  13.653  0.00  0.00    +0.000 C 
BRANCH  15  20
ATOM     16  C   UNL     1      44.368   3.637  10.784  0.00  0.00    +0.000 A 
ATOM     17  C   UNL     1      43.220   4.146  11.370  0.00  0.00    +0.000 A 
ATOM     18  N   UNL     1      43.172   4.617  12.641  0.00  0.00    +0.000 NA
ATOM     19  C   UNL     1      44.330   4.596  13.342  0.00  0.00    +0.000 A 
ATOM     20  C   UNL     1      45.546   4.126  12.835  0.00  0.00    +0.000 A 
ATOM     21  C   UNL     1      45.554   3.640  11.521  0.00  0.00    +0.000 A 
BRANCH  16  23
ATOM     22  N   UNL     1      44.188   4.086   8.405  0.00  0.00    +0.000 N 
ATOM     23  C   UNL     1      44.295   3.146   9.392  0.00  0.00    +0.000 C 
ATOM     24  O   UNL     1      44.356   1.953   9.128  0.00  0.00    +0.000 OA
ATOM     25  H   UNL     1      44.262   3.735   7.455  0.00  0.00    +0.000 HD
ATOM     26  H   UNL     1      44.412   5.062   8.556  0.00  0.00    +0.000 HD
ENDBRANCH  16  23
ENDBRANCH  15  20
ENDBRANCH   1  15
TORSDOF 4
ENDMDL
MODEL 5
REMARK VINA RESULT:    -7.286      4.809      7.909
REMARK INTER + INTRA:          -9.317
REMARK INTER:                  -8.683
REMARK INTRA:                  -0.635
REMARK UNBOUND:                -0.327
REMARK  Name = 
REMARK  4 active torsions:
REMARK  status: ('A' for Active; 'I' for Inactive)
REMARK    1  A    between atoms: C_2  and  C_4
REMARK    2  A    between atoms: C_8  and  C_9
REMARK    3  A    between atoms: C_9  and  N_10
REMARK    4  A    between atoms: C_15  and  C_16
REMARK                            x       y       z     vdW  Elec       q    Type
REMARK                         _______ _______ _______ _____ _____    ______ ____
ROOT
ATOM      1  N   UNL     1      45.954   7.349  12.047  0.00  0.00    +0.000 N 
ATOM      2  C   UNL     1      45.149   6.308  11.606  0.00  0.00    +0.000 A 
ATOM      3  N   UNL     1      43.909   6.174  12.091  0.00  0.00    +0.000 NA
ATOM      4  C   UNL     1      43.156   5.192  11.573  0.00  0.00    +0.000 A 
ATOM      5  C   UNL     1      43.591   4.352  10.580  0.00  0.00    +0.000 A 
ATOM      6  C   UNL     1      44.889   4.540  10.146  0.00  0.00    +0.000 A 
ATOM      7  N   UNL     1      45.678   5.500  10.681  0.00  0.00    +0.000 NA
ATOM      8  H   UNL     1      46.684   6.930  12.615  0.00  0.00    +0.000 HD
ENDROOT
BRANCH   6   9
ATOM      9  C   UNL     1      45.495   3.728   9.070  0.00  0.00    +0.000 A 
ATOM     10  C   UNL     1      45.488   2.321   9.131  0.00  0.00    +0.000 A 
ATOM     11  C   UNL     1      46.061   1.544   8.118  0.00  0.00    +0.000 A 
ATOM     12  C   UNL     1      46.653   2.157   7.019  0.00  0.00    +0.000 A 
ATOM     13  C   UNL     1      46.674   3.546   6.932  0.00  0.00    +0.000 A 
ATOM     14  C   UNL     1      46.102   4.320   7.946  0.00  0.00    +0.000 A 
ENDBRANCH   6   9
BRANCH   1  15
ATOM     15  C   UNL     1      45.238   8.425  12.697  0.00  0.00    +0.000 C 
BRANCH  15  20
ATOM     16  C   UNL     1      44.195  10.793   9.899  0.00  0.00    +0.000 A 
ATOM     17  C   UNL     1      45.229  11.711  10.001  0.00  0.00    +0.000 A 
ATOM     18  N   UNL     1      46.202  11.642  10.943  0.00  0.00    +0.000 NA
ATOM     19  C   UNL     1      46.147  10.597  11.800  0.00  0.00    +0.000 A 
ATOM     20  C   UNL     1      45.162   9.605  11.767  0.00  0.00    +0.000 A 
ATOM     21  C   UNL     1      44.168   9.715  10.785  0.00  0.00    +0.000 A 
BRANCH  16  23
ATOM     22  N   UNL     1      43.551  10.626   7.565  0.00  0.00    +0.000 N 
ATOM     23  C   UNL     1      43.186  10.977   8.835  0.00  0.00    +0.000 C 
ATOM     24  O   UNL     1      42.064  11.396   9.080  0.00  0.00    +0.000 OA
ATOM     25  H   UNL     1      42.808  10.645   6.873  0.00  0.00    +0.000 HD
ATOM     26  H   UNL     1      44.347  10.030   7.372  0.00  0.00    +0.000 HD
ENDBRANCH  16  23
ENDBRANCH  15  20
ENDBRANCH   1  15
TORSDOF 4
ENDMDL
MODEL 6
REMARK VINA RESULT:    -7.219      3.356      5.215
REMARK INTER + INTRA:          -9.234
REMARK INTER:                  -8.769
REMARK INTRA:                  -0.465
REMARK UNBOUND:                -0.327
REMARK  Name = 
REMARK  4 active torsions:
REMARK  status: ('A' for Active; 'I' for Inactive)
REMARK    1  A    between atoms: C_2  and  C_4
REMARK    2  A    between atoms: C_8  and  C_9
REMARK    3  A    between atoms: C_9  and  N_10
REMARK    4  A    between atoms: C_15  and  C_16
REMARK                            x       y       z     vdW  Elec       q    Type
REMARK                         _______ _______ _______ _____ _____    ______ ____
ROOT
ATOM      1  N   UNL     1      46.541   4.382  14.986  0.00  0.00    +0.000 N 
ATOM      2  C   UNL     1      47.364   3.891  15.989  0.00  0.00    +0.000 A 
ATOM      3  N   UNL     1      48.153   2.836  15.747  0.00  0.00    +0.000 NA
ATOM      4  C   UNL     1      48.976   2.453  16.733  0.00  0.00    +0.000 A 
ATOM      5  C   UNL     1      49.051   3.092  17.944  0.00  0.00    +0.000 A 
ATOM      6  C   UNL     1      48.193   4.159  18.126  0.00  0.00    +0.000 A 
ATOM      7  N   UNL     1      47.328   4.538  17.158  0.00  0.00    +0.000 NA
ATOM      8  H   UNL     1      45.590   4.153  15.253  0.00  0.00    +0.000 HD
ENDROOT
BRANCH   6   9
ATOM      9  C   UNL     1      48.169   4.960  19.368  0.00  0.00    +0.000 A 
ATOM     10  C   UNL     1      47.544   6.222  19.406  0.00  0.00    +0.000 A 
ATOM     11  C   UNL     1      47.518   6.988  20.576  0.00  0.00    +0.000 A 
ATOM     12  C   UNL     1      48.115   6.508  21.737  0.00  0.00    +0.000 A 
ATOM     13  C   UNL     1      48.739   5.264  21.729  0.00  0.00    +0.000 A 
ATOM     14  C   UNL     1      48.765   4.501  20.558  0.00  0.00    +0.000 A 
ENDBRANCH   6   9
BRANCH   1  15
ATOM     15  C   UNL     1      46.904   3.956  13.652  0.00  0.00    +0.000 C 
BRANCH  15  20
ATOM     16  C   UNL     1      44.507   6.114  11.622  0.00  0.00    +0.000 A 
ATOM     17  C   UNL     1      43.769   5.105  11.022  0.00  0.00    +0.000 A 
ATOM     18  N   UNL     1      44.029   3.785  11.188  0.00  0.00    +0.000 NA
ATOM     19  C   UNL     1      45.057   3.466  12.009  0.00  0.00    +0.000 A 
ATOM     20  C   UNL     1      45.846   4.405  12.680  0.00  0.00    +0.000 A 
ATOM     21  C   UNL     1      45.553   5.760  12.476  0.00  0.00    +0.000 A 
BRANCH  16  23
ATOM     22  N   UNL     1      42.837   7.759  10.990  0.00  0.00    +0.000 N 
ATOM     23  C   UNL     1      44.132   7.519  11.359  0.00  0.00    +0.000 C 
ATOM     24  O   UNL     1      44.934   8.433  11.492  0.00  0.00    +0.000 OA
ATOM     25  H   UNL     1      42.571   8.738  10.933  0.00  0.00    +0.000 HD
ATOM     26  H   UNL     1      42.096   7.086  11.138  0.00  0.00    +0.000 HD
ENDBRANCH  16  23
ENDBRANCH  15  20
ENDBRANCH   1  15
TORSDOF 4
ENDMDL
MODEL 7
REMARK VINA RESULT:    -7.081      2.501      4.313
REMARK INTER + INTRA:          -9.064
REMARK INTER:                  -8.597
REMARK INTRA:                  -0.467
REMARK UNBOUND:                -0.327
REMARK  Name = 
REMARK  4 active torsions:
REMARK  status: ('A' for Active; 'I' for Inactive)
REMARK    1  A    between atoms: C_2  and  C_4
REMARK    2  A    between atoms: C_8  and  C_9
REMARK    3  A    between atoms: C_9  and  N_10
REMARK    4  A    between atoms: C_15  and  C_16
REMARK                            x       y       z     vdW  Elec       q    Type
REMARK                         _______ _______ _______ _____ _____    ______ ____
ROOT
ATOM      1  N   UNL     1      47.117   5.078  14.903  0.00  0.00    +0.000 N 
ATOM      2  C   UNL     1      47.589   4.396  16.016  0.00  0.00    +0.000 A 
ATOM      3  N   UNL     1      46.759   3.618  16.722  0.00  0.00    +0.000 NA
ATOM      4  C   UNL     1      47.291   2.930  17.744  0.00  0.00    +0.000 A 
ATOM      5  C   UNL     1      48.620   2.979  18.074  0.00  0.00    +0.000 A 
ATOM      6  C   UNL     1      49.410   3.819  17.311  0.00  0.00    +0.000 A 
ATOM      7  N   UNL     1      48.886   4.550  16.301  0.00  0.00    +0.000 NA
ATOM      8  H   UNL     1      47.098   6.062  15.153  0.00  0.00    +0.000 HD
ENDROOT
BRANCH   6   9
ATOM      9  C   UNL     1      50.863   3.964  17.531  0.00  0.00    +0.000 A 
ATOM     10  C   UNL     1      51.666   2.848  17.838  0.00  0.00    +0.000 A 
ATOM     11  C   UNL     1      53.044   2.976  18.050  0.00  0.00    +0.000 A 
ATOM     12  C   UNL     1      53.650   4.225  17.958  0.00  0.00    +0.000 A 
ATOM     13  C   UNL     1      52.881   5.345  17.657  0.00  0.00    +0.000 A 
ATOM     14  C   UNL     1      51.505   5.215  17.447  0.00  0.00    +0.000 A 
ENDBRANCH   6   9
BRANCH   1  15
ATOM     15  C   UNL     1      45.867   4.573  14.378  0.00  0.00    +0.000 C 
BRANCH  15  20
ATOM     16  C   UNL     1      45.126   4.455  10.642  0.00  0.00    +0.000 A 
ATOM     17  C   UNL     1      45.768   5.622  10.261  0.00  0.00    +0.000 A 
ATOM     18  N   UNL     1      46.374   6.465  11.134  0.00  0.00    +0.000 NA
ATOM     19  C   UNL     1      46.352   6.107  12.439  0.00  0.00    +0.000 A 
ATOM     20  C   UNL     1      45.754   4.940  12.923  0.00  0.00    +0.000 A 
ATOM     21  C   UNL     1      45.130   4.099  11.992  0.00  0.00    +0.000 A 
BRANCH  16  23
ATOM     22  N   UNL     1      44.068   4.256   8.466  0.00  0.00    +0.000 N 
ATOM     23  C   UNL     1      44.495   3.620   9.599  0.00  0.00    +0.000 C 
ATOM     24  O   UNL     1      44.383   2.408   9.726  0.00  0.00    +0.000 OA
ATOM     25  H   UNL     1      43.750   3.651   7.715  0.00  0.00    +0.000 HD
ATOM     26  H   UNL     1      44.387   5.182   8.209  0.00  0.00    +0.000 HD
ENDBRANCH  16  23
ENDBRANCH  15  20
ENDBRANCH   1  15
TORSDOF 4
ENDMDL
MODEL 8
REMARK VINA RESULT:    -6.778      4.728      8.046
REMARK INTER + INTRA:          -8.690
REMARK INTER:                  -8.131
REMARK INTRA:                  -0.559
REMARK UNBOUND:                -0.327
REMARK  Name = 
REMARK  4 active torsions:
REMARK  status: ('A' for Active; 'I' for Inactive)
REMARK    1  A    between atoms: C_2  and  C_4
REMARK    2  A    between atoms: C_8  and  C_9
REMARK    3  A    between atoms: C_9  and  N_10
REMARK    4  A    between atoms: C_15  and  C_16
REMARK                            x       y       z     vdW  Elec       q    Type
REMARK                         _______ _______ _______ _____ _____    ______ ____
ROOT
ATOM      1  N   UNL     1      46.239   6.986  12.281  0.00  0.00    +0.000 N 
ATOM      2  C   UNL     1      45.323   6.159  11.645  0.00  0.00    +0.000 A 
ATOM      3  N   UNL     1      44.020   6.266  11.931  0.00  0.00    +0.000 NA
ATOM      4  C   UNL     1      43.178   5.490  11.231  0.00  0.00    +0.000 A 
ATOM      5  C   UNL     1      43.590   4.625  10.250  0.00  0.00    +0.000 A 
ATOM      6  C   UNL     1      44.952   4.557  10.026  0.00  0.00    +0.000 A 
ATOM      7  N   UNL     1      45.820   5.303  10.747  0.00  0.00    +0.000 NA
ATOM      8  H   UNL     1      46.770   6.396  12.915  0.00  0.00    +0.000 HD
ENDROOT
BRANCH   6   9
ATOM      9  C   UNL     1      45.547   3.688   8.990  0.00  0.00    +0.000 A 
ATOM     10  C   UNL     1      46.171   4.238   7.853  0.00  0.00    +0.000 A 
ATOM     11  C   UNL     1      46.736   3.423   6.866  0.00  0.00    +0.000 A 
ATOM     12  C   UNL     1      46.690   2.038   6.994  0.00  0.00    +0.000 A 
ATOM     13  C   UNL     1      46.080   1.468   8.106  0.00  0.00    +0.000 A 
ATOM     14  C   UNL     1      45.515   2.284   9.091  0.00  0.00    +0.000 A 
ENDBRANCH   6   9
BRANCH   1  15
ATOM     15  C   UNL     1      45.658   8.156  12.902  0.00  0.00    +0.000 C 
BRANCH  15  20
ATOM     16  C   UNL     1      47.805  10.864  11.296  0.00  0.00    +0.000 A 
ATOM     17  C   UNL     1      46.800  11.754  10.949  0.00  0.00    +0.000 A 
ATOM     18  N   UNL     1      45.481  11.512  11.151  0.00  0.00    +0.000 NA
ATOM     19  C   UNL     1      45.162  10.340  11.747  0.00  0.00    +0.000 A 
ATOM     20  C   UNL     1      46.099   9.387  12.157  0.00  0.00    +0.000 A 
ATOM     21  C   UNL     1      47.452   9.668  11.923  0.00  0.00    +0.000 A 
BRANCH  16  23
ATOM     22  N   UNL     1      50.167  10.302  11.300  0.00  0.00    +0.000 N 
ATOM     23  C   UNL     1      49.208  11.236  11.019  0.00  0.00    +0.000 C 
ATOM     24  O   UNL     1      49.501  12.319  10.532  0.00  0.00    +0.000 OA
ATOM     25  H   UNL     1      51.106  10.530  10.990  0.00  0.00    +0.000 HD
ATOM     26  H   UNL     1      49.949   9.322  11.434  0.00  0.00    +0.000 HD
ENDBRANCH  16  23
ENDBRANCH  15  20
ENDBRANCH   1  15
TORSDOF 4
ENDMDL
MODEL 9
REMARK VINA RESULT:    -6.561      3.488      4.902
REMARK INTER + INTRA:          -8.422
REMARK INTER:                  -7.819
REMARK INTRA:                  -0.603
REMARK UNBOUND:                -0.327
REMARK  Name = 
REMARK  4 active torsions:
REMARK  status: ('A' for Active; 'I' for Inactive)
REMARK    1  A    between atoms: C_2  and  C_4
REMARK    2  A    between atoms: C_8  and  C_9
REMARK    3  A    between atoms: C_9  and  N_10
REMARK    4  A    between atoms: C_15  and  C_16
REMARK                            x       y       z     vdW  Elec       q    Type
REMARK                         _______ _______ _______ _____ _____    ______ ____
ROOT
ATOM      1  N   UNL     1      45.644   6.791  10.961  0.00  0.00    +0.000 N 
ATOM      2  C   UNL     1      46.678   6.892  11.881  0.00  0.00    +0.000 A 
ATOM      3  N   UNL     1      46.502   6.442  13.130  0.00  0.00    +0.000 NA
ATOM      4  C   UNL     1      47.561   6.502  13.953  0.00  0.00    +0.000 A 
ATOM      5  C   UNL     1      48.787   6.980  13.569  0.00  0.00    +0.000 A 
ATOM      6  C   UNL     1      48.884   7.444  12.271  0.00  0.00    +0.000 A 
ATOM      7  N   UNL     1      47.819   7.427  11.437  0.00  0.00    +0.000 NA
ATOM      8  H   UNL     1      45.311   7.736  10.795  0.00  0.00    +0.000 HD
ENDROOT
BRANCH   6   9
ATOM      9  C   UNL     1      50.143   7.970  11.704  0.00  0.00    +0.000 A 
ATOM     10  C   UNL     1      50.630   9.240  12.072  0.00  0.00    +0.000 A 
ATOM     11  C   UNL     1      51.820   9.747  11.540  0.00  0.00    +0.000 A 
ATOM     12  C   UNL     1      52.553   8.994  10.627  0.00  0.00    +0.000 A 
ATOM     13  C   UNL     1      52.096   7.736  10.246  0.00  0.00    +0.000 A 
ATOM     14  C   UNL     1      50.906   7.232  10.779  0.00  0.00    +0.000 A 
ENDBRANCH   6   9
BRANCH   1  15
ATOM     15  C   UNL     1      44.608   5.850  11.325  0.00  0.00    +0.000 C 
BRANCH  15  20
ATOM     16  C   UNL     1      45.567   3.428   8.542  0.00  0.00    +0.000 A 
ATOM     17  C   UNL     1      44.760   2.360   8.902  0.00  0.00    +0.000 A 
ATOM     18  N   UNL     1      43.974   2.353  10.007  0.00  0.00    +0.000 NA
ATOM     19  C   UNL     1      43.982   3.473  10.767  0.00  0.00    +0.000 A 
ATOM     20  C   UNL     1      44.739   4.612  10.478  0.00  0.00    +0.000 A 
ATOM     21  C   UNL     1      45.546   4.579   9.332  0.00  0.00    +0.000 A 
BRANCH  16  23
ATOM     22  N   UNL     1      46.972   2.106   7.069  0.00  0.00    +0.000 N 
ATOM     23  C   UNL     1      46.386   3.316   7.318  0.00  0.00    +0.000 C 
ATOM     24  O   UNL     1      46.514   4.254   6.542  0.00  0.00    +0.000 OA
ATOM     25  H   UNL     1      47.428   2.015   6.166  0.00  0.00    +0.000 HD
ATOM     26  H   UNL     1      46.670   1.252   7.522  0.00  0.00    +0.000 HD
ENDBRANCH  16  23
ENDBRANCH  15  20
ENDBRANCH   1  15
TORSDOF 4
ENDMDL
