MODEL 1
REMARK VINA RESULT:    -8.557      0.000      0.000
REMARK INTER + INTRA:         -12.418
REMARK INTER:                 -11.559
REMARK INTRA:                  -0.859
REMARK UNBOUND:                -0.859
REMARK  Name = 
REMARK  6 active torsions:
REMARK  status: ('A' for Active; 'I' for Inactive)
REMARK    1  A    between atoms: C_2  and  C_25
REMARK    2  A    between atoms: N_3  and  C_4
REMARK    3  A    between atoms: C_4  and  C_5
REMARK    4  A    between atoms: C_8  and  C_9
REMARK    5  A    between atoms: C_9  and  N_10
REMARK    6  A    between atoms: C_11  and  C_13
REMARK                            x       y       z     vdW  Elec       q    Type
REMARK                         _______ _______ _______ _____ _____    ______ ____
ROOT
ATOM      1  C   UNL     1      45.752   4.311  12.945  0.00  0.00    +0.000 A 
ATOM      2  C   UNL     1      46.043   5.575  12.436  0.00  0.00    +0.000 A 
ATOM      3  C   UNL     1      46.896   6.416  13.151  0.00  0.00    +0.000 A 
ATOM      4  C   UNL     1      47.428   5.994  14.371  0.00  0.00    +0.000 A 
ATOM      5  C   UNL     1      47.081   4.717  14.802  0.00  0.00    +0.000 A 
ATOM      6  N   UNL     1      46.251   3.880  14.132  0.00  0.00    +0.000 NA
ENDROOT
BRANCH   1   7
ATOM      7  C   UNL     1      44.850   3.373  12.173  0.00  0.00    +0.000 C 
BRANCH   7  10
ATOM      8  O   UNL     1      43.931   4.071   9.625  0.00  0.00    +0.000 OA
ATOM      9  C   UNL     1      44.933   3.371   9.721  0.00  0.00    +0.000 C 
ATOM     10  N   UNL     1      45.444   2.934  10.924  0.00  0.00    +0.000 N 
ATOM     11  H   UNL     1      46.405   2.620  10.970  0.00  0.00    +0.000 HD
BRANCH   9  12
ATOM     12  C   UNL     1      45.673   2.971   8.494  0.00  0.00    +0.000 A 
ATOM     13  C   UNL     1      46.103   1.641   8.373  0.00  0.00    +0.000 A 
ATOM     14  C   UNL     1      46.827   1.236   7.250  0.00  0.00    +0.000 A 
ATOM     15  C   UNL     1      47.132   2.165   6.261  0.00  0.00    +0.000 A 
ATOM     16  F   UNL     1      47.835   1.780   5.188  0.00  0.00    +0.000 F 
ATOM     17  C   UNL     1      46.728   3.492   6.375  0.00  0.00    +0.000 A 
ATOM     18  C   UNL     1      45.995   3.900   7.493  0.00  0.00    +0.000 A 
ENDBRANCH   9  12
ENDBRANCH   7  10
ENDBRANCH   1   7
BRANCH   4  19
ATOM     19  C   UNL     1      48.365   6.859  15.166  0.00  0.00    +0.000 C 
BRANCH  19  20
ATOM     20  N   UNL     1      49.470   6.096  15.686  0.00  0.00    +0.000 N 
ATOM     21  C   UNL     1      49.579   5.799  17.021  0.00  0.00    +0.000 C 
ATOM     22  O   UNL     1      48.718   6.123  17.835  0.00  0.00    +0.000 OA
ATOM     23  H   UNL     1      50.303   6.047  15.106  0.00  0.00    +0.000 HD
BRANCH  21  24
ATOM     24  C   UNL     1      50.754   5.008  17.415  0.00  0.00    +0.000 A 
ATOM     25  C   UNL     1      51.900   5.643  17.876  0.00  0.00    +0.000 A 
ATOM     26  S   UNL     1      53.132   4.565  18.358  0.00  0.00    +0.000 S 
ATOM     27  C   UNL     1      52.202   3.213  17.909  0.00  0.00    +0.000 A 
ATOM     28  N   UNL     1      52.688   1.950  18.047  0.00  0.00    +0.000 NA
ATOM     29  C   UNL     1      51.884   1.020  17.643  0.00  0.00    +0.000 A 
ATOM     30  N   UNL     1      50.641   1.243  17.115  0.00  0.00    +0.000 N 
ATOM     31  C   UNL     1      50.098   2.499  16.984  0.00  0.00    +0.000 A 
ATOM     32  O   UNL     1      48.964   2.658  16.542  0.00  0.00    +0.000 OA
ATOM     33  C   UNL     1      50.961   3.578  17.417  0.00  0.00    +0.000 A 
ATOM     34  H   UNL     1      50.058   0.474  16.821  0.00  0.00    +0.000 HD
ENDBRANCH  21  24
ENDBRANCH  19  20
ENDBRANCH   4  19
TORSDOF 6
ENDMDL
MODEL 2
REMARK VINA RESULT:    -8.390      2.513      3.649
REMARK INTER + INTRA:         -12.192
REMARK INTER:                 -11.257
REMARK INTRA:                  -0.936
REMARK UNBOUND:                -0.859
REMARK  Name = 
REMARK  6 active torsions:
REMARK  status: ('A' for Active; 'I' for Inactive)
REMARK    1  A    between atoms: C_2  and  C_25
REMARK    2  A    between atoms: N_3  and  C_4
REMARK    3  A    between atoms: C_4  and  C_5
REMARK    4  A    between atoms: C_8  and  C_9
REMARK    5  A    between atoms: C_9  and  N_10
REMARK    6  A    between atoms: C_11  and  C_13
REMARK                            x       y       z     vdW  Elec       q    Type
REMARK                         _______ _______ _______ _____ _____    ______ ____
ROOT
ATOM      1  C   UNL     1      45.590   4.140  12.734  0.00  0.00    +0.000 A 
ATOM      2  C   UNL     1      45.704   5.484  12.381  0.00  0.00    +0.000 A 
ATOM      3  C   UNL     1      46.584   6.300  13.092  0.00  0.00    +0.000 A 
ATOM      4  C   UNL     1      47.319   5.773  14.155  0.00  0.00    +0.000 A 
ATOM      5  C   UNL     1      47.141   4.422  14.435  0.00  0.00    +0.000 A 
ATOM      6  N   UNL     1      46.289   3.605  13.766  0.00  0.00    +0.000 NA
ENDROOT
BRANCH   1   7
ATOM      7  C   UNL     1      44.661   3.231  11.959  0.00  0.00    +0.000 C 
BRANCH   7  10
ATOM      8  O   UNL     1      44.173   4.314   9.427  0.00  0.00    +0.000 OA
ATOM      9  C   UNL     1      44.972   3.390   9.530  0.00  0.00    +0.000 C 
ATOM     10  N   UNL     1      45.252   2.756  10.722  0.00  0.00    +0.000 N 
ATOM     11  H   UNL     1      46.106   2.220  10.809  0.00  0.00    +0.000 HD
BRANCH   9  12
ATOM     12  C   UNL     1      45.712   2.917   8.330  0.00  0.00    +0.000 A 
ATOM     13  C   UNL     1      46.178   1.594   8.307  0.00  0.00    +0.000 A 
ATOM     14  C   UNL     1      46.903   1.123   7.210  0.00  0.00    +0.000 A 
ATOM     15  C   UNL     1      47.173   1.980   6.149  0.00  0.00    +0.000 A 
ATOM     16  F   UNL     1      47.876   1.533   5.101  0.00  0.00    +0.000 F 
ATOM     17  C   UNL     1      46.732   3.300   6.165  0.00  0.00    +0.000 A 
ATOM     18  C   UNL     1      45.999   3.774   7.257  0.00  0.00    +0.000 A 
ENDBRANCH   9  12
ENDBRANCH   7  10
ENDBRANCH   1   7
BRANCH   4  19
ATOM     19  C   UNL     1      48.292   6.611  14.935  0.00  0.00    +0.000 C 
BRANCH  19  20
ATOM     20  N   UNL     1      48.129   6.421  16.354  0.00  0.00    +0.000 N 
ATOM     21  C   UNL     1      49.110   5.852  17.125  0.00  0.00    +0.000 C 
ATOM     22  O   UNL     1      50.197   5.519  16.659  0.00  0.00    +0.000 OA
ATOM     23  H   UNL     1      47.177   6.436  16.710  0.00  0.00    +0.000 HD
BRANCH  21  24
ATOM     24  C   UNL     1      48.815   5.723  18.559  0.00  0.00    +0.000 A 
ATOM     25  C   UNL     1      49.057   4.524  19.217  0.00  0.00    +0.000 A 
ATOM     26  S   UNL     1      48.726   4.583  20.890  0.00  0.00    +0.000 S 
ATOM     27  C   UNL     1      48.189   6.194  20.784  0.00  0.00    +0.000 A 
ATOM     28  N   UNL     1      47.737   6.857  21.883  0.00  0.00    +0.000 NA
ATOM     29  C   UNL     1      47.336   8.065  21.652  0.00  0.00    +0.000 A 
ATOM     30  N   UNL     1      47.348   8.666  20.421  0.00  0.00    +0.000 N 
ATOM     31  C   UNL     1      47.823   8.046  19.291  0.00  0.00    +0.000 A 
ATOM     32  O   UNL     1      47.855   8.630  18.211  0.00  0.00    +0.000 OA
ATOM     33  C   UNL     1      48.279   6.686  19.493  0.00  0.00    +0.000 A 
ATOM     34  H   UNL     1      47.026   9.615  20.306  0.00  0.00    +0.000 HD
ENDBRANCH  21  24
ENDBRANCH  19  20
ENDBRANCH   4  19
TORSDOF 6
ENDMDL
MODEL 3
REMARK VINA RESULT:    -7.957      2.296      2.534
REMARK INTER + INTRA:         -11.607
REMARK INTER:                 -10.613
REMARK INTRA:                  -0.994
REMARK UNBOUND:                -0.859
REMARK  Name = 
REMARK  6 active torsions:
REMARK  status: ('A' for Active; 'I' for Inactive)
REMARK    1  A    between atoms: C_2  and  C_25
REMARK    2  A    between atoms: N_3  and  C_4
REMARK    3  A    between atoms: C_4  and  C_5
REMARK    4  A    between atoms: C_8  and  C_9
REMARK    5  A    between atoms: C_9  and  N_10
REMARK    6  A    between atoms: C_11  and  C_13
REMARK                            x       y       z     vdW  Elec       q    Type
REMARK                         _______ _______ _______ _____ _____    ______ ____
ROOT
ATOM      1  C   UNL     1      45.298   6.434  11.628  0.00  0.00    +0.000 A 
ATOM      2  C   UNL     1      44.805   7.670  12.045  0.00  0.00    +0.000 A 
ATOM      3  C   UNL     1      45.585   8.465  12.884  0.00  0.00    +0.000 A 
ATOM      4  C   UNL     1      46.833   8.010  13.313  0.00  0.00    +0.000 A 
ATOM      5  C   UNL     1      47.244   6.764  12.847  0.00  0.00    +0.000 A 
ATOM      6  N   UNL     1      46.505   5.966  12.036  0.00  0.00    +0.000 NA
ENDROOT
BRANCH   1   7
ATOM      7  C   UNL     1      44.479   5.567  10.697  0.00  0.00    +0.000 C 
BRANCH   7  10
ATOM      8  O   UNL     1      44.168   2.926   9.829  0.00  0.00    +0.000 OA
ATOM      9  C   UNL     1      45.026   3.625   9.300  0.00  0.00    +0.000 C 
ATOM     10  N   UNL     1      45.291   4.923   9.682  0.00  0.00    +0.000 N 
ATOM     11  H   UNL     1      45.782   5.536   9.044  0.00  0.00    +0.000 HD
BRANCH   9  12
ATOM     12  C   UNL     1      45.826   3.081   8.170  0.00  0.00    +0.000 A 
ATOM     13  C   UNL     1      46.254   1.746   8.232  0.00  0.00    +0.000 A 
ATOM     14  C   UNL     1      47.034   1.210   7.205  0.00  0.00    +0.000 A 
ATOM     15  C   UNL     1      47.395   2.013   6.130  0.00  0.00    +0.000 A 
ATOM     16  F   UNL     1      48.150   1.503   5.149  0.00  0.00    +0.000 F 
ATOM     17  C   UNL     1      46.992   3.344   6.063  0.00  0.00    +0.000 A 
ATOM     18  C   UNL     1      46.205   3.883   7.084  0.00  0.00    +0.000 A 
ENDBRANCH   9  12
ENDBRANCH   7  10
ENDBRANCH   1   7
BRANCH   4  19
ATOM     19  C   UNL     1      47.715   8.841  14.202  0.00  0.00    +0.000 C 
BRANCH  19  20
ATOM     20  N   UNL     1      48.059   8.134  15.409  0.00  0.00    +0.000 N 
ATOM     21  C   UNL     1      49.338   7.705  15.656  0.00  0.00    +0.000 C 
ATOM     22  O   UNL     1      50.267   7.941  14.887  0.00  0.00    +0.000 OA
ATOM     23  H   UNL     1      47.294   7.704  15.919  0.00  0.00    +0.000 HD
BRANCH  21  24
ATOM     24  C   UNL     1      49.552   7.002  16.929  0.00  0.00    +0.000 A 
ATOM     25  C   UNL     1      50.314   7.589  17.931  0.00  0.00    +0.000 A 
ATOM     26  S   UNL     1      50.390   6.663  19.363  0.00  0.00    +0.000 S 
ATOM     27  C   UNL     1      49.459   5.417  18.674  0.00  0.00    +0.000 A 
ATOM     28  N   UNL     1      49.164   4.290  19.377  0.00  0.00    +0.000 NA
ATOM     29  C   UNL     1      48.471   3.416  18.721  0.00  0.00    +0.000 A 
ATOM     30  N   UNL     1      48.051   3.570  17.426  0.00  0.00    +0.000 N 
ATOM     31  C   UNL     1      48.301   4.701  16.688  0.00  0.00    +0.000 A 
ATOM     32  O   UNL     1      47.875   4.821  15.543  0.00  0.00    +0.000 OA
ATOM     33  C   UNL     1      49.079   5.711  17.375  0.00  0.00    +0.000 A 
ATOM     34  H   UNL     1      47.509   2.852  16.970  0.00  0.00    +0.000 HD
ENDBRANCH  21  24
ENDBRANCH  19  20
ENDBRANCH   4  19
TORSDOF 6
ENDMDL
MODEL 4
REMARK VINA RESULT:    -7.736      3.246      3.753
REMARK INTER + INTRA:         -11.309
REMARK INTER:                 -10.352
REMARK INTRA:                  -0.956
REMARK UNBOUND:                -0.859
REMARK  Name = 
REMARK  6 active torsions:
REMARK  status: ('A' for Active; 'I' for Inactive)
REMARK    1  A    between atoms: C_2  and  C_25
REMARK    2  A    between atoms: N_3  and  C_4
REMARK    3  A    between atoms: C_4  and  C_5
REMARK    4  A    between atoms: C_8  and  C_9
REMARK    5  A    between atoms: C_9  and  N_10
REMARK    6  A    between atoms: C_11  and  C_13
REMARK                            x       y       z     vdW  Elec       q    Type
REMARK                         _______ _______ _______ _____ _____    ______ ____
ROOT
ATOM      1  C   UNL     1      45.398   5.334  12.671  0.00  0.00    +0.000 A 
ATOM      2  C   UNL     1      46.553   5.117  13.420  0.00  0.00    +0.000 A 
ATOM      3  C   UNL     1      47.278   6.215  13.885  0.00  0.00    +0.000 A 
ATOM      4  C   UNL     1      46.854   7.510  13.579  0.00  0.00    +0.000 A 
ATOM      5  C   UNL     1      45.690   7.630  12.825  0.00  0.00    +0.000 A 
ATOM      6  N   UNL     1      44.968   6.582  12.355  0.00  0.00    +0.000 NA
ENDROOT
BRANCH   1   7
ATOM      7  C   UNL     1      44.583   4.158  12.180  0.00  0.00    +0.000 C 
BRANCH   7  10
ATOM      8  O   UNL     1      43.789   4.519   9.522  0.00  0.00    +0.000 OA
ATOM      9  C   UNL     1      44.742   3.785   9.759  0.00  0.00    +0.000 C 
ATOM     10  N   UNL     1      45.187   3.504  11.034  0.00  0.00    +0.000 N 
ATOM     11  H   UNL     1      46.125   3.146  11.163  0.00  0.00    +0.000 HD
BRANCH   9  12
ATOM     12  C   UNL     1      45.493   3.165   8.635  0.00  0.00    +0.000 A 
ATOM     13  C   UNL     1      45.818   1.802   8.715  0.00  0.00    +0.000 A 
ATOM     14  C   UNL     1      46.549   1.193   7.694  0.00  0.00    +0.000 A 
ATOM     15  C   UNL     1      46.967   1.950   6.605  0.00  0.00    +0.000 A 
ATOM     16  F   UNL     1      47.676   1.369   5.630  0.00  0.00    +0.000 F 
ATOM     17  C   UNL     1      46.668   3.307   6.520  0.00  0.00    +0.000 A 
ATOM     18  C   UNL     1      45.929   3.920   7.536  0.00  0.00    +0.000 A 
ENDBRANCH   9  12
ENDBRANCH   7  10
ENDBRANCH   1   7
BRANCH   4  19
ATOM     19  C   UNL     1      47.593   8.721  14.074  0.00  0.00    +0.000 C 
BRANCH  19  20
ATOM     20  N   UNL     1      47.555   8.808  15.511  0.00  0.00    +0.000 N 
ATOM     21  C   UNL     1      48.634   8.465  16.285  0.00  0.00    +0.000 C 
ATOM     22  O   UNL     1      49.704   8.111  15.796  0.00  0.00    +0.000 OA
ATOM     23  H   UNL     1      46.636   8.838  15.942  0.00  0.00    +0.000 HD
BRANCH  21  24
ATOM     24  C   UNL     1      48.461   8.608  17.738  0.00  0.00    +0.000 A 
ATOM     25  C   UNL     1      48.673   9.837  18.348  0.00  0.00    +0.000 A 
ATOM     26  S   UNL     1      48.353   9.833  20.024  0.00  0.00    +0.000 S 
ATOM     27  C   UNL     1      47.980   8.173  20.006  0.00  0.00    +0.000 A 
ATOM     28  N   UNL     1      47.633   7.519  21.147  0.00  0.00    +0.000 NA
ATOM     29  C   UNL     1      47.402   6.256  20.990  0.00  0.00    +0.000 A 
ATOM     30  N   UNL     1      47.486   5.592  19.795  0.00  0.00    +0.000 N 
ATOM     31  C   UNL     1      47.805   6.217  18.614  0.00  0.00    +0.000 A 
ATOM     32  O   UNL     1      47.833   5.598  17.554  0.00  0.00    +0.000 OA
ATOM     33  C   UNL     1      48.080   7.634  18.735  0.00  0.00    +0.000 A 
ATOM     34  H   UNL     1      47.289   4.604  19.737  0.00  0.00    +0.000 HD
ENDBRANCH  21  24
ENDBRANCH  19  20
ENDBRANCH   4  19
TORSDOF 6
ENDMDL
MODEL 5
REMARK VINA RESULT:    -7.355      5.840      7.575
REMARK INTER + INTRA:         -10.794
REMARK INTER:                  -9.801
REMARK INTRA:                  -0.992
REMARK UNBOUND:                -0.859
REMARK  Name = 
REMARK  6 active torsions:
REMARK  status: ('A' for Active; 'I' for Inactive)
REMARK    1  A    between atoms: C_2  and  C_25
REMARK    2  A    between atoms: N_3  and  C_4
REMARK    3  A    between atoms: C_4  and  C_5
REMARK    4  A    between atoms: C_8  and  C_9
REMARK    5  A    between atoms: C_9  and  N_10
REMARK    6  A    between atoms: C_11  and  C_13
REMARK                            x       y       z     vdW  Elec       q    Type
REMARK                         _______ _______ _______ _____ _____    ______ ____
ROOT
ATOM      1  C   UNL     1      44.908   9.110  11.886  0.00  0.00    +0.000 A 
ATOM      2  C   UNL     1      44.330   7.999  11.273  0.00  0.00    +0.000 A 
ATOM      3  C   UNL     1      44.732   6.722  11.664  0.00  0.00    +0.000 A 
ATOM      4  C   UNL     1      45.715   6.570  12.643  0.00  0.00    +0.000 A 
ATOM      5  C   UNL     1      46.236   7.735  13.200  0.00  0.00    +0.000 A 
ATOM      6  N   UNL     1      45.870   8.989  12.835  0.00  0.00    +0.000 NA
ENDROOT
BRANCH   1   7
ATOM      7  C   UNL     1      44.469  10.504  11.495  0.00  0.00    +0.000 C 
BRANCH   7  10
ATOM      8  O   UNL     1      42.135  10.527   9.952  0.00  0.00    +0.000 OA
ATOM      9  C   UNL     1      42.053  10.771  11.151  0.00  0.00    +0.000 C 
ATOM     10  N   UNL     1      43.145  10.829  11.992  0.00  0.00    +0.000 N 
ATOM     11  H   UNL     1      43.006  10.741  12.990  0.00  0.00    +0.000 HD
BRANCH   9  12
ATOM     12  C   UNL     1      40.719  11.001  11.767  0.00  0.00    +0.000 A 
ATOM     13  C   UNL     1      39.621  10.274  11.282  0.00  0.00    +0.000 A 
ATOM     14  C   UNL     1      38.348  10.486  11.815  0.00  0.00    +0.000 A 
ATOM     15  C   UNL     1      38.174  11.433  12.817  0.00  0.00    +0.000 A 
ATOM     16  F   UNL     1      36.952  11.644  13.322  0.00  0.00    +0.000 F 
ATOM     17  C   UNL     1      39.250  12.174  13.296  0.00  0.00    +0.000 A 
ATOM     18  C   UNL     1      40.529  11.961  12.772  0.00  0.00    +0.000 A 
ENDBRANCH   9  12
ENDBRANCH   7  10
ENDBRANCH   1   7
BRANCH   4  19
ATOM     19  C   UNL     1      46.164   5.214  13.109  0.00  0.00    +0.000 C 
BRANCH  19  20
ATOM     20  N   UNL     1      46.755   5.277  14.421  0.00  0.00    +0.000 N 
ATOM     21  C   UNL     1      47.330   4.180  15.010  0.00  0.00    +0.000 C 
ATOM     22  O   UNL     1      47.417   3.099  14.433  0.00  0.00    +0.000 OA
ATOM     23  H   UNL     1      46.471   6.054  15.011  0.00  0.00    +0.000 HD
BRANCH  21  24
ATOM     24  C   UNL     1      47.900   4.387  16.348  0.00  0.00    +0.000 A 
ATOM     25  C   UNL     1      47.506   3.579  17.407  0.00  0.00    +0.000 A 
ATOM     26  S   UNL     1      48.327   3.915  18.865  0.00  0.00    +0.000 S 
ATOM     27  C   UNL     1      49.193   5.192  18.150  0.00  0.00    +0.000 A 
ATOM     28  N   UNL     1      50.079   5.930  18.872  0.00  0.00    +0.000 NA
ATOM     29  C   UNL     1      50.646   6.884  18.207  0.00  0.00    +0.000 A 
ATOM     30  N   UNL     1      50.406   7.164  16.888  0.00  0.00    +0.000 N 
ATOM     31  C   UNL     1      49.543   6.427  16.113  0.00  0.00    +0.000 A 
ATOM     32  O   UNL     1      49.381   6.681  14.923  0.00  0.00    +0.000 OA
ATOM     33  C   UNL     1      48.875   5.348  16.811  0.00  0.00    +0.000 A 
ATOM     34  H   UNL     1      50.885   7.920  16.424  0.00  0.00    +0.000 HD
ENDBRANCH  21  24
ENDBRANCH  19  20
ENDBRANCH   4  19
TORSDOF 6
ENDMDL
MODEL 6
REMARK VINA RESULT:    -7.297      3.885      9.281
REMARK INTER + INTRA:         -10.716
REMARK INTER:                  -9.780
REMARK INTRA:                  -0.937
REMARK UNBOUND:                -0.859
REMARK  Name = 
REMARK  6 active torsions:
REMARK  status: ('A' for Active; 'I' for Inactive)
REMARK    1  A    between atoms: C_2  and  C_25
REMARK    2  A    between atoms: N_3  and  C_4
REMARK    3  A    between atoms: C_4  and  C_5
REMARK    4  A    between atoms: C_8  and  C_9
REMARK    5  A    between atoms: C_9  and  N_10
REMARK    6  A    between atoms: C_11  and  C_13
REMARK                            x       y       z     vdW  Elec       q    Type
REMARK                         _______ _______ _______ _____ _____    ______ ____
ROOT
ATOM      1  C   UNL     1      49.335   7.561  15.784  0.00  0.00    +0.000 A 
ATOM      2  C   UNL     1      48.816   8.797  15.404  0.00  0.00    +0.000 A 
ATOM      3  C   UNL     1      48.130   8.903  14.194  0.00  0.00    +0.000 A 
ATOM      4  C   UNL     1      47.990   7.784  13.372  0.00  0.00    +0.000 A 
ATOM      5  C   UNL     1      48.542   6.592  13.832  0.00  0.00    +0.000 A 
ATOM      6  N   UNL     1      49.218   6.459  15.000  0.00  0.00    +0.000 NA
ENDROOT
BRANCH   1   7
ATOM      7  C   UNL     1      50.060   7.417  17.104  0.00  0.00    +0.000 C 
BRANCH   7  10
ATOM      8  O   UNL     1      49.143   5.138  18.441  0.00  0.00    +0.000 OA
ATOM      9  C   UNL     1      50.220   5.087  17.858  0.00  0.00    +0.000 C 
ATOM     10  N   UNL     1      50.784   6.164  17.207  0.00  0.00    +0.000 N 
ATOM     11  H   UNL     1      51.502   6.002  16.513  0.00  0.00    +0.000 HD
BRANCH   9  12
ATOM     12  C   UNL     1      50.975   3.806  17.814  0.00  0.00    +0.000 A 
ATOM     13  C   UNL     1      52.324   3.809  18.199  0.00  0.00    +0.000 A 
ATOM     14  C   UNL     1      53.074   2.632  18.141  0.00  0.00    +0.000 A 
ATOM     15  C   UNL     1      52.477   1.463  17.684  0.00  0.00    +0.000 A 
ATOM     16  F   UNL     1      53.197   0.336  17.619  0.00  0.00    +0.000 F 
ATOM     17  C   UNL     1      51.145   1.448  17.282  0.00  0.00    +0.000 A 
ATOM     18  C   UNL     1      50.388   2.622  17.345  0.00  0.00    +0.000 A 
ENDBRANCH   9  12
ENDBRANCH   7  10
ENDBRANCH   1   7
BRANCH   4  19
ATOM     19  C   UNL     1      47.244   7.849  12.070  0.00  0.00    +0.000 C 
BRANCH  19  20
ATOM     20  N   UNL     1      46.616   6.589  11.761  0.00  0.00    +0.000 N 
ATOM     21  C   UNL     1      45.268   6.394  11.918  0.00  0.00    +0.000 C 
ATOM     22  O   UNL     1      44.516   7.294  12.284  0.00  0.00    +0.000 OA
ATOM     23  H   UNL     1      47.224   5.777  11.715  0.00  0.00    +0.000 HD
BRANCH  21  24
ATOM     24  C   UNL     1      44.759   5.064  11.560  0.00  0.00    +0.000 A 
ATOM     25  C   UNL     1      44.034   4.321  12.483  0.00  0.00    +0.000 A 
ATOM     26  S   UNL     1      43.460   2.837  11.867  0.00  0.00    +0.000 S 
ATOM     27  C   UNL     1      44.212   3.104  10.365  0.00  0.00    +0.000 A 
ATOM     28  N   UNL     1      44.128   2.186   9.364  0.00  0.00    +0.000 NA
ATOM     29  C   UNL     1      44.768   2.509   8.287  0.00  0.00    +0.000 A 
ATOM     30  N   UNL     1      45.483   3.666   8.124  0.00  0.00    +0.000 N 
ATOM     31  C   UNL     1      45.571   4.633   9.096  0.00  0.00    +0.000 A 
ATOM     32  O   UNL     1      46.188   5.676   8.901  0.00  0.00    +0.000 OA
ATOM     33  C   UNL     1      44.876   4.319  10.327  0.00  0.00    +0.000 A 
ATOM     34  H   UNL     1      45.958   3.862   7.256  0.00  0.00    +0.000 HD
ENDBRANCH  21  24
ENDBRANCH  19  20
ENDBRANCH   4  19
TORSDOF 6
ENDMDL
MODEL 7
REMARK VINA RESULT:    -7.096      2.665      3.661
REMARK INTER + INTRA:         -10.444
REMARK INTER:                 -10.150
REMARK INTRA:                  -0.294
REMARK UNBOUND:                -0.859
REMARK  Name = 
REMARK  6 active torsions:
REMARK  status: ('A' for Active; 'I' for Inactive)
REMARK    1  A    between atoms: C_2  and  C_25
REMARK    2  A    between atoms: N_3  and  C_4
REMARK    3  A    between atoms: C_4  and  C_5
REMARK    4  A    between atoms: C_8  and  C_9
REMARK    5  A    between atoms: C_9  and  N_10
REMARK    6  A    between atoms: C_11  and  C_13
REMARK                            x       y       z     vdW  Elec       q    Type
REMARK                         _______ _______ _______ _____ _____    ______ ____
ROOT
ATOM      1  C   UNL     1      44.618   4.679  11.915  0.00  0.00    +0.000 A 
ATOM      2  C   UNL     1      45.470   4.710  13.017  0.00  0.00    +0.000 A 
ATOM      3  C   UNL     1      45.926   5.941  13.489  0.00  0.00    +0.000 A 
ATOM      4  C   UNL     1      45.545   7.119  12.844  0.00  0.00    +0.000 A 
ATOM      5  C   UNL     1      44.693   6.992  11.751  0.00  0.00    +0.000 A 
ATOM      6  N   UNL     1      44.238   5.809  11.267  0.00  0.00    +0.000 NA
ENDROOT
BRANCH   1   7
ATOM      7  C   UNL     1      44.090   3.356  11.402  0.00  0.00    +0.000 C 
BRANCH   7  10
ATOM      8  O   UNL     1      44.000   4.269   8.760  0.00  0.00    +0.000 OA
ATOM      9  C   UNL     1      44.791   3.379   9.051  0.00  0.00    +0.000 C 
ATOM     10  N   UNL     1      44.886   2.827  10.311  0.00  0.00    +0.000 N 
ATOM     11  H   UNL     1      45.725   2.324  10.569  0.00  0.00    +0.000 HD
BRANCH   9  12
ATOM     12  C   UNL     1      45.727   2.858   8.019  0.00  0.00    +0.000 A 
ATOM     13  C   UNL     1      46.250   1.566   8.178  0.00  0.00    +0.000 A 
ATOM     14  C   UNL     1      47.156   1.054   7.246  0.00  0.00    +0.000 A 
ATOM     15  C   UNL     1      47.547   1.841   6.169  0.00  0.00    +0.000 A 
ATOM     16  F   UNL     1      48.422   1.356   5.280  0.00  0.00    +0.000 F 
ATOM     17  C   UNL     1      47.051   3.132   6.007  0.00  0.00    +0.000 A 
ATOM     18  C   UNL     1      46.138   3.645   6.933  0.00  0.00    +0.000 A 
ENDBRANCH   9  12
ENDBRANCH   7  10
ENDBRANCH   1   7
BRANCH   4  19
ATOM     19  C   UNL     1      45.998   8.467  13.329  0.00  0.00    +0.000 C 
BRANCH  19  20
ATOM     20  N   UNL     1      47.354   8.423  13.814  0.00  0.00    +0.000 N 
ATOM     21  C   UNL     1      48.415   8.198  12.975  0.00  0.00    +0.000 C 
ATOM     22  O   UNL     1      48.274   8.069  11.762  0.00  0.00    +0.000 OA
ATOM     23  H   UNL     1      47.476   8.263  14.809  0.00  0.00    +0.000 HD
BRANCH  21  24
ATOM     24  C   UNL     1      49.745   8.185  13.601  0.00  0.00    +0.000 A 
ATOM     25  C   UNL     1      50.788   8.907  13.038  0.00  0.00    +0.000 A 
ATOM     26  S   UNL     1      52.235   8.836  13.941  0.00  0.00    +0.000 S 
ATOM     27  C   UNL     1      51.536   7.786  15.083  0.00  0.00    +0.000 A 
ATOM     28  N   UNL     1      52.257   7.314  16.136  0.00  0.00    +0.000 NA
ATOM     29  C   UNL     1      51.608   6.506  16.910  0.00  0.00    +0.000 A 
ATOM     30  N   UNL     1      50.304   6.130  16.723  0.00  0.00    +0.000 N 
ATOM     31  C   UNL     1      49.529   6.604  15.692  0.00  0.00    +0.000 A 
ATOM     32  O   UNL     1      48.352   6.276  15.578  0.00  0.00    +0.000 OA
ATOM     33  C   UNL     1      50.211   7.510  14.791  0.00  0.00    +0.000 A 
ATOM     34  H   UNL     1      49.851   5.499  17.366  0.00  0.00    +0.000 HD
ENDBRANCH  21  24
ENDBRANCH  19  20
ENDBRANCH   4  19
TORSDOF 6
ENDMDL
MODEL 8
REMARK VINA RESULT:    -6.685      2.698      3.048
REMARK INTER + INTRA:          -9.890
REMARK INTER:                  -9.269
REMARK INTRA:                  -0.620
REMARK UNBOUND:                -0.859
REMARK  Name = 
REMARK  6 active torsions:
REMARK  status: ('A' for Active; 'I' for Inactive)
REMARK    1  A    between atoms: C_2  and  C_25
REMARK    2  A    between atoms: N_3  and  C_4
REMARK    3  A    between atoms: C_4  and  C_5
REMARK    4  A    between atoms: C_8  and  C_9
REMARK    5  A    between atoms: C_9  and  N_10
REMARK    6  A    between atoms: C_11  and  C_13
REMARK                            x       y       z     vdW  Elec       q    Type
REMARK                         _______ _______ _______ _____ _____    ______ ____
ROOT
ATOM      1  C   UNL     1      45.259   6.120  12.171  0.00  0.00    +0.000 A 
ATOM      2  C   UNL     1      45.581   7.474  12.243  0.00  0.00    +0.000 A 
ATOM      3  C   UNL     1      46.673   7.872  13.014  0.00  0.00    +0.000 A 
ATOM      4  C   UNL     1      47.413   6.920  13.718  0.00  0.00    +0.000 A 
ATOM      5  C   UNL     1      47.017   5.592  13.588  0.00  0.00    +0.000 A 
ATOM      6  N   UNL     1      45.958   5.176  12.851  0.00  0.00    +0.000 NA
ENDROOT
BRANCH   1   7
ATOM      7  C   UNL     1      44.094   5.663  11.319  0.00  0.00    +0.000 C 
BRANCH   7  10
ATOM      8  O   UNL     1      45.801   5.931   9.120  0.00  0.00    +0.000 OA
ATOM      9  C   UNL     1      45.341   4.825   9.378  0.00  0.00    +0.000 C 
ATOM     10  N   UNL     1      44.457   4.591  10.411  0.00  0.00    +0.000 N 
ATOM     11  H   UNL     1      44.341   3.648  10.760  0.00  0.00    +0.000 HD
BRANCH   9  12
ATOM     12  C   UNL     1      45.752   3.647   8.569  0.00  0.00    +0.000 A 
ATOM     13  C   UNL     1      45.478   2.363   9.065  0.00  0.00    +0.000 A 
ATOM     14  C   UNL     1      45.877   1.233   8.347  0.00  0.00    +0.000 A 
ATOM     15  C   UNL     1      46.560   1.391   7.147  0.00  0.00    +0.000 A 
ATOM     16  F   UNL     1      46.951   0.308   6.463  0.00  0.00    +0.000 F 
ATOM     17  C   UNL     1      46.855   2.657   6.651  0.00  0.00    +0.000 A 
ATOM     18  C   UNL     1      46.451   3.792   7.361  0.00  0.00    +0.000 A 
ENDBRANCH   9  12
ENDBRANCH   7  10
ENDBRANCH   1   7
BRANCH   4  19
ATOM     19  C   UNL     1      48.607   7.301  14.546  0.00  0.00    +0.000 C 
BRANCH  19  20
ATOM     20  N   UNL     1      48.498   6.795  15.891  0.00  0.00    +0.000 N 
ATOM     21  C   UNL     1      48.874   7.542  16.978  0.00  0.00    +0.000 C 
ATOM     22  O   UNL     1      49.277   8.697  16.870  0.00  0.00    +0.000 OA
ATOM     23  H   UNL     1      48.425   5.787  15.993  0.00  0.00    +0.000 HD
BRANCH  21  24
ATOM     24  C   UNL     1      48.704   6.905  18.292  0.00  0.00    +0.000 A 
ATOM     25  C   UNL     1      47.459   6.897  18.907  0.00  0.00    +0.000 A 
ATOM     26  S   UNL     1      47.435   6.049  20.389  0.00  0.00    +0.000 S 
ATOM     27  C   UNL     1      49.101   5.717  20.291  0.00  0.00    +0.000 A 
ATOM     28  N   UNL     1      49.737   5.023  21.273  0.00  0.00    +0.000 NA
ATOM     29  C   UNL     1      51.006   4.866  21.080  0.00  0.00    +0.000 A 
ATOM     30  N   UNL     1      51.693   5.341  19.994  0.00  0.00    +0.000 N 
ATOM     31  C   UNL     1      51.087   6.020  18.965  0.00  0.00    +0.000 A 
ATOM     32  O   UNL     1      51.727   6.396  17.987  0.00  0.00    +0.000 OA
ATOM     33  C   UNL     1      49.664   6.229  19.134  0.00  0.00    +0.000 A 
ATOM     34  H   UNL     1      52.685   5.181  19.899  0.00  0.00    +0.000 HD
ENDBRANCH  21  24
ENDBRANCH  19  20
ENDBRANCH   4  19
TORSDOF 6
ENDMDL
MODEL 9
REMARK VINA RESULT:    -6.614      5.220      8.259
REMARK INTER + INTRA:          -9.794
REMARK INTER:                  -8.867
REMARK INTRA:                  -0.927
REMARK UNBOUND:                -0.859
REMARK  Name = 
REMARK  6 active torsions:
REMARK  status: ('A' for Active; 'I' for Inactive)
REMARK    1  A    between atoms: C_2  and  C_25
REMARK    2  A    between atoms: N_3  and  C_4
REMARK    3  A    between atoms: C_4  and  C_5
REMARK    4  A    between atoms: C_8  and  C_9
REMARK    5  A    between atoms: C_9  and  N_10
REMARK    6  A    between atoms: C_11  and  C_13
REMARK                            x       y       z     vdW  Elec       q    Type
REMARK                         _______ _______ _______ _____ _____    ______ ____
ROOT
ATOM      1  C   UNL     1      50.262   8.939  12.027  0.00  0.00    +0.000 A 
ATOM      2  C   UNL     1      49.240   9.747  11.532  0.00  0.00    +0.000 A 
ATOM      3  C   UNL     1      47.925   9.495  11.924  0.00  0.00    +0.000 A 
ATOM      4  C   UNL     1      47.646   8.430  12.783  0.00  0.00    +0.000 A 
ATOM      5  C   UNL     1      48.729   7.676  13.225  0.00  0.00    +0.000 A 
ATOM      6  N   UNL     1      50.017   7.894  12.857  0.00  0.00    +0.000 NA
ENDROOT
BRANCH   1   7
ATOM      7  C   UNL     1      51.698   9.212  11.635  0.00  0.00    +0.000 C 
BRANCH   7  10
ATOM      8  O   UNL     1      53.679   7.254  11.373  0.00  0.00    +0.000 OA
ATOM      9  C   UNL     1      53.034   7.578  10.382  0.00  0.00    +0.000 C 
ATOM     10  N   UNL     1      52.067   8.561  10.392  0.00  0.00    +0.000 N 
ATOM     11  H   UNL     1      51.379   8.587   9.650  0.00  0.00    +0.000 HD
BRANCH   9  12
ATOM     12  C   UNL     1      53.268   6.880   9.090  0.00  0.00    +0.000 A 
ATOM     13  C   UNL     1      53.869   5.612   9.111  0.00  0.00    +0.000 A 
ATOM     14  C   UNL     1      54.131   4.939   7.916  0.00  0.00    +0.000 A 
ATOM     15  C   UNL     1      53.808   5.542   6.706  0.00  0.00    +0.000 A 
ATOM     16  F   UNL     1      54.068   4.902   5.559  0.00  0.00    +0.000 F 
ATOM     17  C   UNL     1      53.227   6.807   6.668  0.00  0.00    +0.000 A 
ATOM     18  C   UNL     1      52.955   7.481   7.862  0.00  0.00    +0.000 A 
ENDBRANCH   9  12
ENDBRANCH   7  10
ENDBRANCH   1   7
BRANCH   4  19
ATOM     19  C   UNL     1      46.247   8.133  13.245  0.00  0.00    +0.000 C 
BRANCH  19  20
ATOM     20  N   UNL     1      45.837   6.806  12.860  0.00  0.00    +0.000 N 
ATOM     21  C   UNL     1      44.866   6.595  11.915  0.00  0.00    +0.000 C 
ATOM     22  O   UNL     1      44.329   7.520  11.311  0.00  0.00    +0.000 OA
ATOM     23  H   UNL     1      46.060   6.055  13.506  0.00  0.00    +0.000 HD
BRANCH  21  24
ATOM     24  C   UNL     1      44.550   5.192  11.613  0.00  0.00    +0.000 A 
ATOM     25  C   UNL     1      43.861   4.417  12.537  0.00  0.00    +0.000 A 
ATOM     26  S   UNL     1      43.517   2.839  11.986  0.00  0.00    +0.000 S 
ATOM     27  C   UNL     1      44.329   3.114  10.517  0.00  0.00    +0.000 A 
ATOM     28  N   UNL     1      44.426   2.137   9.575  0.00  0.00    +0.000 NA
ATOM     29  C   UNL     1      45.093   2.477   8.520  0.00  0.00    +0.000 A 
ATOM     30  N   UNL     1      45.670   3.704   8.325  0.00  0.00    +0.000 N 
ATOM     31  C   UNL     1      45.573   4.728   9.236  0.00  0.00    +0.000 A 
ATOM     32  O   UNL     1      46.069   5.828   9.010  0.00  0.00    +0.000 OA
ATOM     33  C   UNL     1      44.840   4.399  10.440  0.00  0.00    +0.000 A 
ATOM     34  H   UNL     1      46.175   3.909   7.476  0.00  0.00    +0.000 HD
ENDBRANCH  21  24
ENDBRANCH  19  20
ENDBRANCH   4  19
TORSDOF 6
ENDMDL
