MODEL 1
REMARK VINA RESULT:    -8.075      0.000      0.000
REMARK INTER + INTRA:         -11.699
REMARK INTER:                 -11.380
REMARK INTRA:                  -0.320
REMARK UNBOUND:                -0.320
REMARK  Name = 
REMARK  8 active torsions:
REMARK  status: ('A' for Active; 'I' for Inactive)
REMARK    1  A    between atoms: C_1  and  O_2
REMARK    2  A    between atoms: O_2  and  C_3
REMARK    3  A    between atoms: C_8  and  N_9
REMARK    4  A    between atoms: N_9  and  C_10
REMARK    5  A    between atoms: C_10  and  C_11
REMARK    6  A    between atoms: C_14  and  C_15
REMARK    7  A    between atoms: C_15  and  N_16
REMARK    8  A    between atoms: C_17  and  C_19
REMARK                            x       y       z     vdW  Elec       q    Type
REMARK                         _______ _______ _______ _____ _____    ______ ____
ROOT
ATOM      1  C   UNL     1      44.816   4.475  10.536  0.00  0.00    +0.000 A 
ATOM      2  C   UNL     1      44.493   4.629  11.886  0.00  0.00    +0.000 A 
ATOM      3  C   UNL     1      45.061   5.678  12.606  0.00  0.00    +0.000 A 
ATOM      4  C   UNL     1      45.918   6.574  11.963  0.00  0.00    +0.000 A 
ATOM      5  C   UNL     1      46.168   6.355  10.612  0.00  0.00    +0.000 A 
ATOM      6  N   UNL     1      45.637   5.341   9.887  0.00  0.00    +0.000 NA
ENDROOT
BRANCH   1   7
ATOM      7  C   UNL     1      44.280   3.274   9.769  0.00  0.00    +0.000 C 
BRANCH   7   8
ATOM      8  N   UNL     1      45.335   2.285   9.521  0.00  0.00    +0.000 N 
ATOM      9  H   UNL     1      44.954   1.354   9.677  0.00  0.00    +0.000 HD
BRANCH   8  15
ATOM     10  C   UNL     1      46.659   1.258   7.643  0.00  0.00    +0.000 A 
ATOM     11  C   UNL     1      47.247   1.426   6.377  0.00  0.00    +0.000 A 
ATOM     12  C   UNL     1      47.186   2.652   5.716  0.00  0.00    +0.000 A 
ATOM     13  C   UNL     1      46.514   3.716   6.304  0.00  0.00    +0.000 A 
ATOM     14  C   UNL     1      45.923   3.557   7.560  0.00  0.00    +0.000 A 
ATOM     15  C   UNL     1      46.014   2.348   8.280  0.00  0.00    +0.000 A 
BRANCH  10  17
ATOM     16  C   UNL     1      46.591  -1.117   7.428  0.00  0.00    +0.000 C 
ATOM     17  O   UNL     1      46.618   0.034   8.262  0.00  0.00    +0.000 OA
ENDBRANCH  10  17
ENDBRANCH   8  15
ENDBRANCH   7   8
ENDBRANCH   1   7
BRANCH   4  18
ATOM     18  C   UNL     1      46.574   7.704  12.700  0.00  0.00    +0.000 C 
BRANCH  18  19
ATOM     19  N   UNL     1      47.029   7.295  14.007  0.00  0.00    +0.000 N 
ATOM     20  C   UNL     1      48.209   6.610  14.160  0.00  0.00    +0.000 C 
ATOM     21  O   UNL     1      48.944   6.369  13.206  0.00  0.00    +0.000 OA
ATOM     22  H   UNL     1      46.350   7.292  14.763  0.00  0.00    +0.000 HD
BRANCH  20  23
ATOM     23  C   UNL     1      48.581   6.220  15.527  0.00  0.00    +0.000 A 
ATOM     24  C   UNL     1      49.434   7.031  16.264  0.00  0.00    +0.000 A 
ATOM     25  S   UNL     1      49.733   6.460  17.840  0.00  0.00    +0.000 S 
ATOM     26  C   UNL     1      48.769   5.083  17.582  0.00  0.00    +0.000 A 
ATOM     27  N   UNL     1      48.620   4.139  18.553  0.00  0.00    +0.000 NA
ATOM     28  C   UNL     1      47.894   3.132  18.212  0.00  0.00    +0.000 A 
ATOM     29  N   UNL     1      47.293   2.980  16.988  0.00  0.00    +0.000 N 
ATOM     30  C   UNL     1      47.382   3.923  15.993  0.00  0.00    +0.000 A 
ATOM     31  O   UNL     1      46.787   3.790  14.928  0.00  0.00    +0.000 OA
ATOM     32  C   UNL     1      48.210   5.069  16.319  0.00  0.00    +0.000 A 
ATOM     33  H   UNL     1      46.724   2.172  16.787  0.00  0.00    +0.000 HD
ENDBRANCH  20  23
ENDBRANCH  18  19
ENDBRANCH   4  18
TORSDOF 7
ENDMDL
MODEL 2
REMARK VINA RESULT:    -7.867      3.008      5.204
REMARK INTER + INTRA:         -11.406
REMARK INTER:                  -9.885
REMARK INTRA:                  -1.521
REMARK UNBOUND:                -0.320
REMARK  Name = 
REMARK  8 active torsions:
REMARK  status: ('A' for Active; 'I' for Inactive)
REMARK    1  A    between atoms: C_1  and  O_2
REMARK    2  A    between atoms: O_2  and  C_3
REMARK    3  A    between atoms: C_8  and  N_9
REMARK    4  A    between atoms: N_9  and  C_10
REMARK    5  A    between atoms: C_10  and  C_11
REMARK    6  A    between atoms: C_14  and  C_15
REMARK    7  A    between atoms: C_15  and  N_16
REMARK    8  A    between atoms: C_17  and  C_19
REMARK                            x       y       z     vdW  Elec       q    Type
REMARK                         _______ _______ _______ _____ _____    ______ ____
ROOT
ATOM      1  C   UNL     1      44.617   3.602  12.207  0.00  0.00    +0.000 A 
ATOM      2  C   UNL     1      45.825   3.012  12.584  0.00  0.00    +0.000 A 
ATOM      3  C   UNL     1      46.746   3.756  13.318  0.00  0.00    +0.000 A 
ATOM      4  C   UNL     1      46.437   5.066  13.690  0.00  0.00    +0.000 A 
ATOM      5  C   UNL     1      45.203   5.566  13.288  0.00  0.00    +0.000 A 
ATOM      6  N   UNL     1      44.290   4.869  12.568  0.00  0.00    +0.000 NA
ENDROOT
BRANCH   1   7
ATOM      7  C   UNL     1      43.650   2.831  11.320  0.00  0.00    +0.000 C 
BRANCH   7   8
ATOM      8  N   UNL     1      43.614   3.384   9.962  0.00  0.00    +0.000 N 
ATOM      9  H   UNL     1      43.515   4.395  10.023  0.00  0.00    +0.000 HD
BRANCH   8  15
ATOM     10  C   UNL     1      45.532   3.953   8.434  0.00  0.00    +0.000 A 
ATOM     11  C   UNL     1      46.587   3.486   7.632  0.00  0.00    +0.000 A 
ATOM     12  C   UNL     1      46.820   2.120   7.481  0.00  0.00    +0.000 A 
ATOM     13  C   UNL     1      46.015   1.207   8.151  0.00  0.00    +0.000 A 
ATOM     14  C   UNL     1      44.966   1.663   8.953  0.00  0.00    +0.000 A 
ATOM     15  C   UNL     1      44.668   3.036   9.084  0.00  0.00    +0.000 A 
BRANCH  10  17
ATOM     16  C   UNL     1      46.133   5.878   9.709  0.00  0.00    +0.000 C 
ATOM     17  O   UNL     1      45.350   5.292   8.678  0.00  0.00    +0.000 OA
ENDBRANCH  10  17
ENDBRANCH   8  15
ENDBRANCH   7   8
ENDBRANCH   1   7
BRANCH   4  18
ATOM     18  C   UNL     1      47.405   5.916  14.459  0.00  0.00    +0.000 C 
BRANCH  18  19
ATOM     19  N   UNL     1      47.461   7.262  13.940  0.00  0.00    +0.000 N 
ATOM     20  C   UNL     1      48.274   7.576  12.880  0.00  0.00    +0.000 C 
ATOM     21  O   UNL     1      48.938   6.721  12.300  0.00  0.00    +0.000 OA
ATOM     22  H   UNL     1      47.097   8.008  14.526  0.00  0.00    +0.000 HD
BRANCH  20  23
ATOM     23  C   UNL     1      48.277   8.976  12.434  0.00  0.00    +0.000 A 
ATOM     24  C   UNL     1      49.483   9.611  12.173  0.00  0.00    +0.000 A 
ATOM     25  S   UNL     1      49.311  11.215  11.627  0.00  0.00    +0.000 S 
ATOM     26  C   UNL     1      47.618  11.137  11.763  0.00  0.00    +0.000 A 
ATOM     27  N   UNL     1      46.839  12.216  11.469  0.00  0.00    +0.000 NA
ATOM     28  C   UNL     1      45.578  12.029  11.649  0.00  0.00    +0.000 A 
ATOM     29  N   UNL     1      45.016  10.858  12.093  0.00  0.00    +0.000 N 
ATOM     30  C   UNL     1      45.756   9.733  12.363  0.00  0.00    +0.000 A 
ATOM     31  O   UNL     1      45.223   8.682  12.702  0.00  0.00    +0.000 OA
ATOM     32  C   UNL     1      47.188   9.897  12.198  0.00  0.00    +0.000 A 
ATOM     33  H   UNL     1      44.017  10.772  12.200  0.00  0.00    +0.000 HD
ENDBRANCH  20  23
ENDBRANCH  18  19
ENDBRANCH   4  18
TORSDOF 7
ENDMDL
MODEL 3
REMARK VINA RESULT:    -7.790      3.617      8.200
REMARK INTER + INTRA:         -11.298
REMARK INTER:                 -10.204
REMARK INTRA:                  -1.094
REMARK UNBOUND:                -0.320
REMARK  Name = 
REMARK  8 active torsions:
REMARK  status: ('A' for Active; 'I' for Inactive)
REMARK    1  A    between atoms: C_1  and  O_2
REMARK    2  A    between atoms: O_2  and  C_3
REMARK    3  A    between atoms: C_8  and  N_9
REMARK    4  A    between atoms: N_9  and  C_10
REMARK    5  A    between atoms: C_10  and  C_11
REMARK    6  A    between atoms: C_14  and  C_15
REMARK    7  A    between atoms: C_15  and  N_16
REMARK    8  A    between atoms: C_17  and  C_19
REMARK                            x       y       z     vdW  Elec       q    Type
REMARK                         _______ _______ _______ _____ _____    ______ ____
ROOT
ATOM      1  C   UNL     1      50.120   6.894  15.850  0.00  0.00    +0.000 A 
ATOM      2  C   UNL     1      50.697   7.937  15.123  0.00  0.00    +0.000 A 
ATOM      3  C   UNL     1      50.115   8.329  13.919  0.00  0.00    +0.000 A 
ATOM      4  C   UNL     1      48.953   7.696  13.474  0.00  0.00    +0.000 A 
ATOM      5  C   UNL     1      48.437   6.681  14.273  0.00  0.00    +0.000 A 
ATOM      6  N   UNL     1      48.983   6.273  15.444  0.00  0.00    +0.000 NA
ENDROOT
BRANCH   1   7
ATOM      7  C   UNL     1      50.805   6.393  17.114  0.00  0.00    +0.000 C 
BRANCH   7   8
ATOM      8  N   UNL     1      50.045   5.304  17.737  0.00  0.00    +0.000 N 
ATOM      9  H   UNL     1      49.104   5.299  17.350  0.00  0.00    +0.000 HD
BRANCH   8  15
ATOM     10  C   UNL     1      49.983   2.856  17.157  0.00  0.00    +0.000 A 
ATOM     11  C   UNL     1      50.669   1.629  17.119  0.00  0.00    +0.000 A 
ATOM     12  C   UNL     1      51.978   1.526  17.587  0.00  0.00    +0.000 A 
ATOM     13  C   UNL     1      52.623   2.654  18.077  0.00  0.00    +0.000 A 
ATOM     14  C   UNL     1      51.951   3.878  18.115  0.00  0.00    +0.000 A 
ATOM     15  C   UNL     1      50.609   4.006  17.701  0.00  0.00    +0.000 A 
BRANCH  10  17
ATOM     16  C   UNL     1      47.619   2.827  17.471  0.00  0.00    +0.000 C 
ATOM     17  O   UNL     1      48.734   3.001  16.607  0.00  0.00    +0.000 OA
ENDBRANCH  10  17
ENDBRANCH   8  15
ENDBRANCH   7   8
ENDBRANCH   1   7
BRANCH   4  18
ATOM     18  C   UNL     1      48.303   8.065  12.173  0.00  0.00    +0.000 C 
BRANCH  18  19
ATOM     19  N   UNL     1      47.618   6.940  11.582  0.00  0.00    +0.000 N 
ATOM     20  C   UNL     1      46.256   6.956  11.408  0.00  0.00    +0.000 C 
ATOM     21  O   UNL     1      45.580   7.940  11.694  0.00  0.00    +0.000 OA
ATOM     22  H   UNL     1      48.115   6.055  11.540  0.00  0.00    +0.000 HD
BRANCH  20  23
ATOM     23  C   UNL     1      45.647   5.759  10.814  0.00  0.00    +0.000 A 
ATOM     24  C   UNL     1      45.779   5.524   9.452  0.00  0.00    +0.000 A 
ATOM     25  S   UNL     1      45.051   4.076   8.930  0.00  0.00    +0.000 S 
ATOM     26  C   UNL     1      44.491   3.729  10.498  0.00  0.00    +0.000 A 
ATOM     27  N   UNL     1      43.748   2.614  10.748  0.00  0.00    +0.000 NA
ATOM     28  C   UNL     1      43.360   2.494  11.969  0.00  0.00    +0.000 A 
ATOM     29  N   UNL     1      43.650   3.383  12.974  0.00  0.00    +0.000 N 
ATOM     30  C   UNL     1      44.428   4.499  12.778  0.00  0.00    +0.000 A 
ATOM     31  O   UNL     1      44.720   5.246  13.706  0.00  0.00    +0.000 OA
ATOM     32  C   UNL     1      44.872   4.694  11.411  0.00  0.00    +0.000 A 
ATOM     33  H   UNL     1      43.327   3.224  13.915  0.00  0.00    +0.000 HD
ENDBRANCH  20  23
ENDBRANCH  18  19
ENDBRANCH   4  18
TORSDOF 7
ENDMDL
MODEL 4
REMARK VINA RESULT:    -7.673      2.342      3.373
REMARK INTER + INTRA:         -11.132
REMARK INTER:                 -10.697
REMARK INTRA:                  -0.435
REMARK UNBOUND:                -0.320
REMARK  Name = 
REMARK  8 active torsions:
REMARK  status: ('A' for Active; 'I' for Inactive)
REMARK    1  A    between atoms: C_1  and  O_2
REMARK    2  A    between atoms: O_2  and  C_3
REMARK    3  A    between atoms: C_8  and  N_9
REMARK    4  A    between atoms: N_9  and  C_10
REMARK    5  A    between atoms: C_10  and  C_11
REMARK    6  A    between atoms: C_14  and  C_15
REMARK    7  A    between atoms: C_15  and  N_16
REMARK    8  A    between atoms: C_17  and  C_19
REMARK                            x       y       z     vdW  Elec       q    Type
REMARK                         _______ _______ _______ _____ _____    ______ ____
ROOT
ATOM      1  C   UNL     1      45.168   5.981  12.322  0.00  0.00    +0.000 A 
ATOM      2  C   UNL     1      45.836   7.139  11.920  0.00  0.00    +0.000 A 
ATOM      3  C   UNL     1      47.046   7.472  12.526  0.00  0.00    +0.000 A 
ATOM      4  C   UNL     1      47.585   6.631  13.502  0.00  0.00    +0.000 A 
ATOM      5  C   UNL     1      46.860   5.489  13.826  0.00  0.00    +0.000 A 
ATOM      6  N   UNL     1      45.679   5.142  13.260  0.00  0.00    +0.000 NA
ENDROOT
BRANCH   1   7
ATOM      7  C   UNL     1      43.798   5.664  11.738  0.00  0.00    +0.000 C 
BRANCH   7   8
ATOM      8  N   UNL     1      43.852   5.568  10.275  0.00  0.00    +0.000 N 
ATOM      9  H   UNL     1      44.247   6.430   9.905  0.00  0.00    +0.000 HD
BRANCH   8  15
ATOM     10  C   UNL     1      44.195   3.088  10.016  0.00  0.00    +0.000 A 
ATOM     11  C   UNL     1      44.861   2.047   9.347  0.00  0.00    +0.000 A 
ATOM     12  C   UNL     1      45.808   2.321   8.361  0.00  0.00    +0.000 A 
ATOM     13  C   UNL     1      46.080   3.639   8.017  0.00  0.00    +0.000 A 
ATOM     14  C   UNL     1      45.419   4.680   8.674  0.00  0.00    +0.000 A 
ATOM     15  C   UNL     1      44.497   4.440   9.714  0.00  0.00    +0.000 A 
BRANCH  10  17
ATOM     16  C   UNL     1      43.563   2.333  12.189  0.00  0.00    +0.000 C 
ATOM     17  O   UNL     1      43.187   2.839  10.915  0.00  0.00    +0.000 OA
ENDBRANCH  10  17
ENDBRANCH   8  15
ENDBRANCH   7   8
ENDBRANCH   1   7
BRANCH   4  18
ATOM     18  C   UNL     1      48.871   6.958  14.201  0.00  0.00    +0.000 C 
BRANCH  18  19
ATOM     19  N   UNL     1      48.663   7.222  15.605  0.00  0.00    +0.000 N 
ATOM     20  C   UNL     1      49.294   6.470  16.565  0.00  0.00    +0.000 C 
ATOM     21  O   UNL     1      50.096   5.588  16.270  0.00  0.00    +0.000 OA
ATOM     22  H   UNL     1      47.858   7.786  15.863  0.00  0.00    +0.000 HD
BRANCH  20  23
ATOM     23  C   UNL     1      49.005   6.801  17.966  0.00  0.00    +0.000 A 
ATOM     24  C   UNL     1      48.897   8.131  18.350  0.00  0.00    +0.000 A 
ATOM     25  S   UNL     1      48.521   8.343  19.997  0.00  0.00    +0.000 S 
ATOM     26  C   UNL     1      48.533   6.665  20.271  0.00  0.00    +0.000 A 
ATOM     27  N   UNL     1      48.307   6.156  21.515  0.00  0.00    +0.000 NA
ATOM     28  C   UNL     1      48.381   4.873  21.587  0.00  0.00    +0.000 A 
ATOM     29  N   UNL     1      48.654   4.043  20.528  0.00  0.00    +0.000 N 
ATOM     30  C   UNL     1      48.849   4.508  19.250  0.00  0.00    +0.000 A 
ATOM     31  O   UNL     1      49.034   3.741  18.311  0.00  0.00    +0.000 OA
ATOM     32  C   UNL     1      48.799   5.952  19.118  0.00  0.00    +0.000 A 
ATOM     33  H   UNL     1      48.684   3.043  20.649  0.00  0.00    +0.000 HD
ENDBRANCH  20  23
ENDBRANCH  18  19
ENDBRANCH   4  18
TORSDOF 7
ENDMDL
MODEL 5
REMARK VINA RESULT:    -7.628      3.013      8.596
REMARK INTER + INTRA:         -11.069
REMARK INTER:                  -9.937
REMARK INTRA:                  -1.132
REMARK UNBOUND:                -0.320
REMARK  Name = 
REMARK  8 active torsions:
REMARK  status: ('A' for Active; 'I' for Inactive)
REMARK    1  A    between atoms: C_1  and  O_2
REMARK    2  A    between atoms: O_2  and  C_3
REMARK    3  A    between atoms: C_8  and  N_9
REMARK    4  A    between atoms: N_9  and  C_10
REMARK    5  A    between atoms: C_10  and  C_11
REMARK    6  A    between atoms: C_14  and  C_15
REMARK    7  A    between atoms: C_15  and  N_16
REMARK    8  A    between atoms: C_17  and  C_19
REMARK                            x       y       z     vdW  Elec       q    Type
REMARK                         _______ _______ _______ _____ _____    ______ ____
ROOT
ATOM      1  C   UNL     1      50.330   7.105  15.404  0.00  0.00    +0.000 A 
ATOM      2  C   UNL     1      50.749   7.972  14.394  0.00  0.00    +0.000 A 
ATOM      3  C   UNL     1      49.923   8.181  13.291  0.00  0.00    +0.000 A 
ATOM      4  C   UNL     1      48.683   7.544  13.225  0.00  0.00    +0.000 A 
ATOM      5  C   UNL     1      48.340   6.712  14.286  0.00  0.00    +0.000 A 
ATOM      6  N   UNL     1      49.123   6.485  15.368  0.00  0.00    +0.000 NA
ENDROOT
BRANCH   1   7
ATOM      7  C   UNL     1      51.268   6.794  16.563  0.00  0.00    +0.000 C 
BRANCH   7   8
ATOM      8  N   UNL     1      50.641   5.884  17.527  0.00  0.00    +0.000 N 
ATOM      9  H   UNL     1      49.639   5.859  17.350  0.00  0.00    +0.000 HD
BRANCH   8  15
ATOM     10  C   UNL     1      50.462   3.383  17.307  0.00  0.00    +0.000 A 
ATOM     11  C   UNL     1      51.109   2.137  17.385  0.00  0.00    +0.000 A 
ATOM     12  C   UNL     1      52.451   2.049  17.751  0.00  0.00    +0.000 A 
ATOM     13  C   UNL     1      53.168   3.209  18.019  0.00  0.00    +0.000 A 
ATOM     14  C   UNL     1      52.534   4.451  17.940  0.00  0.00    +0.000 A 
ATOM     15  C   UNL     1      51.164   4.572  17.627  0.00  0.00    +0.000 A 
BRANCH  10  17
ATOM     16  C   UNL     1      48.128   3.238  17.778  0.00  0.00    +0.000 C 
ATOM     17  O   UNL     1      49.173   3.498  16.850  0.00  0.00    +0.000 OA
ENDBRANCH  10  17
ENDBRANCH   8  15
ENDBRANCH   7   8
ENDBRANCH   1   7
BRANCH   4  18
ATOM     18  C   UNL     1      47.770   7.716  12.048  0.00  0.00    +0.000 C 
BRANCH  18  19
ATOM     19  N   UNL     1      47.035   6.507  11.762  0.00  0.00    +0.000 N 
ATOM     20  C   UNL     1      45.688   6.423  12.017  0.00  0.00    +0.000 C 
ATOM     21  O   UNL     1      45.051   7.383  12.441  0.00  0.00    +0.000 OA
ATOM     22  H   UNL     1      47.568   5.654  11.619  0.00  0.00    +0.000 HD
BRANCH  20  23
ATOM     23  C   UNL     1      45.030   5.146  11.709  0.00  0.00    +0.000 A 
ATOM     24  C   UNL     1      44.326   4.480  12.703  0.00  0.00    +0.000 A 
ATOM     25  S   UNL     1      43.591   3.037  12.175  0.00  0.00    +0.000 S 
ATOM     26  C   UNL     1      44.225   3.225  10.608  0.00  0.00    +0.000 A 
ATOM     27  N   UNL     1      43.991   2.294   9.641  0.00  0.00    +0.000 NA
ATOM     28  C   UNL     1      44.558   2.543   8.512  0.00  0.00    +0.000 A 
ATOM     29  N   UNL     1      45.338   3.643   8.254  0.00  0.00    +0.000 N 
ATOM     30  C   UNL     1      45.568   4.627   9.185  0.00  0.00    +0.000 A 
ATOM     31  O   UNL     1      46.221   5.628   8.910  0.00  0.00    +0.000 OA
ATOM     32  C   UNL     1      44.968   4.383  10.483  0.00  0.00    +0.000 A 
ATOM     33  H   UNL     1      45.744   3.787   7.343  0.00  0.00    +0.000 HD
ENDBRANCH  20  23
ENDBRANCH  18  19
ENDBRANCH   4  18
TORSDOF 7
ENDMDL
MODEL 6
REMARK VINA RESULT:    -7.304      4.244     10.251
REMARK INTER + INTRA:         -10.613
REMARK INTER:                  -9.541
REMARK INTRA:                  -1.072
REMARK UNBOUND:                -0.320
REMARK  Name = 
REMARK  8 active torsions:
REMARK  status: ('A' for Active; 'I' for Inactive)
REMARK    1  A    between atoms: C_1  and  O_2
REMARK    2  A    between atoms: O_2  and  C_3
REMARK    3  A    between atoms: C_8  and  N_9
REMARK    4  A    between atoms: N_9  and  C_10
REMARK    5  A    between atoms: C_10  and  C_11
REMARK    6  A    between atoms: C_14  and  C_15
REMARK    7  A    between atoms: C_15  and  N_16
REMARK    8  A    between atoms: C_17  and  C_19
REMARK                            x       y       z     vdW  Elec       q    Type
REMARK                         _______ _______ _______ _____ _____    ______ ____
ROOT
ATOM      1  C   UNL     1      48.524   5.699  20.185  0.00  0.00    +0.000 A 
ATOM      2  C   UNL     1      47.244   5.831  19.646  0.00  0.00    +0.000 A 
ATOM      3  C   UNL     1      46.952   5.223  18.426  0.00  0.00    +0.000 A 
ATOM      4  C   UNL     1      47.933   4.471  17.777  0.00  0.00    +0.000 A 
ATOM      5  C   UNL     1      49.175   4.378  18.397  0.00  0.00    +0.000 A 
ATOM      6  N   UNL     1      49.490   4.961  19.578  0.00  0.00    +0.000 NA
ENDROOT
BRANCH   1   7
ATOM      7  C   UNL     1      48.880   6.441  21.466  0.00  0.00    +0.000 C 
BRANCH   7   8
ATOM      8  N   UNL     1      49.290   7.821  21.186  0.00  0.00    +0.000 N 
ATOM      9  H   UNL     1      49.941   7.817  20.404  0.00  0.00    +0.000 HD
BRANCH   8  15
ATOM     10  C   UNL     1      48.070   9.527  19.794  0.00  0.00    +0.000 A 
ATOM     11  C   UNL     1      46.979  10.407  19.686  0.00  0.00    +0.000 A 
ATOM     12  C   UNL     1      46.063  10.544  20.727  0.00  0.00    +0.000 A 
ATOM     13  C   UNL     1      46.214   9.782  21.879  0.00  0.00    +0.000 A 
ATOM     14  C   UNL     1      47.293   8.902  21.994  0.00  0.00    +0.000 A 
ATOM     15  C   UNL     1      48.268   8.781  20.983  0.00  0.00    +0.000 A 
BRANCH  10  17
ATOM     16  C   UNL     1      48.414   8.564  17.639  0.00  0.00    +0.000 C 
ATOM     17  O   UNL     1      48.922   9.302  18.742  0.00  0.00    +0.000 OA
ENDBRANCH  10  17
ENDBRANCH   8  15
ENDBRANCH   7   8
ENDBRANCH   1   7
BRANCH   4  18
ATOM     18  C   UNL     1      47.677   3.819  16.450  0.00  0.00    +0.000 C 
BRANCH  18  19
ATOM     19  N   UNL     1      47.025   4.721  15.531  0.00  0.00    +0.000 N 
ATOM     20  C   UNL     1      46.755   4.338  14.240  0.00  0.00    +0.000 C 
ATOM     21  O   UNL     1      47.005   3.206  13.837  0.00  0.00    +0.000 OA
ATOM     22  H   UNL     1      47.007   5.708  15.772  0.00  0.00    +0.000 HD
BRANCH  20  23
ATOM     23  C   UNL     1      46.104   5.330  13.374  0.00  0.00    +0.000 A 
ATOM     24  C   UNL     1      46.780   6.495  13.035  0.00  0.00    +0.000 A 
ATOM     25  S   UNL     1      45.905   7.519  11.994  0.00  0.00    +0.000 S 
ATOM     26  C   UNL     1      44.570   6.466  11.992  0.00  0.00    +0.000 A 
ATOM     27  N   UNL     1      43.437   6.771  11.300  0.00  0.00    +0.000 NA
ATOM     28  C   UNL     1      42.492   5.904  11.413  0.00  0.00    +0.000 A 
ATOM     29  N   UNL     1      42.573   4.750  12.154  0.00  0.00    +0.000 N 
ATOM     30  C   UNL     1      43.708   4.382  12.835  0.00  0.00    +0.000 A 
ATOM     31  O   UNL     1      43.774   3.318  13.441  0.00  0.00    +0.000 OA
ATOM     32  C   UNL     1      44.796   5.338  12.758  0.00  0.00    +0.000 A 
ATOM     33  H   UNL     1      41.801   4.104  12.191  0.00  0.00    +0.000 HD
ENDBRANCH  20  23
ENDBRANCH  18  19
ENDBRANCH   4  18
TORSDOF 7
ENDMDL
MODEL 7
REMARK VINA RESULT:    -7.269      3.073      8.653
REMARK INTER + INTRA:         -10.564
REMARK INTER:                  -9.202
REMARK INTRA:                  -1.361
REMARK UNBOUND:                -0.320
REMARK  Name = 
REMARK  8 active torsions:
REMARK  status: ('A' for Active; 'I' for Inactive)
REMARK    1  A    between atoms: C_1  and  O_2
REMARK    2  A    between atoms: O_2  and  C_3
REMARK    3  A    between atoms: C_8  and  N_9
REMARK    4  A    between atoms: N_9  and  C_10
REMARK    5  A    between atoms: C_10  and  C_11
REMARK    6  A    between atoms: C_14  and  C_15
REMARK    7  A    between atoms: C_15  and  N_16
REMARK    8  A    between atoms: C_17  and  C_19
REMARK                            x       y       z     vdW  Elec       q    Type
REMARK                         _______ _______ _______ _____ _____    ______ ____
ROOT
ATOM      1  C   UNL     1      49.756   8.040  15.449  0.00  0.00    +0.000 A 
ATOM      2  C   UNL     1      48.769   9.007  15.256  0.00  0.00    +0.000 A 
ATOM      3  C   UNL     1      48.017   8.988  14.082  0.00  0.00    +0.000 A 
ATOM      4  C   UNL     1      48.243   7.989  13.133  0.00  0.00    +0.000 A 
ATOM      5  C   UNL     1      49.234   7.056  13.418  0.00  0.00    +0.000 A 
ATOM      6  N   UNL     1      49.985   7.052  14.546  0.00  0.00    +0.000 NA
ENDROOT
BRANCH   1   7
ATOM      7  C   UNL     1      50.648   8.114  16.681  0.00  0.00    +0.000 C 
BRANCH   7   8
ATOM      8  N   UNL     1      50.575   6.877  17.467  0.00  0.00    +0.000 N 
ATOM      9  H   UNL     1      51.232   6.942  18.241  0.00  0.00    +0.000 HD
BRANCH   8  15
ATOM     10  C   UNL     1      48.716   5.195  17.692  0.00  0.00    +0.000 A 
ATOM     11  C   UNL     1      47.467   4.876  18.253  0.00  0.00    +0.000 A 
ATOM     12  C   UNL     1      46.794   5.787  19.065  0.00  0.00    +0.000 A 
ATOM     13  C   UNL     1      47.375   7.018  19.346  0.00  0.00    +0.000 A 
ATOM     14  C   UNL     1      48.618   7.341  18.796  0.00  0.00    +0.000 A 
ATOM     15  C   UNL     1      49.300   6.465  17.925  0.00  0.00    +0.000 A 
BRANCH  10  17
ATOM     16  C   UNL     1      48.880   2.976  16.831  0.00  0.00    +0.000 C 
ATOM     17  O   UNL     1      49.440   4.275  16.975  0.00  0.00    +0.000 OA
ENDBRANCH  10  17
ENDBRANCH   8  15
ENDBRANCH   7   8
ENDBRANCH   1   7
BRANCH   4  18
ATOM     18  C   UNL     1      47.479   7.940  11.843  0.00  0.00    +0.000 C 
BRANCH  18  19
ATOM     19  N   UNL     1      46.820   6.669  11.662  0.00  0.00    +0.000 N 
ATOM     20  C   UNL     1      45.452   6.568  11.724  0.00  0.00    +0.000 C 
ATOM     21  O   UNL     1      44.739   7.555  11.880  0.00  0.00    +0.000 OA
ATOM     22  H   UNL     1      47.386   5.829  11.748  0.00  0.00    +0.000 HD
BRANCH  20  23
ATOM     23  C   UNL     1      44.874   5.229  11.545  0.00  0.00    +0.000 A 
ATOM     24  C   UNL     1      44.174   4.638  12.587  0.00  0.00    +0.000 A 
ATOM     25  S   UNL     1      43.535   3.107  12.205  0.00  0.00    +0.000 S 
ATOM     26  C   UNL     1      44.210   3.155  10.645  0.00  0.00    +0.000 A 
ATOM     27  N   UNL     1      44.059   2.111   9.782  0.00  0.00    +0.000 NA
ATOM     28  C   UNL     1      44.651   2.265   8.649  0.00  0.00    +0.000 A 
ATOM     29  N   UNL     1      45.379   3.372   8.290  0.00  0.00    +0.000 N 
ATOM     30  C   UNL     1      45.524   4.464   9.111  0.00  0.00    +0.000 A 
ATOM     31  O   UNL     1      46.131   5.465   8.743  0.00  0.00    +0.000 OA
ATOM     32  C   UNL     1      44.895   4.332  10.411  0.00  0.00    +0.000 A 
ATOM     33  H   UNL     1      45.807   3.437   7.381  0.00  0.00    +0.000 HD
ENDBRANCH  20  23
ENDBRANCH  18  19
ENDBRANCH   4  18
TORSDOF 7
ENDMDL
MODEL 8
REMARK VINA RESULT:    -7.077      3.964      7.974
REMARK INTER + INTRA:         -10.293
REMARK INTER:                  -9.122
REMARK INTRA:                  -1.171
REMARK UNBOUND:                -0.320
REMARK  Name = 
REMARK  8 active torsions:
REMARK  status: ('A' for Active; 'I' for Inactive)
REMARK    1  A    between atoms: C_1  and  O_2
REMARK    2  A    between atoms: O_2  and  C_3
REMARK    3  A    between atoms: C_8  and  N_9
REMARK    4  A    between atoms: N_9  and  C_10
REMARK    5  A    between atoms: C_10  and  C_11
REMARK    6  A    between atoms: C_14  and  C_15
REMARK    7  A    between atoms: C_15  and  N_16
REMARK    8  A    between atoms: C_17  and  C_19
REMARK                            x       y       z     vdW  Elec       q    Type
REMARK                         _______ _______ _______ _____ _____    ______ ____
ROOT
ATOM      1  C   UNL     1      50.135   6.977  17.126  0.00  0.00    +0.000 A 
ATOM      2  C   UNL     1      49.232   7.973  17.502  0.00  0.00    +0.000 A 
ATOM      3  C   UNL     1      48.473   8.610  16.522  0.00  0.00    +0.000 A 
ATOM      4  C   UNL     1      48.605   8.224  15.186  0.00  0.00    +0.000 A 
ATOM      5  C   UNL     1      49.515   7.210  14.906  0.00  0.00    +0.000 A 
ATOM      6  N   UNL     1      50.271   6.577  15.836  0.00  0.00    +0.000 NA
ENDROOT
BRANCH   1   7
ATOM      7  C   UNL     1      51.038   6.348  18.177  0.00  0.00    +0.000 C 
BRANCH   7   8
ATOM      8  N   UNL     1      50.349   5.272  18.898  0.00  0.00    +0.000 N 
ATOM      9  H   UNL     1      49.794   5.682  19.646  0.00  0.00    +0.000 HD
BRANCH   8  15
ATOM     10  C   UNL     1      50.081   3.259  17.411  0.00  0.00    +0.000 A 
ATOM     11  C   UNL     1      49.203   2.388  16.742  0.00  0.00    +0.000 A 
ATOM     12  C   UNL     1      47.824   2.578  16.800  0.00  0.00    +0.000 A 
ATOM     13  C   UNL     1      47.306   3.628  17.548  0.00  0.00    +0.000 A 
ATOM     14  C   UNL     1      48.171   4.496  18.219  0.00  0.00    +0.000 A 
ATOM     15  C   UNL     1      49.573   4.365  18.136  0.00  0.00    +0.000 A 
BRANCH  10  17
ATOM     16  C   UNL     1      51.860   1.682  17.615  0.00  0.00    +0.000 C 
ATOM     17  O   UNL     1      51.434   3.028  17.451  0.00  0.00    +0.000 OA
ENDBRANCH  10  17
ENDBRANCH   8  15
ENDBRANCH   7   8
ENDBRANCH   1   7
BRANCH   4  18
ATOM     18  C   UNL     1      47.830   8.895  14.091  0.00  0.00    +0.000 C 
BRANCH  18  19
ATOM     19  N   UNL     1      46.702   8.099  13.671  0.00  0.00    +0.000 N 
ATOM     20  C   UNL     1      46.739   7.386  12.498  0.00  0.00    +0.000 C 
ATOM     21  O   UNL     1      47.745   7.354  11.795  0.00  0.00    +0.000 OA
ATOM     22  H   UNL     1      45.806   8.280  14.116  0.00  0.00    +0.000 HD
BRANCH  20  23
ATOM     23  C   UNL     1      45.537   6.620  12.147  0.00  0.00    +0.000 A 
ATOM     24  C   UNL     1      44.453   7.268  11.569  0.00  0.00    +0.000 A 
ATOM     25  S   UNL     1      43.157   6.232  11.185  0.00  0.00    +0.000 S 
ATOM     26  C   UNL     1      43.977   4.884  11.819  0.00  0.00    +0.000 A 
ATOM     27  N   UNL     1      43.396   3.651  11.829  0.00  0.00    +0.000 NA
ATOM     28  C   UNL     1      44.112   2.728  12.370  0.00  0.00    +0.000 A 
ATOM     29  N   UNL     1      45.364   2.919  12.900  0.00  0.00    +0.000 N 
ATOM     30  C   UNL     1      46.005   4.134  12.876  0.00  0.00    +0.000 A 
ATOM     31  O   UNL     1      47.147   4.264  13.304  0.00  0.00    +0.000 OA
ATOM     32  C   UNL     1      45.230   5.215  12.297  0.00  0.00    +0.000 A 
ATOM     33  H   UNL     1      45.880   2.150  13.298  0.00  0.00    +0.000 HD
ENDBRANCH  20  23
ENDBRANCH  18  19
ENDBRANCH   4  18
TORSDOF 7
ENDMDL
MODEL 9
REMARK VINA RESULT:    -7.019      4.400      6.404
REMARK INTER + INTRA:         -10.211
REMARK INTER:                  -9.417
REMARK INTRA:                  -0.795
REMARK UNBOUND:                -0.320
REMARK  Name = 
REMARK  8 active torsions:
REMARK  status: ('A' for Active; 'I' for Inactive)
REMARK    1  A    between atoms: C_1  and  O_2
REMARK    2  A    between atoms: O_2  and  C_3
REMARK    3  A    between atoms: C_8  and  N_9
REMARK    4  A    between atoms: N_9  and  C_10
REMARK    5  A    between atoms: C_10  and  C_11
REMARK    6  A    between atoms: C_14  and  C_15
REMARK    7  A    between atoms: C_15  and  N_16
REMARK    8  A    between atoms: C_17  and  C_19
REMARK                            x       y       z     vdW  Elec       q    Type
REMARK                         _______ _______ _______ _____ _____    ______ ____
ROOT
ATOM      1  C   UNL     1      45.096   7.715  12.188  0.00  0.00    +0.000 A 
ATOM      2  C   UNL     1      44.292   6.574  12.155  0.00  0.00    +0.000 A 
ATOM      3  C   UNL     1      44.757   5.397  12.741  0.00  0.00    +0.000 A 
ATOM      4  C   UNL     1      46.001   5.385  13.374  0.00  0.00    +0.000 A 
ATOM      5  C   UNL     1      46.725   6.573  13.374  0.00  0.00    +0.000 A 
ATOM      6  N   UNL     1      46.303   7.729  12.808  0.00  0.00    +0.000 NA
ENDROOT
BRANCH   1   7
ATOM      7  C   UNL     1      44.640   8.974  11.464  0.00  0.00    +0.000 C 
BRANCH   7   8
ATOM      8  N   UNL     1      43.423   8.729  10.682  0.00  0.00    +0.000 N 
ATOM      9  H   UNL     1      42.891   7.986  11.129  0.00  0.00    +0.000 HD
BRANCH   8  15
ATOM     10  C   UNL     1      42.827  10.802   9.386  0.00  0.00    +0.000 A 
ATOM     11  C   UNL     1      41.894  11.829   9.154  0.00  0.00    +0.000 A 
ATOM     12  C   UNL     1      40.715  11.904   9.894  0.00  0.00    +0.000 A 
ATOM     13  C   UNL     1      40.444  10.939  10.856  0.00  0.00    +0.000 A 
ATOM     14  C   UNL     1      41.364   9.914  11.089  0.00  0.00    +0.000 A 
ATOM     15  C   UNL     1      42.591   9.840  10.399  0.00  0.00    +0.000 A 
BRANCH  10  17
ATOM     16  C   UNL     1      44.680  11.825   8.285  0.00  0.00    +0.000 C 
ATOM     17  O   UNL     1      43.942  10.651   8.600  0.00  0.00    +0.000 OA
ENDBRANCH  10  17
ENDBRANCH   8  15
ENDBRANCH   7   8
ENDBRANCH   1   7
BRANCH   4  18
ATOM     18  C   UNL     1      46.556   4.138  13.997  0.00  0.00    +0.000 C 
BRANCH  18  19
ATOM     19  N   UNL     1      47.620   4.434  14.927  0.00  0.00    +0.000 N 
ATOM     20  C   UNL     1      47.512   4.095  16.253  0.00  0.00    +0.000 C 
ATOM     21  O   UNL     1      46.540   3.483  16.685  0.00  0.00    +0.000 OA
ATOM     22  H   UNL     1      48.317   5.116  14.642  0.00  0.00    +0.000 HD
BRANCH  20  23
ATOM     23  C   UNL     1      48.638   4.454  17.125  0.00  0.00    +0.000 A 
ATOM     24  C   UNL     1      48.640   5.680  17.776  0.00  0.00    +0.000 A 
ATOM     25  S   UNL     1      49.994   5.925  18.779  0.00  0.00    +0.000 S 
ATOM     26  C   UNL     1      50.654   4.419  18.345  0.00  0.00    +0.000 A 
ATOM     27  N   UNL     1      51.855   4.010  18.843  0.00  0.00    +0.000 NA
ATOM     28  C   UNL     1      52.252   2.866  18.405  0.00  0.00    +0.000 A 
ATOM     29  N   UNL     1      51.558   2.084  17.516  0.00  0.00    +0.000 N 
ATOM     30  C   UNL     1      50.326   2.436  17.020  0.00  0.00    +0.000 A 
ATOM     31  O   UNL     1      49.700   1.692  16.272  0.00  0.00    +0.000 OA
ATOM     32  C   UNL     1      49.842   3.729  17.465  0.00  0.00    +0.000 A 
ATOM     33  H   UNL     1      51.918   1.190  17.222  0.00  0.00    +0.000 HD
ENDBRANCH  20  23
ENDBRANCH  18  19
ENDBRANCH   4  18
TORSDOF 7
ENDMDL
