MODEL 1
REMARK VINA RESULT:    -8.423      0.000      0.000
REMARK INTER + INTRA:         -12.994
REMARK INTER:                 -11.870
REMARK INTRA:                  -1.124
REMARK UNBOUND:                -1.124
REMARK  Name = 
REMARK  7 active torsions:
REMARK  status: ('A' for Active; 'I' for Inactive)
REMARK    1  A    between atoms: C_2  and  C_20
REMARK    2  A    between atoms: N_3  and  C_4
REMARK    3  A    between atoms: C_4  and  C_5
REMARK    4  A    between atoms: C_8  and  C_9
REMARK    5  A    between atoms: C_9  and  N_10
REMARK    6  A    between atoms: N_10  and  C_11
REMARK    7  A    between atoms: C_11  and  C_12
REMARK                            x       y       z     vdW  Elec       q    Type
REMARK                         _______ _______ _______ _____ _____    ______ ____
ROOT
ATOM      1  C   UNL     1      46.840   8.129  12.675  0.00  0.00    +0.000 C 
ENDROOT
BRANCH   1   2
ATOM      2  C   UNL     1      45.983   6.971  12.222  0.00  0.00    +0.000 A 
ATOM      3  C   UNL     1      46.291   6.301  11.037  0.00  0.00    +0.000 A 
ATOM      4  C   UNL     1      45.534   5.197  10.625  0.00  0.00    +0.000 A 
ATOM      5  C   UNL     1      44.453   4.736  11.392  0.00  0.00    +0.000 A 
ATOM      6  C   UNL     1      44.112   5.447  12.550  0.00  0.00    +0.000 A 
ATOM      7  C   UNL     1      44.860   6.562  12.956  0.00  0.00    +0.000 A 
BRANCH   5   8
ATOM      8  C   UNL     1      43.683   3.490  10.985  0.00  0.00    +0.000 C 
BRANCH   8   9
ATOM      9  N   UNL     1      44.600   2.437  10.565  0.00  0.00    +0.000 NA
ATOM     10  H   UNL     1      44.509   1.633  11.188  0.00  0.00    +0.000 HD
BRANCH   9  11
ATOM     11  C   UNL     1      44.363   1.956   9.192  0.00  0.00    +0.000 C 
BRANCH  11  12
ATOM     12  C   UNL     1      45.600   2.130   8.313  0.00  0.00    +0.000 A 
ATOM     13  N   UNL     1      45.803   3.350   7.758  0.00  0.00    +0.000 NA
ATOM     14  C   UNL     1      46.872   3.472   6.947  0.00  0.00    +0.000 A 
ATOM     15  C   UNL     1      47.744   2.445   6.681  0.00  0.00    +0.000 A 
ATOM     16  C   UNL     1      47.464   1.253   7.306  0.00  0.00    +0.000 A 
ATOM     17  N   UNL     1      46.410   1.066   8.124  0.00  0.00    +0.000 NA
ENDBRANCH  11  12
ENDBRANCH   9  11
ENDBRANCH   8   9
ENDBRANCH   5   8
ENDBRANCH   1   2
BRANCH   1  20
ATOM     18  O   UNL     1      48.986   6.387  13.246  0.00  0.00    +0.000 OA
ATOM     19  C   UNL     1      48.405   6.969  14.156  0.00  0.00    +0.000 C 
ATOM     20  N   UNL     1      47.374   7.868  13.978  0.00  0.00    +0.000 N 
ATOM     21  H   UNL     1      46.686   7.878  14.718  0.00  0.00    +0.000 HD
BRANCH  19  22
ATOM     22  C   UNL     1      48.479   6.598  15.554  0.00  0.00    +0.000 A 
ATOM     23  C   UNL     1      49.091   7.428  16.477  0.00  0.00    +0.000 A 
ATOM     24  S   UNL     1      49.853   6.495  17.700  0.00  0.00    +0.000 S 
ATOM     25  C   UNL     1      49.120   5.058  17.142  0.00  0.00    +0.000 A 
ATOM     26  N   UNL     1      49.448   3.843  17.651  0.00  0.00    +0.000 NA
ATOM     27  C   UNL     1      48.749   2.861  17.175  0.00  0.00    +0.000 A 
ATOM     28  N   UNL     1      47.735   2.993  16.258  0.00  0.00    +0.000 N 
ATOM     29  C   UNL     1      47.385   4.198  15.682  0.00  0.00    +0.000 A 
ATOM     30  O   UNL     1      46.465   4.304  14.891  0.00  0.00    +0.000 OA
ATOM     31  C   UNL     1      48.215   5.308  16.133  0.00  0.00    +0.000 A 
ATOM     32  H   UNL     1      47.175   2.194  15.996  0.00  0.00    +0.000 HD
ENDBRANCH  19  22
ENDBRANCH   1  20
TORSDOF 7
ENDMDL
MODEL 2
REMARK VINA RESULT:    -7.878      1.599      1.795
REMARK INTER + INTRA:         -12.226
REMARK INTER:                 -11.192
REMARK INTRA:                  -1.034
REMARK UNBOUND:                -1.124
REMARK  Name = 
REMARK  7 active torsions:
REMARK  status: ('A' for Active; 'I' for Inactive)
REMARK    1  A    between atoms: C_2  and  C_20
REMARK    2  A    between atoms: N_3  and  C_4
REMARK    3  A    between atoms: C_4  and  C_5
REMARK    4  A    between atoms: C_8  and  C_9
REMARK    5  A    between atoms: C_9  and  N_10
REMARK    6  A    between atoms: N_10  and  C_11
REMARK    7  A    between atoms: C_11  and  C_12
REMARK                            x       y       z     vdW  Elec       q    Type
REMARK                         _______ _______ _______ _____ _____    ______ ____
ROOT
ATOM      1  C   UNL     1      48.320   6.648  13.408  0.00  0.00    +0.000 C 
ENDROOT
BRANCH   1   2
ATOM      2  C   UNL     1      47.035   6.077  12.854  0.00  0.00    +0.000 A 
ATOM      3  C   UNL     1      46.554   6.519  11.620  0.00  0.00    +0.000 A 
ATOM      4  C   UNL     1      45.389   5.970  11.071  0.00  0.00    +0.000 A 
ATOM      5  C   UNL     1      44.680   4.963  11.743  0.00  0.00    +0.000 A 
ATOM      6  C   UNL     1      45.134   4.564  13.006  0.00  0.00    +0.000 A 
ATOM      7  C   UNL     1      46.293   5.124  13.564  0.00  0.00    +0.000 A 
BRANCH   5   8
ATOM      8  C   UNL     1      43.462   4.311  11.109  0.00  0.00    +0.000 C 
BRANCH   8   9
ATOM      9  N   UNL     1      43.767   3.864   9.755  0.00  0.00    +0.000 NA
ATOM     10  H   UNL     1      44.395   4.532   9.305  0.00  0.00    +0.000 HD
BRANCH   9  11
ATOM     11  C   UNL     1      44.418   2.544   9.698  0.00  0.00    +0.000 C 
BRANCH  11  12
ATOM     12  C   UNL     1      45.479   2.485   8.600  0.00  0.00    +0.000 A 
ATOM     13  N   UNL     1      45.711   3.622   7.898  0.00  0.00    +0.000 NA
ATOM     14  C   UNL     1      46.615   3.539   6.902  0.00  0.00    +0.000 A 
ATOM     15  C   UNL     1      47.298   2.390   6.589  0.00  0.00    +0.000 A 
ATOM     16  C   UNL     1      47.006   1.296   7.371  0.00  0.00    +0.000 A 
ATOM     17  N   UNL     1      46.111   1.313   8.378  0.00  0.00    +0.000 NA
ENDBRANCH  11  12
ENDBRANCH   9  11
ENDBRANCH   8   9
ENDBRANCH   5   8
ENDBRANCH   1   2
BRANCH   1  20
ATOM     18  O   UNL     1      50.267   6.583  15.450  0.00  0.00    +0.000 OA
ATOM     19  C   UNL     1      49.131   6.978  15.693  0.00  0.00    +0.000 C 
ATOM     20  N   UNL     1      48.123   7.084  14.758  0.00  0.00    +0.000 N 
ATOM     21  H   UNL     1      47.192   6.920  15.115  0.00  0.00    +0.000 HD
BRANCH  19  22
ATOM     22  C   UNL     1      48.566   7.104  17.021  0.00  0.00    +0.000 A 
ATOM     23  C   UNL     1      48.481   8.337  17.642  0.00  0.00    +0.000 A 
ATOM     24  S   UNL     1      48.687   8.163  19.337  0.00  0.00    +0.000 S 
ATOM     25  C   UNL     1      48.594   6.462  19.232  0.00  0.00    +0.000 A 
ATOM     26  N   UNL     1      48.835   5.664  20.305  0.00  0.00    +0.000 NA
ATOM     27  C   UNL     1      48.650   4.401  20.080  0.00  0.00    +0.000 A 
ATOM     28  N   UNL     1      48.220   3.872  18.887  0.00  0.00    +0.000 N 
ATOM     29  C   UNL     1      47.995   4.633  17.756  0.00  0.00    +0.000 A 
ATOM     30  O   UNL     1      47.587   4.153  16.715  0.00  0.00    +0.000 OA
ATOM     31  C   UNL     1      48.282   6.048  17.956  0.00  0.00    +0.000 A 
ATOM     32  H   UNL     1      48.014   2.886  18.809  0.00  0.00    +0.000 HD
ENDBRANCH  19  22
ENDBRANCH   1  20
TORSDOF 7
ENDMDL
MODEL 3
REMARK VINA RESULT:    -7.455      1.483      1.991
REMARK INTER + INTRA:         -11.630
REMARK INTER:                 -10.610
REMARK INTRA:                  -1.020
REMARK UNBOUND:                -1.124
REMARK  Name = 
REMARK  7 active torsions:
REMARK  status: ('A' for Active; 'I' for Inactive)
REMARK    1  A    between atoms: C_2  and  C_20
REMARK    2  A    between atoms: N_3  and  C_4
REMARK    3  A    between atoms: C_4  and  C_5
REMARK    4  A    between atoms: C_8  and  C_9
REMARK    5  A    between atoms: C_9  and  N_10
REMARK    6  A    between atoms: N_10  and  C_11
REMARK    7  A    between atoms: C_11  and  C_12
REMARK                            x       y       z     vdW  Elec       q    Type
REMARK                         _______ _______ _______ _____ _____    ______ ____
ROOT
ATOM      1  C   UNL     1      48.607   7.060  13.252  0.00  0.00    +0.000 C 
ENDROOT
BRANCH   1   2
ATOM      2  C   UNL     1      47.461   6.247  12.699  0.00  0.00    +0.000 A 
ATOM      3  C   UNL     1      47.010   5.121  13.392  0.00  0.00    +0.000 A 
ATOM      4  C   UNL     1      45.920   4.382  12.916  0.00  0.00    +0.000 A 
ATOM      5  C   UNL     1      45.253   4.753  11.739  0.00  0.00    +0.000 A 
ATOM      6  C   UNL     1      45.746   5.848  11.017  0.00  0.00    +0.000 A 
ATOM      7  C   UNL     1      46.847   6.582  11.484  0.00  0.00    +0.000 A 
BRANCH   5   8
ATOM      8  C   UNL     1      44.021   3.998  11.269  0.00  0.00    +0.000 C 
BRANCH   8   9
ATOM      9  N   UNL     1      44.107   3.718   9.841  0.00  0.00    +0.000 NA
ATOM     10  H   UNL     1      44.804   4.328   9.411  0.00  0.00    +0.000 HD
BRANCH   9  11
ATOM     11  C   UNL     1      44.488   2.329   9.528  0.00  0.00    +0.000 C 
BRANCH  11  12
ATOM     12  C   UNL     1      45.615   2.272   8.499  0.00  0.00    +0.000 A 
ATOM     13  N   UNL     1      46.160   1.058   8.239  0.00  0.00    +0.000 NA
ATOM     14  C   UNL     1      47.184   1.034   7.364  0.00  0.00    +0.000 A 
ATOM     15  C   UNL     1      47.674   2.152   6.735  0.00  0.00    +0.000 A 
ATOM     16  C   UNL     1      47.042   3.332   7.051  0.00  0.00    +0.000 A 
ATOM     17  N   UNL     1      46.016   3.424   7.919  0.00  0.00    +0.000 NA
ENDBRANCH  11  12
ENDBRANCH   9  11
ENDBRANCH   8   9
ENDBRANCH   5   8
ENDBRANCH   1   2
BRANCH   1  20
ATOM     18  O   UNL     1      48.455   8.421  15.720  0.00  0.00    +0.000 OA
ATOM     19  C   UNL     1      48.936   7.293  15.666  0.00  0.00    +0.000 C 
ATOM     20  N   UNL     1      49.019   6.533  14.518  0.00  0.00    +0.000 N 
ATOM     21  H   UNL     1      49.821   5.920  14.472  0.00  0.00    +0.000 HD
BRANCH  19  22
ATOM     22  C   UNL     1      49.762   6.697  16.695  0.00  0.00    +0.000 A 
ATOM     23  C   UNL     1      50.928   7.313  17.115  0.00  0.00    +0.000 A 
ATOM     24  S   UNL     1      52.100   6.135  17.544  0.00  0.00    +0.000 S 
ATOM     25  C   UNL     1      50.955   4.874  17.441  0.00  0.00    +0.000 A 
ATOM     26  N   UNL     1      51.315   3.569  17.550  0.00  0.00    +0.000 NA
ATOM     27  C   UNL     1      50.320   2.739  17.526  0.00  0.00    +0.000 A 
ATOM     28  N   UNL     1      48.998   3.103  17.430  0.00  0.00    +0.000 N 
ATOM     29  C   UNL     1      48.579   4.410  17.281  0.00  0.00    +0.000 A 
ATOM     30  O   UNL     1      47.404   4.719  17.226  0.00  0.00    +0.000 OA
ATOM     31  C   UNL     1      49.685   5.358  17.215  0.00  0.00    +0.000 A 
ATOM     32  H   UNL     1      48.270   2.407  17.504  0.00  0.00    +0.000 HD
ENDBRANCH  19  22
ENDBRANCH   1  20
TORSDOF 7
ENDMDL
MODEL 4
REMARK VINA RESULT:    -7.354      2.248      2.988
REMARK INTER + INTRA:         -11.487
REMARK INTER:                 -10.621
REMARK INTRA:                  -0.866
REMARK UNBOUND:                -1.124
REMARK  Name = 
REMARK  7 active torsions:
REMARK  status: ('A' for Active; 'I' for Inactive)
REMARK    1  A    between atoms: C_2  and  C_20
REMARK    2  A    between atoms: N_3  and  C_4
REMARK    3  A    between atoms: C_4  and  C_5
REMARK    4  A    between atoms: C_8  and  C_9
REMARK    5  A    between atoms: C_9  and  N_10
REMARK    6  A    between atoms: N_10  and  C_11
REMARK    7  A    between atoms: C_11  and  C_12
REMARK                            x       y       z     vdW  Elec       q    Type
REMARK                         _______ _______ _______ _____ _____    ______ ____
ROOT
ATOM      1  C   UNL     1      47.817   6.589  13.827  0.00  0.00    +0.000 C 
ENDROOT
BRANCH   1   2
ATOM      2  C   UNL     1      46.735   5.676  13.301  0.00  0.00    +0.000 A 
ATOM      3  C   UNL     1      45.582   6.220  12.732  0.00  0.00    +0.000 A 
ATOM      4  C   UNL     1      44.589   5.388  12.199  0.00  0.00    +0.000 A 
ATOM      5  C   UNL     1      44.729   3.992  12.221  0.00  0.00    +0.000 A 
ATOM      6  C   UNL     1      45.860   3.450  12.845  0.00  0.00    +0.000 A 
ATOM      7  C   UNL     1      46.848   4.281  13.392  0.00  0.00    +0.000 A 
BRANCH   5   8
ATOM      8  C   UNL     1      43.689   3.094  11.571  0.00  0.00    +0.000 C 
BRANCH   8   9
ATOM      9  N   UNL     1      44.240   2.450  10.384  0.00  0.00    +0.000 NA
ATOM     10  H   UNL     1      43.622   1.695  10.084  0.00  0.00    +0.000 HD
BRANCH   9  11
ATOM     11  C   UNL     1      44.407   3.360   9.237  0.00  0.00    +0.000 C 
BRANCH  11  12
ATOM     12  C   UNL     1      45.464   2.848   8.260  0.00  0.00    +0.000 A 
ATOM     13  N   UNL     1      45.945   1.597   8.464  0.00  0.00    +0.000 NA
ATOM     14  C   UNL     1      46.911   1.180   7.622  0.00  0.00    +0.000 A 
ATOM     15  C   UNL     1      47.400   1.942   6.590  0.00  0.00    +0.000 A 
ATOM     16  C   UNL     1      46.835   3.188   6.454  0.00  0.00    +0.000 A 
ATOM     17  N   UNL     1      45.870   3.665   7.265  0.00  0.00    +0.000 NA
ENDBRANCH  11  12
ENDBRANCH   9  11
ENDBRANCH   8   9
ENDBRANCH   5   8
ENDBRANCH   1   2
BRANCH   1  20
ATOM     18  O   UNL     1      50.272   6.847  15.195  0.00  0.00    +0.000 OA
ATOM     19  C   UNL     1      49.268   6.479  15.795  0.00  0.00    +0.000 C 
ATOM     20  N   UNL     1      48.017   6.360  15.227  0.00  0.00    +0.000 N 
ATOM     21  H   UNL     1      47.443   5.624  15.613  0.00  0.00    +0.000 HD
BRANCH  19  22
ATOM     22  C   UNL     1      49.271   5.824  17.087  0.00  0.00    +0.000 A 
ATOM     23  C   UNL     1      49.280   4.443  17.182  0.00  0.00    +0.000 A 
ATOM     24  S   UNL     1      48.395   3.938  18.563  0.00  0.00    +0.000 S 
ATOM     25  C   UNL     1      48.274   5.539  19.143  0.00  0.00    +0.000 A 
ATOM     26  N   UNL     1      47.514   5.853  20.224  0.00  0.00    +0.000 NA
ATOM     27  C   UNL     1      47.588   7.097  20.582  0.00  0.00    +0.000 A 
ATOM     28  N   UNL     1      48.375   8.043  19.971  0.00  0.00    +0.000 N 
ATOM     29  C   UNL     1      49.138   7.787  18.849  0.00  0.00    +0.000 A 
ATOM     30  O   UNL     1      49.851   8.628  18.336  0.00  0.00    +0.000 OA
ATOM     31  C   UNL     1      49.004   6.416  18.371  0.00  0.00    +0.000 A 
ATOM     32  H   UNL     1      48.449   8.973  20.357  0.00  0.00    +0.000 HD
ENDBRANCH  19  22
ENDBRANCH   1  20
TORSDOF 7
ENDMDL
MODEL 5
REMARK VINA RESULT:    -7.095      2.867      4.954
REMARK INTER + INTRA:         -11.122
REMARK INTER:                 -10.104
REMARK INTRA:                  -1.019
REMARK UNBOUND:                -1.124
REMARK  Name = 
REMARK  7 active torsions:
REMARK  status: ('A' for Active; 'I' for Inactive)
REMARK    1  A    between atoms: C_2  and  C_20
REMARK    2  A    between atoms: N_3  and  C_4
REMARK    3  A    between atoms: C_4  and  C_5
REMARK    4  A    between atoms: C_8  and  C_9
REMARK    5  A    between atoms: C_9  and  N_10
REMARK    6  A    between atoms: N_10  and  C_11
REMARK    7  A    between atoms: C_11  and  C_12
REMARK                            x       y       z     vdW  Elec       q    Type
REMARK                         _______ _______ _______ _____ _____    ______ ____
ROOT
ATOM      1  C   UNL     1      47.787   6.051  14.296  0.00  0.00    +0.000 C 
ENDROOT
BRANCH   1   2
ATOM      2  C   UNL     1      46.702   5.279  13.583  0.00  0.00    +0.000 A 
ATOM      3  C   UNL     1      46.830   3.899  13.411  0.00  0.00    +0.000 A 
ATOM      4  C   UNL     1      45.814   3.161  12.792  0.00  0.00    +0.000 A 
ATOM      5  C   UNL     1      44.644   3.786  12.334  0.00  0.00    +0.000 A 
ATOM      6  C   UNL     1      44.546   5.178  12.457  0.00  0.00    +0.000 A 
ATOM      7  C   UNL     1      45.569   5.921  13.063  0.00  0.00    +0.000 A 
BRANCH   5   8
ATOM      8  C   UNL     1      43.508   2.972  11.736  0.00  0.00    +0.000 C 
BRANCH   8   9
ATOM      9  N   UNL     1      43.935   2.329  10.500  0.00  0.00    +0.000 NA
ATOM     10  H   UNL     1      43.182   1.743  10.138  0.00  0.00    +0.000 HD
BRANCH   9  11
ATOM     11  C   UNL     1      44.302   3.277   9.432  0.00  0.00    +0.000 C 
BRANCH  11  12
ATOM     12  C   UNL     1      45.432   2.732   8.559  0.00  0.00    +0.000 A 
ATOM     13  N   UNL     1      46.082   3.615   7.761  0.00  0.00    +0.000 NA
ATOM     14  C   UNL     1      47.042   3.109   6.963  0.00  0.00    +0.000 A 
ATOM     15  C   UNL     1      47.387   1.779   6.937  0.00  0.00    +0.000 A 
ATOM     16  C   UNL     1      46.683   0.969   7.797  0.00  0.00    +0.000 A 
ATOM     17  N   UNL     1      45.709   1.412   8.616  0.00  0.00    +0.000 NA
ENDBRANCH  11  12
ENDBRANCH   9  11
ENDBRANCH   8   9
ENDBRANCH   5   8
ENDBRANCH   1   2
BRANCH   1  20
ATOM     18  O   UNL     1      47.782   8.846  14.686  0.00  0.00    +0.000 OA
ATOM     19  C   UNL     1      48.282   8.366  13.674  0.00  0.00    +0.000 C 
ATOM     20  N   UNL     1      48.368   7.015  13.410  0.00  0.00    +0.000 N 
ATOM     21  H   UNL     1      48.309   6.768  12.432  0.00  0.00    +0.000 HD
BRANCH  19  22
ATOM     22  C   UNL     1      48.579   9.109  12.467  0.00  0.00    +0.000 A 
ATOM     23  C   UNL     1      49.847   9.085  11.913  0.00  0.00    +0.000 A 
ATOM     24  S   UNL     1      50.203  10.596  11.181  0.00  0.00    +0.000 S 
ATOM     25  C   UNL     1      48.591  11.129  11.361  0.00  0.00    +0.000 A 
ATOM     26  N   UNL     1      48.221  12.403  11.071  0.00  0.00    +0.000 NA
ATOM     27  C   UNL     1      46.950  12.628  11.188  0.00  0.00    +0.000 A 
ATOM     28  N   UNL     1      46.017  11.684  11.543  0.00  0.00    +0.000 N 
ATOM     29  C   UNL     1      46.342  10.385  11.883  0.00  0.00    +0.000 A 
ATOM     30  O   UNL     1      45.501   9.553  12.168  0.00  0.00    +0.000 OA
ATOM     31  C   UNL     1      47.776  10.129  11.846  0.00  0.00    +0.000 A 
ATOM     32  H   UNL     1      45.032  11.908  11.531  0.00  0.00    +0.000 HD
ENDBRANCH  19  22
ENDBRANCH   1  20
TORSDOF 7
ENDMDL
MODEL 6
REMARK VINA RESULT:    -7.033      2.077      2.738
REMARK INTER + INTRA:         -11.034
REMARK INTER:                 -10.141
REMARK INTRA:                  -0.893
REMARK UNBOUND:                -1.124
REMARK  Name = 
REMARK  7 active torsions:
REMARK  status: ('A' for Active; 'I' for Inactive)
REMARK    1  A    between atoms: C_2  and  C_20
REMARK    2  A    between atoms: N_3  and  C_4
REMARK    3  A    between atoms: C_4  and  C_5
REMARK    4  A    between atoms: C_8  and  C_9
REMARK    5  A    between atoms: C_9  and  N_10
REMARK    6  A    between atoms: N_10  and  C_11
REMARK    7  A    between atoms: C_11  and  C_12
REMARK                            x       y       z     vdW  Elec       q    Type
REMARK                         _______ _______ _______ _____ _____    ______ ____
ROOT
ATOM      1  C   UNL     1      49.617   7.598  13.607  0.00  0.00    +0.000 C 
ENDROOT
BRANCH   1   2
ATOM      2  C   UNL     1      48.396   6.911  13.042  0.00  0.00    +0.000 A 
ATOM      3  C   UNL     1      47.763   5.905  13.775  0.00  0.00    +0.000 A 
ATOM      4  C   UNL     1      46.605   5.288  13.285  0.00  0.00    +0.000 A 
ATOM      5  C   UNL     1      46.051   5.666  12.052  0.00  0.00    +0.000 A 
ATOM      6  C   UNL     1      46.723   6.634  11.295  0.00  0.00    +0.000 A 
ATOM      7  C   UNL     1      47.891   7.242  11.776  0.00  0.00    +0.000 A 
BRANCH   5   8
ATOM      8  C   UNL     1      44.751   5.053  11.561  0.00  0.00    +0.000 C 
BRANCH   8   9
ATOM      9  N   UNL     1      44.576   5.298  10.135  0.00  0.00    +0.000 NA
ATOM     10  H   UNL     1      45.473   5.549   9.716  0.00  0.00    +0.000 HD
BRANCH   9  11
ATOM     11  C   UNL     1      44.056   4.137   9.391  0.00  0.00    +0.000 C 
BRANCH  11  12
ATOM     12  C   UNL     1      45.163   3.418   8.622  0.00  0.00    +0.000 A 
ATOM     13  N   UNL     1      45.896   4.155   7.752  0.00  0.00    +0.000 NA
ATOM     14  C   UNL     1      46.835   3.494   7.047  0.00  0.00    +0.000 A 
ATOM     15  C   UNL     1      47.081   2.150   7.182  0.00  0.00    +0.000 A 
ATOM     16  C   UNL     1      46.298   1.494   8.104  0.00  0.00    +0.000 A 
ATOM     17  N   UNL     1      45.340   2.096   8.835  0.00  0.00    +0.000 NA
ENDBRANCH  11  12
ENDBRANCH   9  11
ENDBRANCH   8   9
ENDBRANCH   5   8
ENDBRANCH   1   2
BRANCH   1  20
ATOM     18  O   UNL     1      52.064   7.624  15.013  0.00  0.00    +0.000 OA
ATOM     19  C   UNL     1      51.036   7.254  15.571  0.00  0.00    +0.000 C 
ATOM     20  N   UNL     1      49.788   7.242  14.984  0.00  0.00    +0.000 N 
ATOM     21  H   UNL     1      49.176   6.504  15.301  0.00  0.00    +0.000 HD
BRANCH  19  22
ATOM     22  C   UNL     1      50.993   6.493  16.802  0.00  0.00    +0.000 A 
ATOM     23  C   UNL     1      52.024   5.636  17.144  0.00  0.00    +0.000 A 
ATOM     24  S   UNL     1      51.411   4.280  17.999  0.00  0.00    +0.000 S 
ATOM     25  C   UNL     1      49.868   4.996  18.143  0.00  0.00    +0.000 A 
ATOM     26  N   UNL     1      48.807   4.315  18.650  0.00  0.00    +0.000 NA
ATOM     27  C   UNL     1      47.727   5.022  18.762  0.00  0.00    +0.000 A 
ATOM     28  N   UNL     1      47.624   6.354  18.439  0.00  0.00    +0.000 N 
ATOM     29  C   UNL     1      48.659   7.084  17.888  0.00  0.00    +0.000 A 
ATOM     30  O   UNL     1      48.562   8.269  17.634  0.00  0.00    +0.000 OA
ATOM     31  C   UNL     1      49.861   6.289  17.668  0.00  0.00    +0.000 A 
ATOM     32  H   UNL     1      46.774   6.863  18.634  0.00  0.00    +0.000 HD
ENDBRANCH  19  22
ENDBRANCH   1  20
TORSDOF 7
ENDMDL
MODEL 7
REMARK VINA RESULT:    -6.959      2.466      3.293
REMARK INTER + INTRA:         -10.931
REMARK INTER:                 -10.023
REMARK INTRA:                  -0.907
REMARK UNBOUND:                -1.124
REMARK  Name = 
REMARK  7 active torsions:
REMARK  status: ('A' for Active; 'I' for Inactive)
REMARK    1  A    between atoms: C_2  and  C_20
REMARK    2  A    between atoms: N_3  and  C_4
REMARK    3  A    between atoms: C_4  and  C_5
REMARK    4  A    between atoms: C_8  and  C_9
REMARK    5  A    between atoms: C_9  and  N_10
REMARK    6  A    between atoms: N_10  and  C_11
REMARK    7  A    between atoms: C_11  and  C_12
REMARK                            x       y       z     vdW  Elec       q    Type
REMARK                         _______ _______ _______ _____ _____    ______ ____
ROOT
ATOM      1  C   UNL     1      45.615   8.525  12.728  0.00  0.00    +0.000 C 
ENDROOT
BRANCH   1   2
ATOM      2  C   UNL     1      45.109   7.121  12.494  0.00  0.00    +0.000 A 
ATOM      3  C   UNL     1      44.135   6.887  11.522  0.00  0.00    +0.000 A 
ATOM      4  C   UNL     1      43.686   5.587  11.261  0.00  0.00    +0.000 A 
ATOM      5  C   UNL     1      44.203   4.489  11.967  0.00  0.00    +0.000 A 
ATOM      6  C   UNL     1      45.137   4.736  12.981  0.00  0.00    +0.000 A 
ATOM      7  C   UNL     1      45.577   6.039  13.253  0.00  0.00    +0.000 A 
BRANCH   5   8
ATOM      8  C   UNL     1      43.774   3.071  11.627  0.00  0.00    +0.000 C 
BRANCH   8   9
ATOM      9  N   UNL     1      44.732   2.450  10.721  0.00  0.00    +0.000 NA
ATOM     10  H   UNL     1      44.774   1.446  10.899  0.00  0.00    +0.000 HD
BRANCH   9  11
ATOM     11  C   UNL     1      44.404   2.628   9.295  0.00  0.00    +0.000 C 
BRANCH  11  12
ATOM     12  C   UNL     1      45.610   2.347   8.400  0.00  0.00    +0.000 A 
ATOM     13  N   UNL     1      46.136   3.394   7.717  0.00  0.00    +0.000 NA
ATOM     14  C   UNL     1      47.167   3.118   6.896  0.00  0.00    +0.000 A 
ATOM     15  C   UNL     1      47.700   1.862   6.740  0.00  0.00    +0.000 A 
ATOM     16  C   UNL     1      47.110   0.872   7.489  0.00  0.00    +0.000 A 
ATOM     17  N   UNL     1      46.074   1.081   8.325  0.00  0.00    +0.000 NA
ENDBRANCH  11  12
ENDBRANCH   9  11
ENDBRANCH   8   9
ENDBRANCH   5   8
ENDBRANCH   1   2
BRANCH   1  20
ATOM     18  O   UNL     1      48.332   9.259  12.518  0.00  0.00    +0.000 OA
ATOM     19  C   UNL     1      47.878   8.878  13.592  0.00  0.00    +0.000 C 
ATOM     20  N   UNL     1      46.559   8.535  13.805  0.00  0.00    +0.000 N 
ATOM     21  H   UNL     1      46.414   7.807  14.490  0.00  0.00    +0.000 HD
BRANCH  19  22
ATOM     22  C   UNL     1      48.676   8.431  14.715  0.00  0.00    +0.000 A 
ATOM     23  C   UNL     1      48.981   7.091  14.880  0.00  0.00    +0.000 A 
ATOM     24  S   UNL     1      49.060   6.702  16.550  0.00  0.00    +0.000 S 
ATOM     25  C   UNL     1      48.977   8.347  16.996  0.00  0.00    +0.000 A 
ATOM     26  N   UNL     1      48.856   8.732  18.294  0.00  0.00    +0.000 NA
ATOM     27  C   UNL     1      48.883  10.016  18.472  0.00  0.00    +0.000 A 
ATOM     28  N   UNL     1      49.047  10.943  17.471  0.00  0.00    +0.000 N 
ATOM     29  C   UNL     1      49.139  10.609  16.134  0.00  0.00    +0.000 A 
ATOM     30  O   UNL     1      49.312  11.439  15.262  0.00  0.00    +0.000 OA
ATOM     31  C   UNL     1      49.022   9.176  15.896  0.00  0.00    +0.000 A 
ATOM     32  H   UNL     1      49.145  11.923  17.693  0.00  0.00    +0.000 HD
ENDBRANCH  19  22
ENDBRANCH   1  20
TORSDOF 7
ENDMDL
MODEL 8
REMARK VINA RESULT:    -6.745      3.004      7.657
REMARK INTER + INTRA:         -10.629
REMARK INTER:                  -9.345
REMARK INTRA:                  -1.284
REMARK UNBOUND:                -1.124
REMARK  Name = 
REMARK  7 active torsions:
REMARK  status: ('A' for Active; 'I' for Inactive)
REMARK    1  A    between atoms: C_2  and  C_20
REMARK    2  A    between atoms: N_3  and  C_4
REMARK    3  A    between atoms: C_4  and  C_5
REMARK    4  A    between atoms: C_8  and  C_9
REMARK    5  A    between atoms: C_9  and  N_10
REMARK    6  A    between atoms: N_10  and  C_11
REMARK    7  A    between atoms: C_11  and  C_12
REMARK                            x       y       z     vdW  Elec       q    Type
REMARK                         _______ _______ _______ _____ _____    ______ ____
ROOT
ATOM      1  C   UNL     1      46.859   8.712  12.271  0.00  0.00    +0.000 C 
ENDROOT
BRANCH   1   2
ATOM      2  C   UNL     1      47.857   8.433  13.371  0.00  0.00    +0.000 A 
ATOM      3  C   UNL     1      47.896   7.173  13.971  0.00  0.00    +0.000 A 
ATOM      4  C   UNL     1      48.843   6.885  14.961  0.00  0.00    +0.000 A 
ATOM      5  C   UNL     1      49.776   7.850  15.371  0.00  0.00    +0.000 A 
ATOM      6  C   UNL     1      49.695   9.129  14.808  0.00  0.00    +0.000 A 
ATOM      7  C   UNL     1      48.738   9.425  13.827  0.00  0.00    +0.000 A 
BRANCH   5   8
ATOM      8  C   UNL     1      50.854   7.510  16.387  0.00  0.00    +0.000 C 
BRANCH   8   9
ATOM      9  N   UNL     1      51.161   6.085  16.350  0.00  0.00    +0.000 NA
ATOM     10  H   UNL     1      52.149   5.951  16.129  0.00  0.00    +0.000 HD
BRANCH   9  11
ATOM     11  C   UNL     1      50.898   5.386  17.620  0.00  0.00    +0.000 C 
BRANCH  11  12
ATOM     12  C   UNL     1      49.586   4.605  17.573  0.00  0.00    +0.000 A 
ATOM     13  N   UNL     1      49.623   3.358  17.043  0.00  0.00    +0.000 NA
ATOM     14  C   UNL     1      48.448   2.703  16.965  0.00  0.00    +0.000 A 
ATOM     15  C   UNL     1      47.256   3.227  17.401  0.00  0.00    +0.000 A 
ATOM     16  C   UNL     1      47.326   4.490  17.940  0.00  0.00    +0.000 A 
ATOM     17  N   UNL     1      48.467   5.198  18.042  0.00  0.00    +0.000 NA
ENDBRANCH  11  12
ENDBRANCH   9  11
ENDBRANCH   8   9
ENDBRANCH   5   8
ENDBRANCH   1   2
BRANCH   1  20
ATOM     18  O   UNL     1      44.358   7.647  11.512  0.00  0.00    +0.000 OA
ATOM     19  C   UNL     1      45.395   7.077  11.188  0.00  0.00    +0.000 C 
ATOM     20  N   UNL     1      46.663   7.537  11.476  0.00  0.00    +0.000 N 
ATOM     21  H   UNL     1      47.354   6.814  11.625  0.00  0.00    +0.000 HD
BRANCH  19  22
ATOM     22  C   UNL     1      45.476   5.704  10.733  0.00  0.00    +0.000 A 
ATOM     23  C   UNL     1      45.793   5.409   9.419  0.00  0.00    +0.000 A 
ATOM     24  S   UNL     1      44.972   3.989   8.915  0.00  0.00    +0.000 S 
ATOM     25  C   UNL     1      44.459   3.651  10.507  0.00  0.00    +0.000 A 
ATOM     26  N   UNL     1      43.589   2.643  10.781  0.00  0.00    +0.000 NA
ATOM     27  C   UNL     1      43.359   2.469  12.044  0.00  0.00    +0.000 A 
ATOM     28  N   UNL     1      43.943   3.194  13.055  0.00  0.00    +0.000 N 
ATOM     29  C   UNL     1      44.804   4.250  12.833  0.00  0.00    +0.000 A 
ATOM     30  O   UNL     1      45.335   4.864  13.738  0.00  0.00    +0.000 OA
ATOM     31  C   UNL     1      45.012   4.526  11.416  0.00  0.00    +0.000 A 
ATOM     32  H   UNL     1      43.782   2.945  14.021  0.00  0.00    +0.000 HD
ENDBRANCH  19  22
ENDBRANCH   1  20
TORSDOF 7
ENDMDL
MODEL 9
REMARK VINA RESULT:    -6.615      2.828      4.279
REMARK INTER + INTRA:         -10.446
REMARK INTER:                  -9.587
REMARK INTRA:                  -0.859
REMARK UNBOUND:                -1.124
REMARK  Name = 
REMARK  7 active torsions:
REMARK  status: ('A' for Active; 'I' for Inactive)
REMARK    1  A    between atoms: C_2  and  C_20
REMARK    2  A    between atoms: N_3  and  C_4
REMARK    3  A    between atoms: C_4  and  C_5
REMARK    4  A    between atoms: C_8  and  C_9
REMARK    5  A    between atoms: C_9  and  N_10
REMARK    6  A    between atoms: N_10  and  C_11
REMARK    7  A    between atoms: C_11  and  C_12
REMARK                            x       y       z     vdW  Elec       q    Type
REMARK                         _______ _______ _______ _____ _____    ______ ____
ROOT
ATOM      1  C   UNL     1      47.539   5.664  14.713  0.00  0.00    +0.000 C 
ENDROOT
BRANCH   1   2
ATOM      2  C   UNL     1      46.518   5.017  13.807  0.00  0.00    +0.000 A 
ATOM      3  C   UNL     1      46.659   3.675  13.448  0.00  0.00    +0.000 A 
ATOM      4  C   UNL     1      45.699   3.048  12.645  0.00  0.00    +0.000 A 
ATOM      5  C   UNL     1      44.572   3.748  12.185  0.00  0.00    +0.000 A 
ATOM      6  C   UNL     1      44.466   5.109  12.500  0.00  0.00    +0.000 A 
ATOM      7  C   UNL     1      45.434   5.743  13.292  0.00  0.00    +0.000 A 
BRANCH   5   8
ATOM      8  C   UNL     1      43.491   3.045  11.382  0.00  0.00    +0.000 C 
BRANCH   8   9
ATOM      9  N   UNL     1      44.076   2.323  10.258  0.00  0.00    +0.000 NA
ATOM     10  H   UNL     1      43.415   1.626   9.914  0.00  0.00    +0.000 HD
BRANCH   9  11
ATOM     11  C   UNL     1      44.432   3.187   9.118  0.00  0.00    +0.000 C 
BRANCH  11  12
ATOM     12  C   UNL     1      45.593   2.606   8.313  0.00  0.00    +0.000 A 
ATOM     13  N   UNL     1      45.802   1.269   8.397  0.00  0.00    +0.000 NA
ATOM     14  C   UNL     1      46.859   0.782   7.718  0.00  0.00    +0.000 A 
ATOM     15  C   UNL     1      47.697   1.559   6.957  0.00  0.00    +0.000 A 
ATOM     16  C   UNL     1      47.391   2.899   6.920  0.00  0.00    +0.000 A 
ATOM     17  N   UNL     1      46.352   3.449   7.579  0.00  0.00    +0.000 NA
ENDBRANCH  11  12
ENDBRANCH   9  11
ENDBRANCH   8   9
ENDBRANCH   5   8
ENDBRANCH   1   2
BRANCH   1  20
ATOM     18  O   UNL     1      49.178   6.299  12.504  0.00  0.00    +0.000 OA
ATOM     19  C   UNL     1      48.681   7.193  13.181  0.00  0.00    +0.000 C 
ATOM     20  N   UNL     1      47.838   6.987  14.253  0.00  0.00    +0.000 N 
ATOM     21  H   UNL     1      47.909   7.676  14.988  0.00  0.00    +0.000 HD
BRANCH  19  22
ATOM     22  C   UNL     1      49.122   8.573  13.178  0.00  0.00    +0.000 A 
ATOM     23  C   UNL     1      48.354   9.562  12.588  0.00  0.00    +0.000 A 
ATOM     24  S   UNL     1      49.365  10.769  11.904  0.00  0.00    +0.000 S 
ATOM     25  C   UNL     1      50.753  10.109  12.647  0.00  0.00    +0.000 A 
ATOM     26  N   UNL     1      52.001  10.571  12.372  0.00  0.00    +0.000 NA
ATOM     27  C   UNL     1      52.939  10.017  13.073  0.00  0.00    +0.000 A 
ATOM     28  N   UNL     1      52.735   9.064  14.042  0.00  0.00    +0.000 N 
ATOM     29  C   UNL     1      51.495   8.534  14.336  0.00  0.00    +0.000 A 
ATOM     30  O   UNL     1      51.326   7.711  15.216  0.00  0.00    +0.000 OA
ATOM     31  C   UNL     1      50.431   9.075  13.499  0.00  0.00    +0.000 A 
ATOM     32  H   UNL     1      53.505   8.739  14.609  0.00  0.00    +0.000 HD
ENDBRANCH  19  22
ENDBRANCH   1  20
TORSDOF 7
ENDMDL
