MODEL 1
REMARK VINA RESULT:    -8.348      0.000      0.000
REMARK INTER + INTRA:         -12.811
REMARK INTER:                 -12.009
REMARK INTRA:                  -0.802
REMARK UNBOUND:                -0.802
REMARK  Name = 
REMARK  10 active torsions:
REMARK  status: ('A' for Active; 'I' for Inactive)
REMARK    1  A    between atoms: C_1  and  C_2
REMARK    2  A    between atoms: C_2  and  C_3
REMARK    3  A    between atoms: C_2  and  C_4
REMARK    4  A    between atoms: C_2  and  C_15
REMARK    5  A    between atoms: C_4  and  N_5
REMARK    6  A    between atoms: C_9  and  C_10
REMARK    7  A    between atoms: C_19  and  C_20
REMARK    8  A    between atoms: C_20  and  N_21
REMARK    9  A    between atoms: C_23  and  C_24
REMARK   10  A    between atoms: C_24  and  O_25
REMARK                            x       y       z     vdW  Elec       q    Type
REMARK                         _______ _______ _______ _____ _____    ______ ____
ROOT
ATOM      1  C   UNL     1      42.898   5.319  12.897  0.00  0.00    +0.000 C 
ATOM      2  C   UNL     1      44.186   5.359  12.037  0.00  0.00    +0.000 C 
ATOM      3  C   UNL     1      45.172   4.306  12.599  0.00  0.00    +0.000 C 
ENDROOT
BRANCH   2   4
ATOM      4  C   UNL     1      44.810   6.766  12.142  0.00  0.00    +0.000 A 
ATOM      5  C   UNL     1      46.057   6.963  12.762  0.00  0.00    +0.000 A 
ATOM      6  C   UNL     1      46.661   8.225  12.799  0.00  0.00    +0.000 A 
ATOM      7  C   UNL     1      46.057   9.314  12.175  0.00  0.00    +0.000 A 
ATOM      8  C   UNL     1      44.822   9.152  11.545  0.00  0.00    +0.000 A 
ATOM      9  C   UNL     1      44.193   7.898  11.587  0.00  0.00    +0.000 A 
BRANCH   8  10
ATOM     10  C   UNL     1      44.217  10.252  10.703  0.00  0.00    +0.000 C 
BRANCH  10  11
ATOM     11  N   UNL     1      42.841  10.519  11.122  0.00  0.00    +0.000 N 
ATOM     12  C   UNL     1      41.702   9.946  10.621  0.00  0.00    +0.000 A 
ATOM     13  C   UNL     1      40.639  10.606  11.202  0.00  0.00    +0.000 A 
ATOM     14  C   UNL     1      41.253  11.490  12.116  0.00  0.00    +0.000 A 
ATOM     15  N   UNL     1      42.586  11.433  12.082  0.00  0.00    +0.000 NA
BRANCH  13  16
ATOM     16  C   UNL     1      39.190  10.436  10.934  0.00  0.00    +0.000 C 
BRANCH  16  17
ATOM     17  O   UNL     1      38.691   9.209  11.463  0.00  0.00    +0.000 OA
ATOM     18  H   UNL     1      38.209   9.446  12.276  0.00  0.00    +0.000 HD
ENDBRANCH  16  17
ENDBRANCH  13  16
ENDBRANCH  10  11
ENDBRANCH   8  10
ENDBRANCH   2   4
BRANCH   2  19
ATOM     19  C   UNL     1      43.764   4.920  10.590  0.00  0.00    +0.000 C 
BRANCH  19  20
ATOM     20  N   UNL     1      43.989   3.487  10.340  0.00  0.00    +0.000 N 
ATOM     21  C   UNL     1      44.888   3.203   9.303  0.00  0.00    +0.000 A 
ATOM     22  C   UNL     1      45.207   1.867   9.057  0.00  0.00    +0.000 A 
ATOM     23  C   UNL     1      46.110   1.546   8.043  0.00  0.00    +0.000 A 
ATOM     24  C   UNL     1      46.676   2.573   7.291  0.00  0.00    +0.000 A 
ATOM     25  C   UNL     1      46.308   3.874   7.600  0.00  0.00    +0.000 A 
ATOM     26  N   UNL     1      45.448   4.204   8.597  0.00  0.00    +0.000 NA
ATOM     27  H   UNL     1      43.131   2.967  10.186  0.00  0.00    +0.000 HD
BRANCH  24  28
ATOM     28  C   UNL     1      47.611   2.346   6.174  0.00  0.00    +0.000 C 
ATOM     29  N   UNL     1      47.508   3.162   5.086  0.00  0.00    +0.000 N 
ATOM     30  O   UNL     1      48.432   1.439   6.206  0.00  0.00    +0.000 OA
ATOM     31  H   UNL     1      46.707   3.752   4.915  0.00  0.00    +0.000 HD
ATOM     32  H   UNL     1      48.094   2.928   4.292  0.00  0.00    +0.000 HD
ENDBRANCH  24  28
ENDBRANCH  19  20
ENDBRANCH   2  19
TORSDOF 8
ENDMDL
MODEL 2
REMARK VINA RESULT:    -8.166      3.710      5.504
REMARK INTER + INTRA:         -12.549
REMARK INTER:                 -11.702
REMARK INTRA:                  -0.847
REMARK UNBOUND:                -0.802
REMARK  Name = 
REMARK  10 active torsions:
REMARK  status: ('A' for Active; 'I' for Inactive)
REMARK    1  A    between atoms: C_1  and  C_2
REMARK    2  A    between atoms: C_2  and  C_3
REMARK    3  A    between atoms: C_2  and  C_4
REMARK    4  A    between atoms: C_2  and  C_15
REMARK    5  A    between atoms: C_4  and  N_5
REMARK    6  A    between atoms: C_9  and  C_10
REMARK    7  A    between atoms: C_19  and  C_20
REMARK    8  A    between atoms: C_20  and  N_21
REMARK    9  A    between atoms: C_23  and  C_24
REMARK   10  A    between atoms: C_24  and  O_25
REMARK                            x       y       z     vdW  Elec       q    Type
REMARK                         _______ _______ _______ _____ _____    ______ ____
ROOT
ATOM      1  C   UNL     1      42.869   5.004  13.226  0.00  0.00    +0.000 C 
ATOM      2  C   UNL     1      44.088   4.770  12.301  0.00  0.00    +0.000 C 
ATOM      3  C   UNL     1      44.780   3.457  12.739  0.00  0.00    +0.000 C 
ENDROOT
BRANCH   2   4
ATOM      4  C   UNL     1      45.066   5.953  12.460  0.00  0.00    +0.000 A 
ATOM      5  C   UNL     1      44.622   7.283  12.345  0.00  0.00    +0.000 A 
ATOM      6  C   UNL     1      45.488   8.362  12.557  0.00  0.00    +0.000 A 
ATOM      7  C   UNL     1      46.810   8.140  12.936  0.00  0.00    +0.000 A 
ATOM      8  C   UNL     1      47.282   6.834  13.067  0.00  0.00    +0.000 A 
ATOM      9  C   UNL     1      46.421   5.763  12.772  0.00  0.00    +0.000 A 
BRANCH   8  10
ATOM     10  C   UNL     1      48.646   6.543  13.649  0.00  0.00    +0.000 C 
BRANCH  10  11
ATOM     11  N   UNL     1      48.535   6.200  15.066  0.00  0.00    +0.000 N 
ATOM     12  C   UNL     1      47.944   5.084  15.599  0.00  0.00    +0.000 A 
ATOM     13  C   UNL     1      47.939   5.255  16.968  0.00  0.00    +0.000 A 
ATOM     14  C   UNL     1      48.644   6.464  17.158  0.00  0.00    +0.000 A 
ATOM     15  N   UNL     1      49.020   7.034  16.010  0.00  0.00    +0.000 NA
BRANCH  13  16
ATOM     16  C   UNL     1      47.334   4.383  18.005  0.00  0.00    +0.000 C 
BRANCH  16  17
ATOM     17  O   UNL     1      46.588   3.312  17.430  0.00  0.00    +0.000 OA
ATOM     18  H   UNL     1      46.831   3.294  16.487  0.00  0.00    +0.000 HD
ENDBRANCH  16  17
ENDBRANCH  13  16
ENDBRANCH  10  11
ENDBRANCH   8  10
ENDBRANCH   2   4
BRANCH   2  19
ATOM     19  C   UNL     1      43.513   4.569  10.855  0.00  0.00    +0.000 C 
BRANCH  19  20
ATOM     20  N   UNL     1      44.374   5.152   9.813  0.00  0.00    +0.000 N 
ATOM     21  C   UNL     1      45.122   4.222   9.078  0.00  0.00    +0.000 A 
ATOM     22  C   UNL     1      45.906   4.694   8.024  0.00  0.00    +0.000 A 
ATOM     23  C   UNL     1      46.652   3.797   7.259  0.00  0.00    +0.000 A 
ATOM     24  C   UNL     1      46.601   2.440   7.568  0.00  0.00    +0.000 A 
ATOM     25  C   UNL     1      45.797   2.052   8.630  0.00  0.00    +0.000 A 
ATOM     26  N   UNL     1      45.048   2.909   9.368  0.00  0.00    +0.000 NA
ATOM     27  H   UNL     1      44.995   5.874  10.163  0.00  0.00    +0.000 HD
BRANCH  24  28
ATOM     28  C   UNL     1      47.377   1.411   6.852  0.00  0.00    +0.000 C 
ATOM     29  N   UNL     1      48.496   1.814   6.182  0.00  0.00    +0.000 N 
ATOM     30  O   UNL     1      47.017   0.242   6.831  0.00  0.00    +0.000 OA
ATOM     31  H   UNL     1      48.693   2.781   5.973  0.00  0.00    +0.000 HD
ATOM     32  H   UNL     1      48.959   1.109   5.619  0.00  0.00    +0.000 HD
ENDBRANCH  24  28
ENDBRANCH  19  20
ENDBRANCH   2  19
TORSDOF 8
ENDMDL
MODEL 3
REMARK VINA RESULT:    -8.056      4.732      8.814
REMARK INTER + INTRA:         -12.390
REMARK INTER:                 -11.709
REMARK INTRA:                  -0.681
REMARK UNBOUND:                -0.802
REMARK  Name = 
REMARK  10 active torsions:
REMARK  status: ('A' for Active; 'I' for Inactive)
REMARK    1  A    between atoms: C_1  and  C_2
REMARK    2  A    between atoms: C_2  and  C_3
REMARK    3  A    between atoms: C_2  and  C_4
REMARK    4  A    between atoms: C_2  and  C_15
REMARK    5  A    between atoms: C_4  and  N_5
REMARK    6  A    between atoms: C_9  and  C_10
REMARK    7  A    between atoms: C_19  and  C_20
REMARK    8  A    between atoms: C_20  and  N_21
REMARK    9  A    between atoms: C_23  and  C_24
REMARK   10  A    between atoms: C_24  and  O_25
REMARK                            x       y       z     vdW  Elec       q    Type
REMARK                         _______ _______ _______ _____ _____    ______ ____
ROOT
ATOM      1  C   UNL     1      46.212   8.132  13.147  0.00  0.00    +0.000 C 
ATOM      2  C   UNL     1      46.741   6.850  12.460  0.00  0.00    +0.000 C 
ATOM      3  C   UNL     1      47.530   7.271  11.197  0.00  0.00    +0.000 C 
ENDROOT
BRANCH   2   4
ATOM      4  C   UNL     1      45.539   5.971  12.056  0.00  0.00    +0.000 A 
ATOM      5  C   UNL     1      44.463   5.762  12.938  0.00  0.00    +0.000 A 
ATOM      6  C   UNL     1      43.339   5.023  12.553  0.00  0.00    +0.000 A 
ATOM      7  C   UNL     1      43.238   4.515  11.260  0.00  0.00    +0.000 A 
ATOM      8  C   UNL     1      44.283   4.710  10.357  0.00  0.00    +0.000 A 
ATOM      9  C   UNL     1      45.439   5.384  10.785  0.00  0.00    +0.000 A 
BRANCH   8  10
ATOM     10  C   UNL     1      44.145   4.339   8.898  0.00  0.00    +0.000 C 
BRANCH  10  11
ATOM     11  N   UNL     1      45.098   3.288   8.545  0.00  0.00    +0.000 N 
ATOM     12  C   UNL     1      46.186   3.406   7.720  0.00  0.00    +0.000 A 
ATOM     13  C   UNL     1      46.699   2.135   7.558  0.00  0.00    +0.000 A 
ATOM     14  C   UNL     1      45.903   1.341   8.412  0.00  0.00    +0.000 A 
ATOM     15  N   UNL     1      44.941   2.036   9.024  0.00  0.00    +0.000 NA
BRANCH  13  16
ATOM     16  C   UNL     1      47.819   1.697   6.690  0.00  0.00    +0.000 C 
BRANCH  16  17
ATOM     17  O   UNL     1      48.677   2.781   6.340  0.00  0.00    +0.000 OA
ATOM     18  H   UNL     1      49.036   3.118   7.180  0.00  0.00    +0.000 HD
ENDBRANCH  16  17
ENDBRANCH  13  16
ENDBRANCH  10  11
ENDBRANCH   8  10
ENDBRANCH   2   4
BRANCH   2  19
ATOM     19  C   UNL     1      47.742   6.188  13.472  0.00  0.00    +0.000 C 
BRANCH  19  20
ATOM     20  N   UNL     1      47.134   5.088  14.238  0.00  0.00    +0.000 N 
ATOM     21  C   UNL     1      47.657   4.906  15.526  0.00  0.00    +0.000 A 
ATOM     22  C   UNL     1      47.080   3.929  16.337  0.00  0.00    +0.000 A 
ATOM     23  C   UNL     1      47.563   3.729  17.632  0.00  0.00    +0.000 A 
ATOM     24  C   UNL     1      48.620   4.512  18.087  0.00  0.00    +0.000 A 
ATOM     25  C   UNL     1      49.137   5.463  17.218  0.00  0.00    +0.000 A 
ATOM     26  N   UNL     1      48.664   5.684  15.966  0.00  0.00    +0.000 NA
ATOM     27  H   UNL     1      47.149   4.200  13.746  0.00  0.00    +0.000 HD
BRANCH  24  28
ATOM     28  C   UNL     1      49.232   4.361  19.420  0.00  0.00    +0.000 C 
ATOM     29  N   UNL     1      48.461   3.832  20.414  0.00  0.00    +0.000 N 
ATOM     30  O   UNL     1      50.380   4.722  19.637  0.00  0.00    +0.000 OA
ATOM     31  H   UNL     1      47.458   3.748  20.345  0.00  0.00    +0.000 HD
ATOM     32  H   UNL     1      48.869   3.826  21.342  0.00  0.00    +0.000 HD
ENDBRANCH  24  28
ENDBRANCH  19  20
ENDBRANCH   2  19
TORSDOF 8
ENDMDL
MODEL 4
REMARK VINA RESULT:    -7.645      4.800      8.842
REMARK INTER + INTRA:         -11.799
REMARK INTER:                 -10.709
REMARK INTRA:                  -1.089
REMARK UNBOUND:                -0.802
REMARK  Name = 
REMARK  10 active torsions:
REMARK  status: ('A' for Active; 'I' for Inactive)
REMARK    1  A    between atoms: C_1  and  C_2
REMARK    2  A    between atoms: C_2  and  C_3
REMARK    3  A    between atoms: C_2  and  C_4
REMARK    4  A    between atoms: C_2  and  C_15
REMARK    5  A    between atoms: C_4  and  N_5
REMARK    6  A    between atoms: C_9  and  C_10
REMARK    7  A    between atoms: C_19  and  C_20
REMARK    8  A    between atoms: C_20  and  N_21
REMARK    9  A    between atoms: C_23  and  C_24
REMARK   10  A    between atoms: C_24  and  O_25
REMARK                            x       y       z     vdW  Elec       q    Type
REMARK                         _______ _______ _______ _____ _____    ______ ____
ROOT
ATOM      1  C   UNL     1      46.028   8.658  12.144  0.00  0.00    +0.000 C 
ATOM      2  C   UNL     1      47.071   7.602  12.584  0.00  0.00    +0.000 C 
ATOM      3  C   UNL     1      48.310   7.738  11.665  0.00  0.00    +0.000 C 
ENDROOT
BRANCH   2   4
ATOM      4  C   UNL     1      46.454   6.197  12.423  0.00  0.00    +0.000 A 
ATOM      5  C   UNL     1      46.414   5.293  13.500  0.00  0.00    +0.000 A 
ATOM      6  C   UNL     1      45.793   4.045  13.382  0.00  0.00    +0.000 A 
ATOM      7  C   UNL     1      45.154   3.685  12.198  0.00  0.00    +0.000 A 
ATOM      8  C   UNL     1      45.168   4.560  11.111  0.00  0.00    +0.000 A 
ATOM      9  C   UNL     1      45.864   5.775  11.221  0.00  0.00    +0.000 A 
BRANCH   8  10
ATOM     10  C   UNL     1      44.339   4.296   9.875  0.00  0.00    +0.000 C 
BRANCH  10  11
ATOM     11  N   UNL     1      45.160   3.685   8.830  0.00  0.00    +0.000 N 
ATOM     12  C   UNL     1      45.476   2.359   8.701  0.00  0.00    +0.000 A 
ATOM     13  C   UNL     1      46.387   2.267   7.670  0.00  0.00    +0.000 A 
ATOM     14  C   UNL     1      46.471   3.589   7.179  0.00  0.00    +0.000 A 
ATOM     15  N   UNL     1      45.719   4.450   7.869  0.00  0.00    +0.000 NA
BRANCH  13  16
ATOM     16  C   UNL     1      47.116   1.069   7.185  0.00  0.00    +0.000 C 
BRANCH  16  17
ATOM     17  O   UNL     1      48.238   1.419   6.377  0.00  0.00    +0.000 OA
ATOM     18  H   UNL     1      48.208   0.825   5.607  0.00  0.00    +0.000 HD
ENDBRANCH  16  17
ENDBRANCH  13  16
ENDBRANCH  10  11
ENDBRANCH   8  10
ENDBRANCH   2   4
BRANCH   2  19
ATOM     19  C   UNL     1      47.495   7.982  14.046  0.00  0.00    +0.000 C 
BRANCH  19  20
ATOM     20  N   UNL     1      48.953   8.103  14.204  0.00  0.00    +0.000 N 
ATOM     21  C   UNL     1      49.508   7.296  15.207  0.00  0.00    +0.000 A 
ATOM     22  C   UNL     1      50.894   7.304  15.365  0.00  0.00    +0.000 A 
ATOM     23  C   UNL     1      51.484   6.501  16.342  0.00  0.00    +0.000 A 
ATOM     24  C   UNL     1      50.671   5.706  17.146  0.00  0.00    +0.000 A 
ATOM     25  C   UNL     1      49.302   5.755  16.923  0.00  0.00    +0.000 A 
ATOM     26  N   UNL     1      48.716   6.513  15.964  0.00  0.00    +0.000 NA
ATOM     27  H   UNL     1      49.264   9.060  14.340  0.00  0.00    +0.000 HD
BRANCH  24  28
ATOM     28  C   UNL     1      51.184   4.849  18.231  0.00  0.00    +0.000 C 
ATOM     29  N   UNL     1      50.372   3.852  18.688  0.00  0.00    +0.000 N 
ATOM     30  O   UNL     1      52.285   5.043  18.727  0.00  0.00    +0.000 OA
ATOM     31  H   UNL     1      49.385   3.809  18.483  0.00  0.00    +0.000 HD
ATOM     32  H   UNL     1      50.706   3.338  19.497  0.00  0.00    +0.000 HD
ENDBRANCH  24  28
ENDBRANCH  19  20
ENDBRANCH   2  19
TORSDOF 8
ENDMDL
MODEL 5
REMARK VINA RESULT:    -7.431      4.326      6.459
REMARK INTER + INTRA:         -11.492
REMARK INTER:                 -10.642
REMARK INTRA:                  -0.850
REMARK UNBOUND:                -0.802
REMARK  Name = 
REMARK  10 active torsions:
REMARK  status: ('A' for Active; 'I' for Inactive)
REMARK    1  A    between atoms: C_1  and  C_2
REMARK    2  A    between atoms: C_2  and  C_3
REMARK    3  A    between atoms: C_2  and  C_4
REMARK    4  A    between atoms: C_2  and  C_15
REMARK    5  A    between atoms: C_4  and  N_5
REMARK    6  A    between atoms: C_9  and  C_10
REMARK    7  A    between atoms: C_19  and  C_20
REMARK    8  A    between atoms: C_20  and  N_21
REMARK    9  A    between atoms: C_23  and  C_24
REMARK   10  A    between atoms: C_24  and  O_25
REMARK                            x       y       z     vdW  Elec       q    Type
REMARK                         _______ _______ _______ _____ _____    ______ ____
ROOT
ATOM      1  C   UNL     1      43.956   7.715  12.012  0.00  0.00    +0.000 C 
ATOM      2  C   UNL     1      44.322   6.212  12.055  0.00  0.00    +0.000 C 
ATOM      3  C   UNL     1      43.193   5.463  12.802  0.00  0.00    +0.000 C 
ENDROOT
BRANCH   2   4
ATOM      4  C   UNL     1      45.652   6.046  12.819  0.00  0.00    +0.000 A 
ATOM      5  C   UNL     1      46.570   7.108  12.918  0.00  0.00    +0.000 A 
ATOM      6  C   UNL     1      47.746   6.988  13.667  0.00  0.00    +0.000 A 
ATOM      7  C   UNL     1      48.013   5.819  14.376  0.00  0.00    +0.000 A 
ATOM      8  C   UNL     1      47.121   4.749  14.306  0.00  0.00    +0.000 A 
ATOM      9  C   UNL     1      45.987   4.857  13.485  0.00  0.00    +0.000 A 
BRANCH   8  10
ATOM     10  C   UNL     1      47.273   3.536  15.196  0.00  0.00    +0.000 C 
BRANCH  10  11
ATOM     11  N   UNL     1      47.866   3.914  16.478  0.00  0.00    +0.000 N 
ATOM     12  C   UNL     1      47.227   4.497  17.540  0.00  0.00    +0.000 A 
ATOM     13  C   UNL     1      48.201   4.810  18.466  0.00  0.00    +0.000 A 
ATOM     14  C   UNL     1      49.381   4.278  17.902  0.00  0.00    +0.000 A 
ATOM     15  N   UNL     1      49.183   3.722  16.704  0.00  0.00    +0.000 NA
BRANCH  13  16
ATOM     16  C   UNL     1      48.055   5.538  19.750  0.00  0.00    +0.000 C 
BRANCH  16  17
ATOM     17  O   UNL     1      48.041   4.649  20.866  0.00  0.00    +0.000 OA
ATOM     18  H   UNL     1      47.118   4.626  21.177  0.00  0.00    +0.000 HD
ENDBRANCH  16  17
ENDBRANCH  13  16
ENDBRANCH  10  11
ENDBRANCH   8  10
ENDBRANCH   2   4
BRANCH   2  19
ATOM     19  C   UNL     1      44.342   5.720  10.565  0.00  0.00    +0.000 C 
BRANCH  19  20
ATOM     20  N   UNL     1      44.363   4.252  10.449  0.00  0.00    +0.000 N 
ATOM     21  C   UNL     1      45.136   3.755   9.391  0.00  0.00    +0.000 A 
ATOM     22  C   UNL     1      45.263   2.371   9.263  0.00  0.00    +0.000 A 
ATOM     23  C   UNL     1      46.038   1.838   8.232  0.00  0.00    +0.000 A 
ATOM     24  C   UNL     1      46.671   2.706   7.345  0.00  0.00    +0.000 A 
ATOM     25  C   UNL     1      46.496   4.068   7.542  0.00  0.00    +0.000 A 
ATOM     26  N   UNL     1      45.764   4.601   8.552  0.00  0.00    +0.000 NA
ATOM     27  H   UNL     1      43.436   3.840  10.404  0.00  0.00    +0.000 HD
BRANCH  24  28
ATOM     28  C   UNL     1      47.481   2.252   6.200  0.00  0.00    +0.000 C 
ATOM     29  N   UNL     1      47.486   3.031   5.079  0.00  0.00    +0.000 N 
ATOM     30  O   UNL     1      48.104   1.200   6.239  0.00  0.00    +0.000 OA
ATOM     31  H   UNL     1      46.811   3.763   4.916  0.00  0.00    +0.000 HD
ATOM     32  H   UNL     1      47.971   2.653   4.273  0.00  0.00    +0.000 HD
ENDBRANCH  24  28
ENDBRANCH  19  20
ENDBRANCH   2  19
TORSDOF 8
ENDMDL
MODEL 6
REMARK VINA RESULT:    -7.325      3.721      5.449
REMARK INTER + INTRA:         -11.339
REMARK INTER:                 -10.445
REMARK INTRA:                  -0.895
REMARK UNBOUND:                -0.802
REMARK  Name = 
REMARK  10 active torsions:
REMARK  status: ('A' for Active; 'I' for Inactive)
REMARK    1  A    between atoms: C_1  and  C_2
REMARK    2  A    between atoms: C_2  and  C_3
REMARK    3  A    between atoms: C_2  and  C_4
REMARK    4  A    between atoms: C_2  and  C_15
REMARK    5  A    between atoms: C_4  and  N_5
REMARK    6  A    between atoms: C_9  and  C_10
REMARK    7  A    between atoms: C_19  and  C_20
REMARK    8  A    between atoms: C_20  and  N_21
REMARK    9  A    between atoms: C_23  and  C_24
REMARK   10  A    between atoms: C_24  and  O_25
REMARK                            x       y       z     vdW  Elec       q    Type
REMARK                         _______ _______ _______ _____ _____    ______ ____
ROOT
ATOM      1  C   UNL     1      42.802   6.682  11.853  0.00  0.00    +0.000 C 
ATOM      2  C   UNL     1      43.577   5.370  12.126  0.00  0.00    +0.000 C 
ATOM      3  C   UNL     1      42.796   4.562  13.190  0.00  0.00    +0.000 C 
ENDROOT
BRANCH   2   4
ATOM      4  C   UNL     1      44.979   5.725  12.666  0.00  0.00    +0.000 A 
ATOM      5  C   UNL     1      45.846   4.727  13.147  0.00  0.00    +0.000 A 
ATOM      6  C   UNL     1      47.144   5.033  13.573  0.00  0.00    +0.000 A 
ATOM      7  C   UNL     1      47.625   6.337  13.484  0.00  0.00    +0.000 A 
ATOM      8  C   UNL     1      46.794   7.350  13.005  0.00  0.00    +0.000 A 
ATOM      9  C   UNL     1      45.469   7.040  12.658  0.00  0.00    +0.000 A 
BRANCH   8  10
ATOM     10  C   UNL     1      47.325   8.736  12.720  0.00  0.00    +0.000 C 
BRANCH  10  11
ATOM     11  N   UNL     1      48.783   8.711  12.598  0.00  0.00    +0.000 N 
ATOM     12  C   UNL     1      49.510   8.504  11.456  0.00  0.00    +0.000 A 
ATOM     13  C   UNL     1      50.832   8.412  11.839  0.00  0.00    +0.000 A 
ATOM     14  C   UNL     1      50.798   8.681  13.225  0.00  0.00    +0.000 A 
ATOM     15  N   UNL     1      49.561   8.877  13.688  0.00  0.00    +0.000 NA
BRANCH  13  16
ATOM     16  C   UNL     1      52.016   8.101  11.001  0.00  0.00    +0.000 C 
BRANCH  16  17
ATOM     17  O   UNL     1      52.035   6.735  10.593  0.00  0.00    +0.000 OA
ATOM     18  H   UNL     1      51.746   6.731   9.663  0.00  0.00    +0.000 HD
ENDBRANCH  16  17
ENDBRANCH  13  16
ENDBRANCH  10  11
ENDBRANCH   8  10
ENDBRANCH   2   4
BRANCH   2  19
ATOM     19  C   UNL     1      43.565   4.561  10.782  0.00  0.00    +0.000 C 
BRANCH  19  20
ATOM     20  N   UNL     1      44.445   5.146   9.756  0.00  0.00    +0.000 N 
ATOM     21  C   UNL     1      45.182   4.215   9.011  0.00  0.00    +0.000 A 
ATOM     22  C   UNL     1      45.982   4.691   7.972  0.00  0.00    +0.000 A 
ATOM     23  C   UNL     1      46.719   3.794   7.197  0.00  0.00    +0.000 A 
ATOM     24  C   UNL     1      46.640   2.432   7.482  0.00  0.00    +0.000 A 
ATOM     25  C   UNL     1      45.820   2.041   8.531  0.00  0.00    +0.000 A 
ATOM     26  N   UNL     1      45.082   2.899   9.278  0.00  0.00    +0.000 NA
ATOM     27  H   UNL     1      45.076   5.850  10.124  0.00  0.00    +0.000 HD
BRANCH  24  28
ATOM     28  C   UNL     1      47.403   1.402   6.753  0.00  0.00    +0.000 C 
ATOM     29  N   UNL     1      48.495   1.807   6.042  0.00  0.00    +0.000 N 
ATOM     30  O   UNL     1      47.054   0.230   6.760  0.00  0.00    +0.000 OA
ATOM     31  H   UNL     1      48.675   2.774   5.815  0.00  0.00    +0.000 HD
ATOM     32  H   UNL     1      48.946   1.100   5.473  0.00  0.00    +0.000 HD
ENDBRANCH  24  28
ENDBRANCH  19  20
ENDBRANCH   2  19
TORSDOF 8
ENDMDL
MODEL 7
REMARK VINA RESULT:    -7.283      1.982      2.451
REMARK INTER + INTRA:         -11.278
REMARK INTER:                 -10.489
REMARK INTRA:                  -0.789
REMARK UNBOUND:                -0.802
REMARK  Name = 
REMARK  10 active torsions:
REMARK  status: ('A' for Active; 'I' for Inactive)
REMARK    1  A    between atoms: C_1  and  C_2
REMARK    2  A    between atoms: C_2  and  C_3
REMARK    3  A    between atoms: C_2  and  C_4
REMARK    4  A    between atoms: C_2  and  C_15
REMARK    5  A    between atoms: C_4  and  N_5
REMARK    6  A    between atoms: C_9  and  C_10
REMARK    7  A    between atoms: C_19  and  C_20
REMARK    8  A    between atoms: C_20  and  N_21
REMARK    9  A    between atoms: C_23  and  C_24
REMARK   10  A    between atoms: C_24  and  O_25
REMARK                            x       y       z     vdW  Elec       q    Type
REMARK                         _______ _______ _______ _____ _____    ______ ____
ROOT
ATOM      1  C   UNL     1      42.299   6.582  11.834  0.00  0.00    +0.000 C 
ATOM      2  C   UNL     1      43.398   5.513  12.050  0.00  0.00    +0.000 C 
ATOM      3  C   UNL     1      43.004   4.659  13.279  0.00  0.00    +0.000 C 
ENDROOT
BRANCH   2   4
ATOM      4  C   UNL     1      44.739   6.227  12.319  0.00  0.00    +0.000 A 
ATOM      5  C   UNL     1      45.928   5.496  12.499  0.00  0.00    +0.000 A 
ATOM      6  C   UNL     1      47.159   6.138  12.675  0.00  0.00    +0.000 A 
ATOM      7  C   UNL     1      47.242   7.528  12.627  0.00  0.00    +0.000 A 
ATOM      8  C   UNL     1      46.084   8.284  12.443  0.00  0.00    +0.000 A 
ATOM      9  C   UNL     1      44.846   7.626  12.349  0.00  0.00    +0.000 A 
BRANCH   8  10
ATOM     10  C   UNL     1      46.145   9.775  12.202  0.00  0.00    +0.000 C 
BRANCH  10  11
ATOM     11  N   UNL     1      44.954  10.227  11.484  0.00  0.00    +0.000 N 
ATOM     12  C   UNL     1      44.801  10.328  10.126  0.00  0.00    +0.000 A 
ATOM     13  C   UNL     1      43.582  10.938   9.910  0.00  0.00    +0.000 A 
ATOM     14  C   UNL     1      43.039  11.068  11.207  0.00  0.00    +0.000 A 
ATOM     15  N   UNL     1      43.859  10.627  12.163  0.00  0.00    +0.000 NA
BRANCH  13  16
ATOM     16  C   UNL     1      42.979  11.364   8.623  0.00  0.00    +0.000 C 
BRANCH  16  17
ATOM     17  O   UNL     1      43.293  10.461   7.564  0.00  0.00    +0.000 OA
ATOM     18  H   UNL     1      42.536  10.495   6.953  0.00  0.00    +0.000 HD
ENDBRANCH  16  17
ENDBRANCH  13  16
ENDBRANCH  10  11
ENDBRANCH   8  10
ENDBRANCH   2   4
BRANCH   2  19
ATOM     19  C   UNL     1      43.375   4.593  10.779  0.00  0.00    +0.000 C 
BRANCH  19  20
ATOM     20  N   UNL     1      44.273   5.070   9.713  0.00  0.00    +0.000 N 
ATOM     21  C   UNL     1      45.005   4.065   9.065  0.00  0.00    +0.000 A 
ATOM     22  C   UNL     1      45.821   4.434   7.995  0.00  0.00    +0.000 A 
ATOM     23  C   UNL     1      46.553   3.460   7.314  0.00  0.00    +0.000 A 
ATOM     24  C   UNL     1      46.454   2.132   7.722  0.00  0.00    +0.000 A 
ATOM     25  C   UNL     1      45.619   1.849   8.793  0.00  0.00    +0.000 A 
ATOM     26  N   UNL     1      44.884   2.781   9.451  0.00  0.00    +0.000 NA
ATOM     27  H   UNL     1      44.910   5.797  10.021  0.00  0.00    +0.000 HD
BRANCH  24  28
ATOM     28  C   UNL     1      47.209   1.029   7.100  0.00  0.00    +0.000 C 
ATOM     29  N   UNL     1      46.900  -0.244   7.480  0.00  0.00    +0.000 N 
ATOM     30  O   UNL     1      48.103   1.247   6.293  0.00  0.00    +0.000 OA
ATOM     31  H   UNL     1      46.353  -0.455   8.301  0.00  0.00    +0.000 HD
ATOM     32  H   UNL     1      47.495  -0.979   7.113  0.00  0.00    +0.000 HD
ENDBRANCH  24  28
ENDBRANCH  19  20
ENDBRANCH   2  19
TORSDOF 8
ENDMDL
MODEL 8
REMARK VINA RESULT:    -6.900      4.422      8.049
REMARK INTER + INTRA:         -10.727
REMARK INTER:                  -9.741
REMARK INTRA:                  -0.986
REMARK UNBOUND:                -0.802
REMARK  Name = 
REMARK  10 active torsions:
REMARK  status: ('A' for Active; 'I' for Inactive)
REMARK    1  A    between atoms: C_1  and  C_2
REMARK    2  A    between atoms: C_2  and  C_3
REMARK    3  A    between atoms: C_2  and  C_4
REMARK    4  A    between atoms: C_2  and  C_15
REMARK    5  A    between atoms: C_4  and  N_5
REMARK    6  A    between atoms: C_9  and  C_10
REMARK    7  A    between atoms: C_19  and  C_20
REMARK    8  A    between atoms: C_20  and  N_21
REMARK    9  A    between atoms: C_23  and  C_24
REMARK   10  A    between atoms: C_24  and  O_25
REMARK                            x       y       z     vdW  Elec       q    Type
REMARK                         _______ _______ _______ _____ _____    ______ ____
ROOT
ATOM      1  C   UNL     1      47.902   7.493  14.047  0.00  0.00    +0.000 C 
ATOM      2  C   UNL     1      47.144   7.496  12.697  0.00  0.00    +0.000 C 
ATOM      3  C   UNL     1      46.057   8.596  12.758  0.00  0.00    +0.000 C 
ENDROOT
BRANCH   2   4
ATOM      4  C   UNL     1      46.481   6.117  12.497  0.00  0.00    +0.000 A 
ATOM      5  C   UNL     1      46.385   5.197  13.557  0.00  0.00    +0.000 A 
ATOM      6  C   UNL     1      45.724   3.973  13.402  0.00  0.00    +0.000 A 
ATOM      7  C   UNL     1      45.099   3.657  12.198  0.00  0.00    +0.000 A 
ATOM      8  C   UNL     1      45.168   4.551  11.128  0.00  0.00    +0.000 A 
ATOM      9  C   UNL     1      45.904   5.738  11.275  0.00  0.00    +0.000 A 
BRANCH   8  10
ATOM     10  C   UNL     1      44.358   4.337   9.870  0.00  0.00    +0.000 C 
BRANCH  10  11
ATOM     11  N   UNL     1      45.179   3.714   8.832  0.00  0.00    +0.000 N 
ATOM     12  C   UNL     1      45.484   2.383   8.713  0.00  0.00    +0.000 A 
ATOM     13  C   UNL     1      46.400   2.277   7.687  0.00  0.00    +0.000 A 
ATOM     14  C   UNL     1      46.499   3.596   7.190  0.00  0.00    +0.000 A 
ATOM     15  N   UNL     1      45.752   4.468   7.871  0.00  0.00    +0.000 NA
BRANCH  13  16
ATOM     16  C   UNL     1      47.120   1.070   7.213  0.00  0.00    +0.000 C 
BRANCH  16  17
ATOM     17  O   UNL     1      48.218   1.404   6.365  0.00  0.00    +0.000 OA
ATOM     18  H   UNL     1      49.020   1.152   6.856  0.00  0.00    +0.000 HD
ENDBRANCH  16  17
ENDBRANCH  13  16
ENDBRANCH  10  11
ENDBRANCH   8  10
ENDBRANCH   2   4
BRANCH   2  19
ATOM     19  C   UNL     1      48.194   7.897  11.602  0.00  0.00    +0.000 C 
BRANCH  19  20
ATOM     20  N   UNL     1      49.247   8.786  12.121  0.00  0.00    +0.000 N 
ATOM     21  C   UNL     1      50.534   8.527  11.627  0.00  0.00    +0.000 A 
ATOM     22  C   UNL     1      51.570   9.375  12.018  0.00  0.00    +0.000 A 
ATOM     23  C   UNL     1      52.862   9.158  11.534  0.00  0.00    +0.000 A 
ATOM     24  C   UNL     1      53.090   8.091  10.669  0.00  0.00    +0.000 A 
ATOM     25  C   UNL     1      52.005   7.296  10.329  0.00  0.00    +0.000 A 
ATOM     26  N   UNL     1      50.740   7.507  10.772  0.00  0.00    +0.000 NA
ATOM     27  H   UNL     1      49.282   8.818  13.134  0.00  0.00    +0.000 HD
BRANCH  24  28
ATOM     28  C   UNL     1      54.418   7.749  10.129  0.00  0.00    +0.000 C 
ATOM     29  N   UNL     1      55.100   6.728  10.726  0.00  0.00    +0.000 N 
ATOM     30  O   UNL     1      54.908   8.376   9.200  0.00  0.00    +0.000 OA
ATOM     31  H   UNL     1      54.849   6.352  11.627  0.00  0.00    +0.000 HD
ATOM     32  H   UNL     1      56.049   6.574  10.401  0.00  0.00    +0.000 HD
ENDBRANCH  24  28
ENDBRANCH  19  20
ENDBRANCH   2  19
TORSDOF 8
ENDMDL
MODEL 9
REMARK VINA RESULT:    -6.790      5.332      8.658
REMARK INTER + INTRA:         -10.569
REMARK INTER:                  -9.411
REMARK INTRA:                  -1.158
REMARK UNBOUND:                -0.802
REMARK  Name = 
REMARK  10 active torsions:
REMARK  status: ('A' for Active; 'I' for Inactive)
REMARK    1  A    between atoms: C_1  and  C_2
REMARK    2  A    between atoms: C_2  and  C_3
REMARK    3  A    between atoms: C_2  and  C_4
REMARK    4  A    between atoms: C_2  and  C_15
REMARK    5  A    between atoms: C_4  and  N_5
REMARK    6  A    between atoms: C_9  and  C_10
REMARK    7  A    between atoms: C_19  and  C_20
REMARK    8  A    between atoms: C_20  and  N_21
REMARK    9  A    between atoms: C_23  and  C_24
REMARK   10  A    between atoms: C_24  and  O_25
REMARK                            x       y       z     vdW  Elec       q    Type
REMARK                         _______ _______ _______ _____ _____    ______ ____
ROOT
ATOM      1  C   UNL     1      51.049   8.456  14.962  0.00  0.00    +0.000 C 
ATOM      2  C   UNL     1      49.518   8.228  14.994  0.00  0.00    +0.000 C 
ATOM      3  C   UNL     1      48.847   9.347  14.163  0.00  0.00    +0.000 C 
ENDROOT
BRANCH   2   4
ATOM      4  C   UNL     1      49.036   8.304  16.458  0.00  0.00    +0.000 A 
ATOM      5  C   UNL     1      48.996   9.530  17.146  0.00  0.00    +0.000 A 
ATOM      6  C   UNL     1      48.495   9.618  18.450  0.00  0.00    +0.000 A 
ATOM      7  C   UNL     1      47.975   8.492  19.082  0.00  0.00    +0.000 A 
ATOM      8  C   UNL     1      47.992   7.261  18.426  0.00  0.00    +0.000 A 
ATOM      9  C   UNL     1      48.572   7.175  17.150  0.00  0.00    +0.000 A 
BRANCH   8  10
ATOM     10  C   UNL     1      47.278   6.055  18.993  0.00  0.00    +0.000 C 
BRANCH  10  11
ATOM     11  N   UNL     1      47.719   4.835  18.317  0.00  0.00    +0.000 N 
ATOM     12  C   UNL     1      48.913   4.186  18.486  0.00  0.00    +0.000 A 
ATOM     13  C   UNL     1      48.955   3.181  17.541  0.00  0.00    +0.000 A 
ATOM     14  C   UNL     1      47.687   3.251  16.923  0.00  0.00    +0.000 A 
ATOM     15  N   UNL     1      46.929   4.241  17.398  0.00  0.00    +0.000 NA
BRANCH  13  16
ATOM     16  C   UNL     1      50.066   2.246  17.236  0.00  0.00    +0.000 C 
BRANCH  16  17
ATOM     17  O   UNL     1      49.882   1.593  15.982  0.00  0.00    +0.000 OA
ATOM     18  H   UNL     1      50.533   1.991  15.376  0.00  0.00    +0.000 HD
ENDBRANCH  16  17
ENDBRANCH  13  16
ENDBRANCH  10  11
ENDBRANCH   8  10
ENDBRANCH   2   4
BRANCH   2  19
ATOM     19  C   UNL     1      49.261   6.856  14.277  0.00  0.00    +0.000 C 
BRANCH  19  20
ATOM     20  N   UNL     1      48.574   7.008  12.984  0.00  0.00    +0.000 N 
ATOM     21  C   UNL     1      47.398   6.257  12.848  0.00  0.00    +0.000 A 
ATOM     22  C   UNL     1      46.654   6.407  11.677  0.00  0.00    +0.000 A 
ATOM     23  C   UNL     1      45.469   5.687  11.512  0.00  0.00    +0.000 A 
ATOM     24  C   UNL     1      45.055   4.827  12.526  0.00  0.00    +0.000 A 
ATOM     25  C   UNL     1      45.851   4.736  13.658  0.00  0.00    +0.000 A 
ATOM     26  N   UNL     1      46.992   5.445  13.843  0.00  0.00    +0.000 NA
ATOM     27  H   UNL     1      49.175   6.829  12.186  0.00  0.00    +0.000 HD
BRANCH  24  28
ATOM     28  C   UNL     1      43.842   3.992  12.441  0.00  0.00    +0.000 C 
ATOM     29  N   UNL     1      43.994   2.641  12.559  0.00  0.00    +0.000 N 
ATOM     30  O   UNL     1      42.742   4.488  12.242  0.00  0.00    +0.000 OA
ATOM     31  H   UNL     1      44.888   2.180  12.481  0.00  0.00    +0.000 HD
ATOM     32  H   UNL     1      43.163   2.081  12.402  0.00  0.00    +0.000 HD
ENDBRANCH  24  28
ENDBRANCH  19  20
ENDBRANCH   2  19
TORSDOF 8
ENDMDL
