MODEL 1
REMARK VINA RESULT:    -8.013      0.000      0.000
REMARK INTER + INTRA:         -12.178
REMARK INTER:                 -11.293
REMARK INTRA:                  -0.885
REMARK UNBOUND:                -0.885
REMARK  Name = 
REMARK  7 active torsions:
REMARK  status: ('A' for Active; 'I' for Inactive)
REMARK    1  A    between atoms: C_2  and  C_20
REMARK    2  A    between atoms: N_3  and  C_4
REMARK    3  A    between atoms: C_4  and  C_5
REMARK    4  A    between atoms: C_8  and  N_9
REMARK    5  A    between atoms: N_9  and  C_10
REMARK    6  A    between atoms: C_10  and  C_11
REMARK    7  A    between atoms: C_11  and  C_12
REMARK                            x       y       z     vdW  Elec       q    Type
REMARK                         _______ _______ _______ _____ _____    ______ ____
ROOT
ATOM      1  C   UNL     1      46.949   5.963  13.178  0.00  0.00    +0.000 A 
ATOM      2  C   UNL     1      46.076   4.964  13.620  0.00  0.00    +0.000 A 
ATOM      3  C   UNL     1      45.012   4.534  12.816  0.00  0.00    +0.000 A 
ATOM      4  C   UNL     1      44.781   5.101  11.559  0.00  0.00    +0.000 A 
ATOM      5  C   UNL     1      45.722   6.021  11.078  0.00  0.00    +0.000 A 
ATOM      6  C   UNL     1      46.785   6.461  11.879  0.00  0.00    +0.000 A 
ENDROOT
BRANCH   4   7
ATOM      7  N   UNL     1      43.725   4.726  10.711  0.00  0.00    +0.000 N 
ATOM      8  H   UNL     1      43.052   5.488  10.648  0.00  0.00    +0.000 HD
BRANCH   7   9
ATOM      9  C   UNL     1      44.094   4.195   9.385  0.00  0.00    +0.000 C 
BRANCH   9  10
ATOM     10  C   UNL     1      44.599   2.760   9.498  0.00  0.00    +0.000 C 
BRANCH  10  11
ATOM     11  C   UNL     1      45.647   2.489   8.451  0.00  0.00    +0.000 A 
ATOM     12  N   UNL     1      46.145   1.242   8.369  0.00  0.00    +0.000 NA
ATOM     13  C   UNL     1      47.073   1.026   7.413  0.00  0.00    +0.000 A 
ATOM     14  C   UNL     1      47.519   2.000   6.554  0.00  0.00    +0.000 A 
ATOM     15  C   UNL     1      46.959   3.243   6.731  0.00  0.00    +0.000 A 
ATOM     16  N   UNL     1      46.031   3.518   7.668  0.00  0.00    +0.000 NA
ENDBRANCH  10  11
ENDBRANCH   9  10
ENDBRANCH   7   9
ENDBRANCH   4   7
BRANCH   1  17
ATOM     17  C   UNL     1      48.029   6.490  14.086  0.00  0.00    +0.000 C 
BRANCH  17  20
ATOM     18  O   UNL     1      50.037   6.142  15.976  0.00  0.00    +0.000 OA
ATOM     19  C   UNL     1      48.870   5.968  16.328  0.00  0.00    +0.000 C 
ATOM     20  N   UNL     1      47.812   6.113  15.457  0.00  0.00    +0.000 N 
ATOM     21  H   UNL     1      46.866   5.996  15.781  0.00  0.00    +0.000 HD
BRANCH  19  22
ATOM     22  C   UNL     1      48.510   5.600  17.699  0.00  0.00    +0.000 A 
ATOM     23  C   UNL     1      48.450   4.319  18.236  0.00  0.00    +0.000 A 
ATOM     24  N   UNL     1      48.076   4.412  19.552  0.00  0.00    +0.000 N 
ATOM     25  C   UNL     1      47.885   5.719  19.888  0.00  0.00    +0.000 A 
ATOM     26  N   UNL     1      47.506   6.133  21.112  0.00  0.00    +0.000 NA
ATOM     27  C   UNL     1      47.385   7.477  21.196  0.00  0.00    +0.000 A 
ATOM     28  C   UNL     1      47.617   8.376  20.164  0.00  0.00    +0.000 A 
ATOM     29  C   UNL     1      48.010   7.888  18.916  0.00  0.00    +0.000 A 
ATOM     30  C   UNL     1      48.150   6.496  18.765  0.00  0.00    +0.000 A 
ATOM     31  H   UNL     1      47.951   3.649  20.200  0.00  0.00    +0.000 HD
ENDBRANCH  19  22
ENDBRANCH  17  20
ENDBRANCH   1  17
TORSDOF 7
ENDMDL
MODEL 2
REMARK VINA RESULT:    -7.670      1.643      2.446
REMARK INTER + INTRA:         -11.694
REMARK INTER:                 -10.767
REMARK INTRA:                  -0.927
REMARK UNBOUND:                -0.885
REMARK  Name = 
REMARK  7 active torsions:
REMARK  status: ('A' for Active; 'I' for Inactive)
REMARK    1  A    between atoms: C_2  and  C_20
REMARK    2  A    between atoms: N_3  and  C_4
REMARK    3  A    between atoms: C_4  and  C_5
REMARK    4  A    between atoms: C_8  and  N_9
REMARK    5  A    between atoms: N_9  and  C_10
REMARK    6  A    between atoms: C_10  and  C_11
REMARK    7  A    between atoms: C_11  and  C_12
REMARK                            x       y       z     vdW  Elec       q    Type
REMARK                         _______ _______ _______ _____ _____    ______ ____
ROOT
ATOM      1  C   UNL     1      46.463   7.195  12.747  0.00  0.00    +0.000 A 
ATOM      2  C   UNL     1      46.734   5.824  12.673  0.00  0.00    +0.000 A 
ATOM      3  C   UNL     1      45.858   4.955  12.009  0.00  0.00    +0.000 A 
ATOM      4  C   UNL     1      44.683   5.426  11.416  0.00  0.00    +0.000 A 
ATOM      5  C   UNL     1      44.474   6.811  11.399  0.00  0.00    +0.000 A 
ATOM      6  C   UNL     1      45.342   7.687  12.066  0.00  0.00    +0.000 A 
ENDROOT
BRANCH   4   7
ATOM      7  N   UNL     1      43.756   4.606  10.749  0.00  0.00    +0.000 N 
ATOM      8  H   UNL     1      42.843   5.058  10.745  0.00  0.00    +0.000 HD
BRANCH   7   9
ATOM      9  C   UNL     1      44.143   4.117   9.413  0.00  0.00    +0.000 C 
BRANCH   9  10
ATOM     10  C   UNL     1      44.515   2.638   9.465  0.00  0.00    +0.000 C 
BRANCH  10  11
ATOM     11  C   UNL     1      45.617   2.340   8.483  0.00  0.00    +0.000 A 
ATOM     12  N   UNL     1      46.124   3.367   7.778  0.00  0.00    +0.000 NA
ATOM     13  C   UNL     1      47.119   3.072   6.915  0.00  0.00    +0.000 A 
ATOM     14  C   UNL     1      47.612   1.804   6.729  0.00  0.00    +0.000 A 
ATOM     15  C   UNL     1      47.015   0.823   7.486  0.00  0.00    +0.000 A 
ATOM     16  N   UNL     1      46.019   1.058   8.362  0.00  0.00    +0.000 NA
ENDBRANCH  10  11
ENDBRANCH   9  10
ENDBRANCH   7   9
ENDBRANCH   4   7
BRANCH   1  17
ATOM     17  C   UNL     1      47.355   8.107  13.545  0.00  0.00    +0.000 C 
BRANCH  17  20
ATOM     18  O   UNL     1      49.868   7.111  14.197  0.00  0.00    +0.000 OA
ATOM     19  C   UNL     1      48.985   7.070  15.054  0.00  0.00    +0.000 C 
ATOM     20  N   UNL     1      47.710   7.537  14.817  0.00  0.00    +0.000 N 
ATOM     21  H   UNL     1      47.018   7.520  15.548  0.00  0.00    +0.000 HD
BRANCH  19  22
ATOM     22  C   UNL     1      49.219   6.532  16.396  0.00  0.00    +0.000 A 
ATOM     23  C   UNL     1      49.987   7.102  17.406  0.00  0.00    +0.000 A 
ATOM     24  N   UNL     1      49.945   6.281  18.504  0.00  0.00    +0.000 N 
ATOM     25  C   UNL     1      49.176   5.188  18.237  0.00  0.00    +0.000 A 
ATOM     26  N   UNL     1      48.949   4.195  19.117  0.00  0.00    +0.000 NA
ATOM     27  C   UNL     1      48.154   3.224  18.617  0.00  0.00    +0.000 A 
ATOM     28  C   UNL     1      47.603   3.205  17.343  0.00  0.00    +0.000 A 
ATOM     29  C   UNL     1      47.873   4.264  16.473  0.00  0.00    +0.000 A 
ATOM     30  C   UNL     1      48.699   5.305  16.935  0.00  0.00    +0.000 A 
ATOM     31  H   UNL     1      50.404   6.434  19.390  0.00  0.00    +0.000 HD
ENDBRANCH  19  22
ENDBRANCH  17  20
ENDBRANCH   1  17
TORSDOF 7
ENDMDL
MODEL 3
REMARK VINA RESULT:    -7.312      2.635      9.412
REMARK INTER + INTRA:         -11.189
REMARK INTER:                 -10.280
REMARK INTRA:                  -0.910
REMARK UNBOUND:                -0.885
REMARK  Name = 
REMARK  7 active torsions:
REMARK  status: ('A' for Active; 'I' for Inactive)
REMARK    1  A    between atoms: C_2  and  C_20
REMARK    2  A    between atoms: N_3  and  C_4
REMARK    3  A    between atoms: C_4  and  C_5
REMARK    4  A    between atoms: C_8  and  N_9
REMARK    5  A    between atoms: N_9  and  C_10
REMARK    6  A    between atoms: C_10  and  C_11
REMARK    7  A    between atoms: C_11  and  C_12
REMARK                            x       y       z     vdW  Elec       q    Type
REMARK                         _______ _______ _______ _____ _____    ______ ____
ROOT
ATOM      1  C   UNL     1      46.270   7.276  12.530  0.00  0.00    +0.000 A 
ATOM      2  C   UNL     1      47.191   6.292  12.905  0.00  0.00    +0.000 A 
ATOM      3  C   UNL     1      48.199   6.571  13.836  0.00  0.00    +0.000 A 
ATOM      4  C   UNL     1      48.327   7.841  14.404  0.00  0.00    +0.000 A 
ATOM      5  C   UNL     1      47.339   8.788  14.108  0.00  0.00    +0.000 A 
ATOM      6  C   UNL     1      46.329   8.520  13.173  0.00  0.00    +0.000 A 
ENDROOT
BRANCH   4   7
ATOM      7  N   UNL     1      49.325   8.190  15.331  0.00  0.00    +0.000 N 
ATOM      8  H   UNL     1      49.467   9.199  15.315  0.00  0.00    +0.000 HD
BRANCH   7   9
ATOM      9  C   UNL     1      49.169   7.671  16.703  0.00  0.00    +0.000 C 
BRANCH   9  10
ATOM     10  C   UNL     1      50.084   6.472  16.935  0.00  0.00    +0.000 C 
BRANCH  10  11
ATOM     11  C   UNL     1      49.270   5.218  17.112  0.00  0.00    +0.000 A 
ATOM     12  N   UNL     1      49.921   4.040  17.098  0.00  0.00    +0.000 NA
ATOM     13  C   UNL     1      49.167   2.934  17.271  0.00  0.00    +0.000 A 
ATOM     14  C   UNL     1      47.806   2.963  17.450  0.00  0.00    +0.000 A 
ATOM     15  C   UNL     1      47.236   4.214  17.433  0.00  0.00    +0.000 A 
ATOM     16  N   UNL     1      47.936   5.352  17.262  0.00  0.00    +0.000 NA
ENDBRANCH  10  11
ENDBRANCH   9  10
ENDBRANCH   7   9
ENDBRANCH   4   7
BRANCH   1  17
ATOM     17  C   UNL     1      45.251   6.999  11.457  0.00  0.00    +0.000 C 
BRANCH  17  20
ATOM     18  O   UNL     1      43.189   5.418  10.469  0.00  0.00    +0.000 OA
ATOM     19  C   UNL     1      44.339   4.982  10.406  0.00  0.00    +0.000 C 
ATOM     20  N   UNL     1      45.421   5.695  10.876  0.00  0.00    +0.000 N 
ATOM     21  H   UNL     1      46.353   5.326  10.781  0.00  0.00    +0.000 HD
BRANCH  19  22
ATOM     22  C   UNL     1      44.651   3.676   9.820  0.00  0.00    +0.000 A 
ATOM     23  C   UNL     1      44.162   2.438  10.222  0.00  0.00    +0.000 A 
ATOM     24  N   UNL     1      44.699   1.470   9.412  0.00  0.00    +0.000 N 
ATOM     25  C   UNL     1      45.531   2.043   8.496  0.00  0.00    +0.000 A 
ATOM     26  N   UNL     1      46.214   1.350   7.566  0.00  0.00    +0.000 NA
ATOM     27  C   UNL     1      46.970   2.143   6.774  0.00  0.00    +0.000 A 
ATOM     28  C   UNL     1      47.065   3.525   6.866  0.00  0.00    +0.000 A 
ATOM     29  C   UNL     1      46.332   4.189   7.851  0.00  0.00    +0.000 A 
ATOM     30  C   UNL     1      45.528   3.417   8.710  0.00  0.00    +0.000 A 
ATOM     31  H   UNL     1      44.527   0.478   9.461  0.00  0.00    +0.000 HD
ENDBRANCH  19  22
ENDBRANCH  17  20
ENDBRANCH   1  17
TORSDOF 7
ENDMDL
MODEL 4
REMARK VINA RESULT:    -7.093      1.221      1.871
REMARK INTER + INTRA:         -10.881
REMARK INTER:                 -10.053
REMARK INTRA:                  -0.828
REMARK UNBOUND:                -0.885
REMARK  Name = 
REMARK  7 active torsions:
REMARK  status: ('A' for Active; 'I' for Inactive)
REMARK    1  A    between atoms: C_2  and  C_20
REMARK    2  A    between atoms: N_3  and  C_4
REMARK    3  A    between atoms: C_4  and  C_5
REMARK    4  A    between atoms: C_8  and  N_9
REMARK    5  A    between atoms: N_9  and  C_10
REMARK    6  A    between atoms: C_10  and  C_11
REMARK    7  A    between atoms: C_11  and  C_12
REMARK                            x       y       z     vdW  Elec       q    Type
REMARK                         _______ _______ _______ _____ _____    ______ ____
ROOT
ATOM      1  C   UNL     1      47.308   5.960  13.193  0.00  0.00    +0.000 A 
ATOM      2  C   UNL     1      46.799   4.715  13.579  0.00  0.00    +0.000 A 
ATOM      3  C   UNL     1      45.665   4.180  12.953  0.00  0.00    +0.000 A 
ATOM      4  C   UNL     1      45.000   4.878  11.941  0.00  0.00    +0.000 A 
ATOM      5  C   UNL     1      45.578   6.070  11.486  0.00  0.00    +0.000 A 
ATOM      6  C   UNL     1      46.708   6.616  12.110  0.00  0.00    +0.000 A 
ENDROOT
BRANCH   4   7
ATOM      7  N   UNL     1      43.850   4.404  11.286  0.00  0.00    +0.000 N 
ATOM      8  H   UNL     1      43.083   5.059  11.428  0.00  0.00    +0.000 HD
BRANCH   7   9
ATOM      9  C   UNL     1      44.003   4.022   9.870  0.00  0.00    +0.000 C 
BRANCH   9  10
ATOM     10  C   UNL     1      44.521   2.592   9.747  0.00  0.00    +0.000 C 
BRANCH  10  11
ATOM     11  C   UNL     1      45.514   2.489   8.621  0.00  0.00    +0.000 A 
ATOM     12  N   UNL     1      46.103   1.298   8.409  0.00  0.00    +0.000 NA
ATOM     13  C   UNL     1      46.979   1.232   7.385  0.00  0.00    +0.000 A 
ATOM     14  C   UNL     1      47.287   2.301   6.580  0.00  0.00    +0.000 A 
ATOM     15  C   UNL     1      46.644   3.476   6.889  0.00  0.00    +0.000 A 
ATOM     16  N   UNL     1      45.762   3.602   7.899  0.00  0.00    +0.000 NA
ENDBRANCH  10  11
ENDBRANCH   9  10
ENDBRANCH   7   9
ENDBRANCH   4   7
BRANCH   1  17
ATOM     17  C   UNL     1      48.466   6.574  13.934  0.00  0.00    +0.000 C 
BRANCH  17  20
ATOM     18  O   UNL     1      49.901   8.385  15.479  0.00  0.00    +0.000 OA
ATOM     19  C   UNL     1      48.865   7.914  15.947  0.00  0.00    +0.000 C 
ATOM     20  N   UNL     1      48.093   7.006  15.254  0.00  0.00    +0.000 N 
ATOM     21  H   UNL     1      47.233   6.663  15.649  0.00  0.00    +0.000 HD
BRANCH  19  22
ATOM     22  C   UNL     1      48.363   8.284  17.272  0.00  0.00    +0.000 A 
ATOM     23  C   UNL     1      47.962   9.548  17.694  0.00  0.00    +0.000 A 
ATOM     24  N   UNL     1      47.559   9.465  19.003  0.00  0.00    +0.000 N 
ATOM     25  C   UNL     1      47.691   8.183  19.448  0.00  0.00    +0.000 A 
ATOM     26  N   UNL     1      47.382   7.786  20.697  0.00  0.00    +0.000 NA
ATOM     27  C   UNL     1      47.599   6.467  20.895  0.00  0.00    +0.000 A 
ATOM     28  C   UNL     1      48.084   5.576  19.948  0.00  0.00    +0.000 A 
ATOM     29  C   UNL     1      48.386   6.045  18.669  0.00  0.00    +0.000 A 
ATOM     30  C   UNL     1      48.185   7.412  18.401  0.00  0.00    +0.000 A 
ATOM     31  H   UNL     1      47.214  10.219  19.576  0.00  0.00    +0.000 HD
ENDBRANCH  19  22
ENDBRANCH  17  20
ENDBRANCH   1  17
TORSDOF 7
ENDMDL
MODEL 5
REMARK VINA RESULT:    -6.931      3.184      4.279
REMARK INTER + INTRA:         -10.653
REMARK INTER:                  -9.599
REMARK INTRA:                  -1.055
REMARK UNBOUND:                -0.885
REMARK  Name = 
REMARK  7 active torsions:
REMARK  status: ('A' for Active; 'I' for Inactive)
REMARK    1  A    between atoms: C_2  and  C_20
REMARK    2  A    between atoms: N_3  and  C_4
REMARK    3  A    between atoms: C_4  and  C_5
REMARK    4  A    between atoms: C_8  and  N_9
REMARK    5  A    between atoms: N_9  and  C_10
REMARK    6  A    between atoms: C_10  and  C_11
REMARK    7  A    between atoms: C_11  and  C_12
REMARK                            x       y       z     vdW  Elec       q    Type
REMARK                         _______ _______ _______ _____ _____    ______ ____
ROOT
ATOM      1  C   UNL     1      47.358   4.971  15.124  0.00  0.00    +0.000 A 
ATOM      2  C   UNL     1      46.480   4.030  14.575  0.00  0.00    +0.000 A 
ATOM      3  C   UNL     1      45.992   4.180  13.270  0.00  0.00    +0.000 A 
ATOM      4  C   UNL     1      46.352   5.280  12.486  0.00  0.00    +0.000 A 
ATOM      5  C   UNL     1      47.315   6.157  13.000  0.00  0.00    +0.000 A 
ATOM      6  C   UNL     1      47.804   6.018  14.307  0.00  0.00    +0.000 A 
ENDROOT
BRANCH   4   7
ATOM      7  N   UNL     1      45.886   5.497  11.178  0.00  0.00    +0.000 N 
ATOM      8  H   UNL     1      46.114   4.692  10.597  0.00  0.00    +0.000 HD
BRANCH   7   9
ATOM      9  C   UNL     1      44.478   5.910  11.034  0.00  0.00    +0.000 C 
BRANCH   9  10
ATOM     10  C   UNL     1      43.653   4.805  10.381  0.00  0.00    +0.000 C 
BRANCH  10  11
ATOM     11  C   UNL     1      44.521   3.967   9.480  0.00  0.00    +0.000 A 
ATOM     12  N   UNL     1      45.099   4.571   8.426  0.00  0.00    +0.000 NA
ATOM     13  C   UNL     1      45.881   3.799   7.643  0.00  0.00    +0.000 A 
ATOM     14  C   UNL     1      46.097   2.462   7.870  0.00  0.00    +0.000 A 
ATOM     15  C   UNL     1      45.449   1.937   8.962  0.00  0.00    +0.000 A 
ATOM     16  N   UNL     1      44.655   2.658   9.778  0.00  0.00    +0.000 NA
ENDBRANCH  10  11
ENDBRANCH   9  10
ENDBRANCH   7   9
ENDBRANCH   4   7
BRANCH   1  17
ATOM     17  C   UNL     1      47.801   4.856  16.558  0.00  0.00    +0.000 C 
BRANCH  17  20
ATOM     18  O   UNL     1      50.328   5.182  17.670  0.00  0.00    +0.000 OA
ATOM     19  C   UNL     1      49.992   4.054  17.309  0.00  0.00    +0.000 C 
ATOM     20  N   UNL     1      48.760   3.801  16.743  0.00  0.00    +0.000 N 
ATOM     21  H   UNL     1      48.501   2.862  16.488  0.00  0.00    +0.000 HD
BRANCH  19  22
ATOM     22  C   UNL     1      50.867   2.889  17.459  0.00  0.00    +0.000 A 
ATOM     23  C   UNL     1      50.640   1.603  16.983  0.00  0.00    +0.000 A 
ATOM     24  N   UNL     1      51.704   0.811  17.334  0.00  0.00    +0.000 N 
ATOM     25  C   UNL     1      52.617   1.545  18.031  0.00  0.00    +0.000 A 
ATOM     26  N   UNL     1      53.768   1.046  18.519  0.00  0.00    +0.000 NA
ATOM     27  C   UNL     1      54.505   1.971  19.172  0.00  0.00    +0.000 A 
ATOM     28  C   UNL     1      54.160   3.305  19.346  0.00  0.00    +0.000 A 
ATOM     29  C   UNL     1      52.953   3.766  18.817  0.00  0.00    +0.000 A 
ATOM     30  C   UNL     1      52.139   2.848  18.129  0.00  0.00    +0.000 A 
ATOM     31  H   UNL     1      51.822  -0.168  17.125  0.00  0.00    +0.000 HD
ENDBRANCH  19  22
ENDBRANCH  17  20
ENDBRANCH   1  17
TORSDOF 7
ENDMDL
MODEL 6
REMARK VINA RESULT:    -6.904      2.734      8.833
REMARK INTER + INTRA:         -10.614
REMARK INTER:                  -9.704
REMARK INTRA:                  -0.910
REMARK UNBOUND:                -0.885
REMARK  Name = 
REMARK  7 active torsions:
REMARK  status: ('A' for Active; 'I' for Inactive)
REMARK    1  A    between atoms: C_2  and  C_20
REMARK    2  A    between atoms: N_3  and  C_4
REMARK    3  A    between atoms: C_4  and  C_5
REMARK    4  A    between atoms: C_8  and  N_9
REMARK    5  A    between atoms: N_9  and  C_10
REMARK    6  A    between atoms: C_10  and  C_11
REMARK    7  A    between atoms: C_11  and  C_12
REMARK                            x       y       z     vdW  Elec       q    Type
REMARK                         _______ _______ _______ _____ _____    ______ ____
ROOT
ATOM      1  C   UNL     1      46.970   7.914  12.928  0.00  0.00    +0.000 A 
ATOM      2  C   UNL     1      48.040   7.058  12.649  0.00  0.00    +0.000 A 
ATOM      3  C   UNL     1      49.220   7.117  13.402  0.00  0.00    +0.000 A 
ATOM      4  C   UNL     1      49.371   8.042  14.439  0.00  0.00    +0.000 A 
ATOM      5  C   UNL     1      48.258   8.820  14.783  0.00  0.00    +0.000 A 
ATOM      6  C   UNL     1      47.075   8.771  14.031  0.00  0.00    +0.000 A 
ENDROOT
BRANCH   4   7
ATOM      7  N   UNL     1      50.533   8.163  15.221  0.00  0.00    +0.000 N 
ATOM      8  H   UNL     1      50.422   8.934  15.877  0.00  0.00    +0.000 HD
BRANCH   7   9
ATOM      9  C   UNL     1      51.022   6.936  15.878  0.00  0.00    +0.000 C 
BRANCH   9  10
ATOM     10  C   UNL     1      50.192   6.617  17.118  0.00  0.00    +0.000 C 
BRANCH  10  11
ATOM     11  C   UNL     1      49.561   5.257  16.990  0.00  0.00    +0.000 A 
ATOM     12  N   UNL     1      48.325   5.185  16.463  0.00  0.00    +0.000 NA
ATOM     13  C   UNL     1      47.789   3.952  16.349  0.00  0.00    +0.000 A 
ATOM     14  C   UNL     1      48.434   2.805  16.743  0.00  0.00    +0.000 A 
ATOM     15  C   UNL     1      49.685   2.988  17.282  0.00  0.00    +0.000 A 
ATOM     16  N   UNL     1      50.269   4.193  17.422  0.00  0.00    +0.000 NA
ENDBRANCH  10  11
ENDBRANCH   9  10
ENDBRANCH   7   9
ENDBRANCH   4   7
BRANCH   1  17
ATOM     17  C   UNL     1      45.744   7.914  12.053  0.00  0.00    +0.000 C 
BRANCH  17  20
ATOM     18  O   UNL     1      44.105   6.056  13.314  0.00  0.00    +0.000 OA
ATOM     19  C   UNL     1      44.616   5.746  12.238  0.00  0.00    +0.000 C 
ATOM     20  N   UNL     1      45.445   6.602  11.546  0.00  0.00    +0.000 N 
ATOM     21  H   UNL     1      45.822   6.332  10.652  0.00  0.00    +0.000 HD
BRANCH  19  22
ATOM     22  C   UNL     1      44.377   4.448  11.602  0.00  0.00    +0.000 A 
ATOM     23  C   UNL     1      43.715   3.355  12.150  0.00  0.00    +0.000 A 
ATOM     24  N   UNL     1      43.707   2.340  11.227  0.00  0.00    +0.000 N 
ATOM     25  C   UNL     1      44.352   2.739  10.094  0.00  0.00    +0.000 A 
ATOM     26  N   UNL     1      44.516   1.960   9.009  0.00  0.00    +0.000 NA
ATOM     27  C   UNL     1      45.187   2.582   8.014  0.00  0.00    +0.000 A 
ATOM     28  C   UNL     1      45.673   3.881   8.056  0.00  0.00    +0.000 A 
ATOM     29  C   UNL     1      45.472   4.643   9.209  0.00  0.00    +0.000 A 
ATOM     30  C   UNL     1      44.782   4.049  10.281  0.00  0.00    +0.000 A 
ATOM     31  H   UNL     1      43.297   1.425  11.339  0.00  0.00    +0.000 HD
ENDBRANCH  19  22
ENDBRANCH  17  20
ENDBRANCH   1  17
TORSDOF 7
ENDMDL
MODEL 7
REMARK VINA RESULT:    -6.748      2.402      3.527
REMARK INTER + INTRA:         -10.395
REMARK INTER:                  -9.379
REMARK INTRA:                  -1.016
REMARK UNBOUND:                -0.885
REMARK  Name = 
REMARK  7 active torsions:
REMARK  status: ('A' for Active; 'I' for Inactive)
REMARK    1  A    between atoms: C_2  and  C_20
REMARK    2  A    between atoms: N_3  and  C_4
REMARK    3  A    between atoms: C_4  and  C_5
REMARK    4  A    between atoms: C_8  and  N_9
REMARK    5  A    between atoms: N_9  and  C_10
REMARK    6  A    between atoms: C_10  and  C_11
REMARK    7  A    between atoms: C_11  and  C_12
REMARK                            x       y       z     vdW  Elec       q    Type
REMARK                         _______ _______ _______ _____ _____    ______ ____
ROOT
ATOM      1  C   UNL     1      47.836   7.544  14.045  0.00  0.00    +0.000 A 
ATOM      2  C   UNL     1      47.772   6.169  13.799  0.00  0.00    +0.000 A 
ATOM      3  C   UNL     1      46.981   5.663  12.759  0.00  0.00    +0.000 A 
ATOM      4  C   UNL     1      46.220   6.512  11.951  0.00  0.00    +0.000 A 
ATOM      5  C   UNL     1      46.373   7.892  12.133  0.00  0.00    +0.000 A 
ATOM      6  C   UNL     1      47.158   8.407  13.174  0.00  0.00    +0.000 A 
ENDROOT
BRANCH   4   7
ATOM      7  N   UNL     1      45.395   6.068  10.903  0.00  0.00    +0.000 N 
ATOM      8  H   UNL     1      45.910   6.105  10.025  0.00  0.00    +0.000 HD
BRANCH   7   9
ATOM      9  C   UNL     1      44.713   4.775  11.097  0.00  0.00    +0.000 C 
BRANCH   9  10
ATOM     10  C   UNL     1      44.050   4.313   9.802  0.00  0.00    +0.000 C 
BRANCH  10  11
ATOM     11  C   UNL     1      45.058   3.641   8.908  0.00  0.00    +0.000 A 
ATOM     12  N   UNL     1      45.760   4.415   8.061  0.00  0.00    +0.000 NA
ATOM     13  C   UNL     1      46.664   3.787   7.281  0.00  0.00    +0.000 A 
ATOM     14  C   UNL     1      46.885   2.432   7.314  0.00  0.00    +0.000 A 
ATOM     15  C   UNL     1      46.106   1.730   8.203  0.00  0.00    +0.000 A 
ATOM     16  N   UNL     1      45.187   2.301   9.004  0.00  0.00    +0.000 NA
ENDBRANCH  10  11
ENDBRANCH   9  10
ENDBRANCH   7   9
ENDBRANCH   4   7
BRANCH   1  17
ATOM     17  C   UNL     1      48.609   8.074  15.224  0.00  0.00    +0.000 C 
BRANCH  17  20
ATOM     18  O   UNL     1      48.856   7.249  17.867  0.00  0.00    +0.000 OA
ATOM     19  C   UNL     1      49.625   6.770  17.034  0.00  0.00    +0.000 C 
ATOM     20  N   UNL     1      49.578   7.125  15.703  0.00  0.00    +0.000 N 
ATOM     21  H   UNL     1      50.199   6.692  15.039  0.00  0.00    +0.000 HD
BRANCH  19  22
ATOM     22  C   UNL     1      50.645   5.781  17.386  0.00  0.00    +0.000 A 
ATOM     23  C   UNL     1      51.938   6.032  17.833  0.00  0.00    +0.000 A 
ATOM     24  N   UNL     1      52.567   4.832  18.052  0.00  0.00    +0.000 N 
ATOM     25  C   UNL     1      51.721   3.805  17.755  0.00  0.00    +0.000 A 
ATOM     26  N   UNL     1      52.052   2.505  17.862  0.00  0.00    +0.000 NA
ATOM     27  C   UNL     1      51.043   1.677  17.510  0.00  0.00    +0.000 A 
ATOM     28  C   UNL     1      49.784   2.074  17.081  0.00  0.00    +0.000 A 
ATOM     29  C   UNL     1      49.498   3.437  16.991  0.00  0.00    +0.000 A 
ATOM     30  C   UNL     1      50.510   4.350  17.340  0.00  0.00    +0.000 A 
ATOM     31  H   UNL     1      53.510   4.697  18.382  0.00  0.00    +0.000 HD
ENDBRANCH  19  22
ENDBRANCH  17  20
ENDBRANCH   1  17
TORSDOF 7
ENDMDL
MODEL 8
REMARK VINA RESULT:    -6.683      3.165      8.559
REMARK INTER + INTRA:         -10.302
REMARK INTER:                  -8.671
REMARK INTRA:                  -1.631
REMARK UNBOUND:                -0.885
REMARK  Name = 
REMARK  7 active torsions:
REMARK  status: ('A' for Active; 'I' for Inactive)
REMARK    1  A    between atoms: C_2  and  C_20
REMARK    2  A    between atoms: N_3  and  C_4
REMARK    3  A    between atoms: C_4  and  C_5
REMARK    4  A    between atoms: C_8  and  N_9
REMARK    5  A    between atoms: N_9  and  C_10
REMARK    6  A    between atoms: C_10  and  C_11
REMARK    7  A    between atoms: C_11  and  C_12
REMARK                            x       y       z     vdW  Elec       q    Type
REMARK                         _______ _______ _______ _____ _____    ______ ____
ROOT
ATOM      1  C   UNL     1      48.530   8.640  14.874  0.00  0.00    +0.000 A 
ATOM      2  C   UNL     1      48.132   9.195  16.095  0.00  0.00    +0.000 A 
ATOM      3  C   UNL     1      48.476   8.581  17.307  0.00  0.00    +0.000 A 
ATOM      4  C   UNL     1      49.209   7.392  17.333  0.00  0.00    +0.000 A 
ATOM      5  C   UNL     1      49.697   6.903  16.115  0.00  0.00    +0.000 A 
ATOM      6  C   UNL     1      49.353   7.506  14.897  0.00  0.00    +0.000 A 
ENDROOT
BRANCH   4   7
ATOM      7  N   UNL     1      49.573   6.720  18.513  0.00  0.00    +0.000 N 
ATOM      8  H   UNL     1      50.512   7.001  18.789  0.00  0.00    +0.000 HD
BRANCH   7   9
ATOM      9  C   UNL     1      48.618   6.782  19.635  0.00  0.00    +0.000 C 
BRANCH   9  10
ATOM     10  C   UNL     1      48.068   5.396  19.956  0.00  0.00    +0.000 C 
BRANCH  10  11
ATOM     11  C   UNL     1      48.084   4.528  18.726  0.00  0.00    +0.000 A 
ATOM     12  N   UNL     1      49.137   3.709  18.549  0.00  0.00    +0.000 NA
ATOM     13  C   UNL     1      49.118   2.935  17.444  0.00  0.00    +0.000 A 
ATOM     14  C   UNL     1      48.102   2.953  16.521  0.00  0.00    +0.000 A 
ATOM     15  C   UNL     1      47.081   3.834  16.786  0.00  0.00    +0.000 A 
ATOM     16  N   UNL     1      47.046   4.633  17.870  0.00  0.00    +0.000 NA
ENDBRANCH  10  11
ENDBRANCH   9  10
ENDBRANCH   7   9
ENDBRANCH   4   7
BRANCH   1  17
ATOM     17  C   UNL     1      48.075   9.248  13.575  0.00  0.00    +0.000 C 
BRANCH  17  20
ATOM     18  O   UNL     1      47.798   7.241  11.672  0.00  0.00    +0.000 OA
ATOM     19  C   UNL     1      46.778   7.700  12.186  0.00  0.00    +0.000 C 
ATOM     20  N   UNL     1      46.820   8.700  13.133  0.00  0.00    +0.000 N 
ATOM     21  H   UNL     1      45.971   9.034  13.560  0.00  0.00    +0.000 HD
BRANCH  19  22
ATOM     22  C   UNL     1      45.439   7.217  11.839  0.00  0.00    +0.000 A 
ATOM     23  C   UNL     1      44.370   7.973  11.371  0.00  0.00    +0.000 A 
ATOM     24  N   UNL     1      43.300   7.140  11.167  0.00  0.00    +0.000 N 
ATOM     25  C   UNL     1      43.640   5.861  11.494  0.00  0.00    +0.000 A 
ATOM     26  N   UNL     1      42.799   4.814  11.407  0.00  0.00    +0.000 NA
ATOM     27  C   UNL     1      43.370   3.650  11.787  0.00  0.00    +0.000 A 
ATOM     28  C   UNL     1      44.678   3.496  12.225  0.00  0.00    +0.000 A 
ATOM     29  C   UNL     1      45.506   4.618  12.293  0.00  0.00    +0.000 A 
ATOM     30  C   UNL     1      44.967   5.861  11.914  0.00  0.00    +0.000 A 
ATOM     31  H   UNL     1      42.387   7.402  10.828  0.00  0.00    +0.000 HD
ENDBRANCH  19  22
ENDBRANCH  17  20
ENDBRANCH   1  17
TORSDOF 7
ENDMDL
MODEL 9
REMARK VINA RESULT:    -6.632      3.361      5.340
REMARK INTER + INTRA:         -10.231
REMARK INTER:                  -9.066
REMARK INTRA:                  -1.165
REMARK UNBOUND:                -0.885
REMARK  Name = 
REMARK  7 active torsions:
REMARK  status: ('A' for Active; 'I' for Inactive)
REMARK    1  A    between atoms: C_2  and  C_20
REMARK    2  A    between atoms: N_3  and  C_4
REMARK    3  A    between atoms: C_4  and  C_5
REMARK    4  A    between atoms: C_8  and  N_9
REMARK    5  A    between atoms: N_9  and  C_10
REMARK    6  A    between atoms: C_10  and  C_11
REMARK    7  A    between atoms: C_11  and  C_12
REMARK                            x       y       z     vdW  Elec       q    Type
REMARK                         _______ _______ _______ _____ _____    ______ ____
ROOT
ATOM      1  C   UNL     1      47.565   4.159  16.164  0.00  0.00    +0.000 A 
ATOM      2  C   UNL     1      48.133   5.435  16.082  0.00  0.00    +0.000 A 
ATOM      3  C   UNL     1      48.061   6.176  14.896  0.00  0.00    +0.000 A 
ATOM      4  C   UNL     1      47.437   5.660  13.757  0.00  0.00    +0.000 A 
ATOM      5  C   UNL     1      46.776   4.431  13.879  0.00  0.00    +0.000 A 
ATOM      6  C   UNL     1      46.848   3.679  15.060  0.00  0.00    +0.000 A 
ENDROOT
BRANCH   4   7
ATOM      7  N   UNL     1      47.344   6.346  12.533  0.00  0.00    +0.000 N 
ATOM      8  H   UNL     1      47.145   5.683  11.786  0.00  0.00    +0.000 HD
BRANCH   7   9
ATOM      9  C   UNL     1      46.449   7.518  12.494  0.00  0.00    +0.000 C 
BRANCH   9  10
ATOM     10  C   UNL     1      45.368   7.338  11.432  0.00  0.00    +0.000 C 
BRANCH  10  11
ATOM     11  C   UNL     1      44.658   6.025  11.624  0.00  0.00    +0.000 A 
ATOM     12  N   UNL     1      44.886   5.050  10.724  0.00  0.00    +0.000 NA
ATOM     13  C   UNL     1      44.246   3.880  10.929  0.00  0.00    +0.000 A 
ATOM     14  C   UNL     1      43.394   3.655  11.982  0.00  0.00    +0.000 A 
ATOM     15  C   UNL     1      43.218   4.718  12.835  0.00  0.00    +0.000 A 
ATOM     16  N   UNL     1      43.828   5.909  12.681  0.00  0.00    +0.000 NA
ENDBRANCH  10  11
ENDBRANCH   9  10
ENDBRANCH   7   9
ENDBRANCH   4   7
BRANCH   1  17
ATOM     17  C   UNL     1      47.731   3.328  17.408  0.00  0.00    +0.000 C 
BRANCH  17  20
ATOM     18  O   UNL     1      49.426   1.584  16.061  0.00  0.00    +0.000 OA
ATOM     19  C   UNL     1      49.885   2.229  17.004  0.00  0.00    +0.000 C 
ATOM     20  N   UNL     1      49.116   3.113  17.732  0.00  0.00    +0.000 N 
ATOM     21  H   UNL     1      49.527   3.650  18.477  0.00  0.00    +0.000 HD
BRANCH  19  22
ATOM     22  C   UNL     1      51.283   2.118  17.424  0.00  0.00    +0.000 A 
ATOM     23  C   UNL     1      52.002   0.948  17.645  0.00  0.00    +0.000 A 
ATOM     24  N   UNL     1      53.277   1.282  18.024  0.00  0.00    +0.000 N 
ATOM     25  C   UNL     1      53.409   2.638  18.062  0.00  0.00    +0.000 A 
ATOM     26  N   UNL     1      54.544   3.273  18.407  0.00  0.00    +0.000 NA
ATOM     27  C   UNL     1      54.424   4.619  18.369  0.00  0.00    +0.000 A 
ATOM     28  C   UNL     1      53.278   5.319  18.016  0.00  0.00    +0.000 A 
ATOM     29  C   UNL     1      52.130   4.606  17.667  0.00  0.00    +0.000 A 
ATOM     30  C   UNL     1      52.191   3.200  17.691  0.00  0.00    +0.000 A 
ATOM     31  H   UNL     1      54.027   0.645  18.248  0.00  0.00    +0.000 HD
ENDBRANCH  19  22
ENDBRANCH  17  20
ENDBRANCH   1  17
TORSDOF 7
ENDMDL
