MODEL 1
REMARK VINA RESULT:    -7.863      0.000      0.000
REMARK INTER + INTRA:         -10.195
REMARK INTER:                  -9.702
REMARK INTRA:                  -0.493
REMARK UNBOUND:                -0.493
REMARK  Name = 
REMARK  5 active torsions:
REMARK  status: ('A' for Active; 'I' for Inactive)
REMARK    1  A    between atoms: C_1  and  C_2
REMARK    2  A    between atoms: C_5  and  O_6
REMARK    3  A    between atoms: O_6  and  C_7
REMARK    4  A    between atoms: C_7  and  C_8
REMARK    5  A    between atoms: C_12  and  C_13
REMARK                            x       y       z     vdW  Elec       q    Type
REMARK                         _______ _______ _______ _____ _____    ______ ____
ROOT
ATOM      1  C   UNL     1      45.445   5.170  12.274  0.00  0.00    +0.000 A 
ATOM      2  C   UNL     1      46.169   6.202  11.647  0.00  0.00    +0.000 A 
ATOM      3  C   UNL     1      47.351   6.711  12.179  0.00  0.00    +0.000 A 
ATOM      4  C   UNL     1      47.830   6.220  13.387  0.00  0.00    +0.000 A 
ATOM      5  C   UNL     1      47.156   5.192  14.063  0.00  0.00    +0.000 A 
ATOM      6  C   UNL     1      45.997   4.653  13.461  0.00  0.00    +0.000 A 
ENDROOT
BRANCH   5   7
ATOM      7  C   UNL     1      47.591   4.752  15.400  0.00  0.00    +0.000 A 
ATOM      8  C   UNL     1      47.246   3.503  15.930  0.00  0.00    +0.000 A 
ATOM      9  C   UNL     1      47.633   3.155  17.223  0.00  0.00    +0.000 A 
ATOM     10  C   UNL     1      48.371   4.065  17.960  0.00  0.00    +0.000 A 
ATOM     11  N   UNL     1      48.738   5.275  17.498  0.00  0.00    +0.000 NA
ATOM     12  C   UNL     1      48.335   5.587  16.241  0.00  0.00    +0.000 A 
ENDBRANCH   5   7
BRANCH   1  13
ATOM     13  C   UNL     1      44.060   4.754  11.765  0.00  0.00    +0.000 C 
ATOM     14  C   UNL     1      42.819   5.090  12.579  0.00  0.00    +0.000 C 
ATOM     15  C   UNL     1      43.133   5.879  11.353  0.00  0.00    +0.000 C 
BRANCH  13  16
ATOM     16  O   UNL     1      43.908   3.455  11.124  0.00  0.00    +0.000 OA
BRANCH  16  21
ATOM     17  C   UNL     1      47.109   2.883   6.598  0.00  0.00    +0.000 C 
ATOM     18  C   UNL     1      46.103   2.964   7.698  0.00  0.00    +0.000 A 
ATOM     19  C   UNL     1      45.741   1.849   8.454  0.00  0.00    +0.000 A 
ATOM     20  C   UNL     1      44.931   2.016   9.574  0.00  0.00    +0.000 A 
ATOM     21  C   UNL     1      44.525   3.300   9.897  0.00  0.00    +0.000 A 
ATOM     22  N   UNL     1      44.747   4.376   9.119  0.00  0.00    +0.000 NA
ATOM     23  C   UNL     1      45.538   4.185   8.043  0.00  0.00    +0.000 A 
ENDBRANCH  16  21
ENDBRANCH  13  16
ENDBRANCH   1  13
TORSDOF 4
ENDMDL
MODEL 2
REMARK VINA RESULT:    -7.779      2.262      3.820
REMARK INTER + INTRA:         -10.091
REMARK INTER:                  -9.480
REMARK INTRA:                  -0.611
REMARK UNBOUND:                -0.493
REMARK  Name = 
REMARK  5 active torsions:
REMARK  status: ('A' for Active; 'I' for Inactive)
REMARK    1  A    between atoms: C_1  and  C_2
REMARK    2  A    between atoms: C_5  and  O_6
REMARK    3  A    between atoms: O_6  and  C_7
REMARK    4  A    between atoms: C_7  and  C_8
REMARK    5  A    between atoms: C_12  and  C_13
REMARK                            x       y       z     vdW  Elec       q    Type
REMARK                         _______ _______ _______ _____ _____    ______ ____
ROOT
ATOM      1  C   UNL     1      45.119   5.132  12.283  0.00  0.00    +0.000 A 
ATOM      2  C   UNL     1      45.697   4.193  13.158  0.00  0.00    +0.000 A 
ATOM      3  C   UNL     1      46.941   4.395  13.750  0.00  0.00    +0.000 A 
ATOM      4  C   UNL     1      47.666   5.543  13.453  0.00  0.00    +0.000 A 
ATOM      5  C   UNL     1      47.146   6.518  12.589  0.00  0.00    +0.000 A 
ATOM      6  C   UNL     1      45.854   6.311  12.059  0.00  0.00    +0.000 A 
ENDROOT
BRANCH   5   7
ATOM      7  C   UNL     1      47.959   7.676  12.176  0.00  0.00    +0.000 A 
ATOM      8  C   UNL     1      49.311   7.562  11.832  0.00  0.00    +0.000 A 
ATOM      9  C   UNL     1      50.053   8.695  11.503  0.00  0.00    +0.000 A 
ATOM     10  C   UNL     1      49.420   9.926  11.516  0.00  0.00    +0.000 A 
ATOM     11  N   UNL     1      48.121  10.093  11.829  0.00  0.00    +0.000 NA
ATOM     12  C   UNL     1      47.431   8.972  12.156  0.00  0.00    +0.000 A 
ENDBRANCH   5   7
BRANCH   1  13
ATOM     13  C   UNL     1      43.837   4.804  11.508  0.00  0.00    +0.000 C 
ATOM     14  C   UNL     1      42.481   5.174  12.090  0.00  0.00    +0.000 C 
ATOM     15  C   UNL     1      43.053   5.988  10.979  0.00  0.00    +0.000 C 
BRANCH  13  16
ATOM     16  O   UNL     1      43.753   3.537  10.794  0.00  0.00    +0.000 OA
BRANCH  16  21
ATOM     17  C   UNL     1      46.862   2.693   6.247  0.00  0.00    +0.000 C 
ATOM     18  C   UNL     1      46.199   2.975   7.555  0.00  0.00    +0.000 A 
ATOM     19  C   UNL     1      45.855   4.268   7.947  0.00  0.00    +0.000 A 
ATOM     20  C   UNL     1      45.088   4.455   9.094  0.00  0.00    +0.000 A 
ATOM     21  C   UNL     1      44.685   3.331   9.795  0.00  0.00    +0.000 A 
ATOM     22  N   UNL     1      45.105   2.082   9.519  0.00  0.00    +0.000 NA
ATOM     23  C   UNL     1      45.845   1.932   8.401  0.00  0.00    +0.000 A 
ENDBRANCH  16  21
ENDBRANCH  13  16
ENDBRANCH   1  13
TORSDOF 4
ENDMDL
MODEL 3
REMARK VINA RESULT:    -7.185      2.985      4.762
REMARK INTER + INTRA:          -9.359
REMARK INTER:                  -8.784
REMARK INTRA:                  -0.575
REMARK UNBOUND:                -0.493
REMARK  Name = 
REMARK  5 active torsions:
REMARK  status: ('A' for Active; 'I' for Inactive)
REMARK    1  A    between atoms: C_1  and  C_2
REMARK    2  A    between atoms: C_5  and  O_6
REMARK    3  A    between atoms: O_6  and  C_7
REMARK    4  A    between atoms: C_7  and  C_8
REMARK    5  A    between atoms: C_12  and  C_13
REMARK                            x       y       z     vdW  Elec       q    Type
REMARK                         _______ _______ _______ _____ _____    ______ ____
ROOT
ATOM      1  C   UNL     1      45.231   6.084  12.494  0.00  0.00    +0.000 A 
ATOM      2  C   UNL     1      46.522   5.712  12.913  0.00  0.00    +0.000 A 
ATOM      3  C   UNL     1      47.539   6.643  13.110  0.00  0.00    +0.000 A 
ATOM      4  C   UNL     1      47.298   7.988  12.856  0.00  0.00    +0.000 A 
ATOM      5  C   UNL     1      46.033   8.425  12.436  0.00  0.00    +0.000 A 
ATOM      6  C   UNL     1      45.008   7.462  12.311  0.00  0.00    +0.000 A 
ENDROOT
BRANCH   5   7
ATOM      7  C   UNL     1      45.806   9.829  12.050  0.00  0.00    +0.000 A 
ATOM      8  C   UNL     1      44.547  10.312  11.675  0.00  0.00    +0.000 A 
ATOM      9  C   UNL     1      44.394  11.635  11.262  0.00  0.00    +0.000 A 
ATOM     10  C   UNL     1      45.508  12.455  11.243  0.00  0.00    +0.000 A 
ATOM     11  N   UNL     1      46.741  12.047  11.602  0.00  0.00    +0.000 NA
ATOM     12  C   UNL     1      46.858  10.752  11.987  0.00  0.00    +0.000 A 
ENDBRANCH   5   7
BRANCH   1  13
ATOM     13  C   UNL     1      44.189   5.027  12.113  0.00  0.00    +0.000 C 
ATOM     14  C   UNL     1      42.942   4.846  12.967  0.00  0.00    +0.000 C 
ATOM     15  C   UNL     1      42.842   5.549  11.655  0.00  0.00    +0.000 C 
BRANCH  13  16
ATOM     16  O   UNL     1      44.646   3.739  11.607  0.00  0.00    +0.000 OA
BRANCH  16  21
ATOM     17  C   UNL     1      46.587   3.240   6.407  0.00  0.00    +0.000 C 
ATOM     18  C   UNL     1      45.884   3.376   7.718  0.00  0.00    +0.000 A 
ATOM     19  C   UNL     1      45.309   2.283   8.366  0.00  0.00    +0.000 A 
ATOM     20  C   UNL     1      44.820   2.436   9.661  0.00  0.00    +0.000 A 
ATOM     21  C   UNL     1      44.940   3.679  10.258  0.00  0.00    +0.000 A 
ATOM     22  N   UNL     1      45.370   4.782   9.618  0.00  0.00    +0.000 NA
ATOM     23  C   UNL     1      45.840   4.604   8.366  0.00  0.00    +0.000 A 
ENDBRANCH  16  21
ENDBRANCH  13  16
ENDBRANCH   1  13
TORSDOF 4
ENDMDL
MODEL 4
REMARK VINA RESULT:    -7.173      1.933      2.684
REMARK INTER + INTRA:          -9.344
REMARK INTER:                  -8.747
REMARK INTRA:                  -0.597
REMARK UNBOUND:                -0.493
REMARK  Name = 
REMARK  5 active torsions:
REMARK  status: ('A' for Active; 'I' for Inactive)
REMARK    1  A    between atoms: C_1  and  C_2
REMARK    2  A    between atoms: C_5  and  O_6
REMARK    3  A    between atoms: O_6  and  C_7
REMARK    4  A    between atoms: C_7  and  C_8
REMARK    5  A    between atoms: C_12  and  C_13
REMARK                            x       y       z     vdW  Elec       q    Type
REMARK                         _______ _______ _______ _____ _____    ______ ____
ROOT
ATOM      1  C   UNL     1      44.866   6.549  12.055  0.00  0.00    +0.000 A 
ATOM      2  C   UNL     1      44.407   7.782  11.555  0.00  0.00    +0.000 A 
ATOM      3  C   UNL     1      45.089   8.976  11.778  0.00  0.00    +0.000 A 
ATOM      4  C   UNL     1      46.246   8.974  12.546  0.00  0.00    +0.000 A 
ATOM      5  C   UNL     1      46.757   7.779  13.073  0.00  0.00    +0.000 A 
ATOM      6  C   UNL     1      46.077   6.578  12.772  0.00  0.00    +0.000 A 
ENDROOT
BRANCH   5   7
ATOM      7  C   UNL     1      47.914   7.787  13.987  0.00  0.00    +0.000 A 
ATOM      8  C   UNL     1      48.633   8.951  14.280  0.00  0.00    +0.000 A 
ATOM      9  C   UNL     1      49.755   8.897  15.106  0.00  0.00    +0.000 A 
ATOM     10  C   UNL     1      50.130   7.673  15.632  0.00  0.00    +0.000 A 
ATOM     11  N   UNL     1      49.471   6.524  15.392  0.00  0.00    +0.000 NA
ATOM     12  C   UNL     1      48.391   6.609  14.575  0.00  0.00    +0.000 A 
ENDBRANCH   5   7
BRANCH   1  13
ATOM     13  C   UNL     1      44.006   5.284  11.949  0.00  0.00    +0.000 C 
ATOM     14  C   UNL     1      42.888   5.040  12.952  0.00  0.00    +0.000 C 
ATOM     15  C   UNL     1      42.554   5.491  11.569  0.00  0.00    +0.000 C 
BRANCH  13  16
ATOM     16  O   UNL     1      44.649   4.026  11.593  0.00  0.00    +0.000 OA
BRANCH  16  21
ATOM     17  C   UNL     1      46.588   3.052   6.459  0.00  0.00    +0.000 C 
ATOM     18  C   UNL     1      45.886   3.311   7.752  0.00  0.00    +0.000 A 
ATOM     19  C   UNL     1      45.295   2.287   8.491  0.00  0.00    +0.000 A 
ATOM     20  C   UNL     1      44.806   2.557   9.767  0.00  0.00    +0.000 A 
ATOM     21  C   UNL     1      44.944   3.845  10.255  0.00  0.00    +0.000 A 
ATOM     22  N   UNL     1      45.390   4.883   9.522  0.00  0.00    +0.000 NA
ATOM     23  C   UNL     1      45.859   4.591   8.292  0.00  0.00    +0.000 A 
ENDBRANCH  16  21
ENDBRANCH  13  16
ENDBRANCH   1  13
TORSDOF 4
ENDMDL
MODEL 5
REMARK VINA RESULT:    -7.036      2.881      7.193
REMARK INTER + INTRA:          -9.175
REMARK INTER:                  -8.523
REMARK INTRA:                  -0.652
REMARK UNBOUND:                -0.493
REMARK  Name = 
REMARK  5 active torsions:
REMARK  status: ('A' for Active; 'I' for Inactive)
REMARK    1  A    between atoms: C_1  and  C_2
REMARK    2  A    between atoms: C_5  and  O_6
REMARK    3  A    between atoms: O_6  and  C_7
REMARK    4  A    between atoms: C_7  and  C_8
REMARK    5  A    between atoms: C_12  and  C_13
REMARK                            x       y       z     vdW  Elec       q    Type
REMARK                         _______ _______ _______ _____ _____    ______ ____
ROOT
ATOM      1  C   UNL     1      44.453   4.304  10.705  0.00  0.00    +0.000 A 
ATOM      2  C   UNL     1      43.650   3.220  11.107  0.00  0.00    +0.000 A 
ATOM      3  C   UNL     1      43.722   1.972  10.494  0.00  0.00    +0.000 A 
ATOM      4  C   UNL     1      44.588   1.780   9.424  0.00  0.00    +0.000 A 
ATOM      5  C   UNL     1      45.416   2.819   8.974  0.00  0.00    +0.000 A 
ATOM      6  C   UNL     1      45.363   4.052   9.661  0.00  0.00    +0.000 A 
ENDROOT
BRANCH   5   7
ATOM      7  C   UNL     1      46.245   2.658   7.766  0.00  0.00    +0.000 A 
ATOM      8  C   UNL     1      46.255   3.599   6.730  0.00  0.00    +0.000 A 
ATOM      9  C   UNL     1      47.012   3.374   5.581  0.00  0.00    +0.000 A 
ATOM     10  C   UNL     1      47.757   2.210   5.498  0.00  0.00    +0.000 A 
ATOM     11  N   UNL     1      47.792   1.276   6.468  0.00  0.00    +0.000 NA
ATOM     12  C   UNL     1      47.035   1.520   7.566  0.00  0.00    +0.000 A 
ENDBRANCH   5   7
BRANCH   1  13
ATOM     13  C   UNL     1      44.226   5.710  11.273  0.00  0.00    +0.000 C 
ATOM     14  C   UNL     1      42.810   6.233  11.463  0.00  0.00    +0.000 C 
ATOM     15  C   UNL     1      43.595   5.783  12.648  0.00  0.00    +0.000 C 
BRANCH  13  16
ATOM     16  O   UNL     1      45.111   6.788  10.853  0.00  0.00    +0.000 OA
BRANCH  16  21
ATOM     17  C   UNL     1      48.501   7.998  15.108  0.00  0.00    +0.000 C 
ATOM     18  C   UNL     1      47.744   7.730  13.849  0.00  0.00    +0.000 A 
ATOM     19  C   UNL     1      47.926   6.563  13.109  0.00  0.00    +0.000 A 
ATOM     20  C   UNL     1      47.074   6.288  12.042  0.00  0.00    +0.000 A 
ATOM     21  C   UNL     1      46.062   7.193  11.770  0.00  0.00    +0.000 A 
ATOM     22  N   UNL     1      45.938   8.387  12.379  0.00  0.00    +0.000 NA
ATOM     23  C   UNL     1      46.775   8.625  13.410  0.00  0.00    +0.000 A 
ENDBRANCH  16  21
ENDBRANCH  13  16
ENDBRANCH   1  13
TORSDOF 4
ENDMDL
MODEL 6
REMARK VINA RESULT:    -7.019      3.435      7.077
REMARK INTER + INTRA:          -9.154
REMARK INTER:                  -8.262
REMARK INTRA:                  -0.892
REMARK UNBOUND:                -0.493
REMARK  Name = 
REMARK  5 active torsions:
REMARK  status: ('A' for Active; 'I' for Inactive)
REMARK    1  A    between atoms: C_1  and  C_2
REMARK    2  A    between atoms: C_5  and  O_6
REMARK    3  A    between atoms: O_6  and  C_7
REMARK    4  A    between atoms: C_7  and  C_8
REMARK    5  A    between atoms: C_12  and  C_13
REMARK                            x       y       z     vdW  Elec       q    Type
REMARK                         _______ _______ _______ _____ _____    ______ ____
ROOT
ATOM      1  C   UNL     1      45.122   6.413  11.939  0.00  0.00    +0.000 A 
ATOM      2  C   UNL     1      43.788   6.165  12.313  0.00  0.00    +0.000 A 
ATOM      3  C   UNL     1      43.026   5.158  11.728  0.00  0.00    +0.000 A 
ATOM      4  C   UNL     1      43.573   4.382  10.713  0.00  0.00    +0.000 A 
ATOM      5  C   UNL     1      44.897   4.578  10.293  0.00  0.00    +0.000 A 
ATOM      6  C   UNL     1      45.662   5.564  10.955  0.00  0.00    +0.000 A 
ENDROOT
BRANCH   5   7
ATOM      7  C   UNL     1      45.443   3.842   9.139  0.00  0.00    +0.000 A 
ATOM      8  C   UNL     1      45.504   2.444   9.098  0.00  0.00    +0.000 A 
ATOM      9  C   UNL     1      46.082   1.796   8.007  0.00  0.00    +0.000 A 
ATOM     10  C   UNL     1      46.581   2.564   6.970  0.00  0.00    +0.000 A 
ATOM     11  N   UNL     1      46.542   3.910   6.953  0.00  0.00    +0.000 NA
ATOM     12  C   UNL     1      45.984   4.510   8.033  0.00  0.00    +0.000 A 
ENDBRANCH   5   7
BRANCH   1  13
ATOM     13  C   UNL     1      45.877   7.638  12.468  0.00  0.00    +0.000 C 
ATOM     14  C   UNL     1      47.090   7.454  13.368  0.00  0.00    +0.000 C 
ATOM     15  C   UNL     1      47.283   7.839  11.940  0.00  0.00    +0.000 C 
BRANCH  13  16
ATOM     16  O   UNL     1      45.114   8.808  12.882  0.00  0.00    +0.000 OA
BRANCH  16  21
ATOM     17  C   UNL     1      44.768  12.252   8.513  0.00  0.00    +0.000 C 
ATOM     18  C   UNL     1      44.703  11.429   9.758  0.00  0.00    +0.000 A 
ATOM     19  C   UNL     1      43.796  10.380   9.905  0.00  0.00    +0.000 A 
ATOM     20  C   UNL     1      43.895   9.540  11.012  0.00  0.00    +0.000 A 
ATOM     21  C   UNL     1      44.911   9.780  11.920  0.00  0.00    +0.000 A 
ATOM     22  N   UNL     1      45.719  10.856  11.877  0.00  0.00    +0.000 NA
ATOM     23  C   UNL     1      45.603  11.650  10.792  0.00  0.00    +0.000 A 
ENDBRANCH  16  21
ENDBRANCH  13  16
ENDBRANCH   1  13
TORSDOF 4
ENDMDL
MODEL 7
REMARK VINA RESULT:    -6.951      1.825      7.081
REMARK INTER + INTRA:          -9.070
REMARK INTER:                  -8.572
REMARK INTRA:                  -0.498
REMARK UNBOUND:                -0.493
REMARK  Name = 
REMARK  5 active torsions:
REMARK  status: ('A' for Active; 'I' for Inactive)
REMARK    1  A    between atoms: C_1  and  C_2
REMARK    2  A    between atoms: C_5  and  O_6
REMARK    3  A    between atoms: O_6  and  C_7
REMARK    4  A    between atoms: C_7  and  C_8
REMARK    5  A    between atoms: C_12  and  C_13
REMARK                            x       y       z     vdW  Elec       q    Type
REMARK                         _______ _______ _______ _____ _____    ______ ____
ROOT
ATOM      1  C   UNL     1      45.420   6.281  11.717  0.00  0.00    +0.000 A 
ATOM      2  C   UNL     1      44.024   6.385  11.859  0.00  0.00    +0.000 A 
ATOM      3  C   UNL     1      43.141   5.584  11.139  0.00  0.00    +0.000 A 
ATOM      4  C   UNL     1      43.637   4.668  10.220  0.00  0.00    +0.000 A 
ATOM      5  C   UNL     1      45.018   4.515  10.031  0.00  0.00    +0.000 A 
ATOM      6  C   UNL     1      45.885   5.297  10.826  0.00  0.00    +0.000 A 
ENDROOT
BRANCH   5   7
ATOM      7  C   UNL     1      45.545   3.634   8.973  0.00  0.00    +0.000 A 
ATOM      8  C   UNL     1      46.067   4.129   7.773  0.00  0.00    +0.000 A 
ATOM      9  C   UNL     1      46.502   3.253   6.779  0.00  0.00    +0.000 A 
ATOM     10  C   UNL     1      46.413   1.892   7.012  0.00  0.00    +0.000 A 
ATOM     11  N   UNL     1      45.929   1.361   8.151  0.00  0.00    +0.000 NA
ATOM     12  C   UNL     1      45.504   2.240   9.092  0.00  0.00    +0.000 A 
ENDBRANCH   5   7
BRANCH   1  13
ATOM     13  C   UNL     1      46.360   7.293  12.384  0.00  0.00    +0.000 C 
ATOM     14  C   UNL     1      46.363   8.744  11.925  0.00  0.00    +0.000 C 
ATOM     15  C   UNL     1      45.699   8.378  13.209  0.00  0.00    +0.000 C 
BRANCH  13  16
ATOM     16  O   UNL     1      47.709   6.872  12.737  0.00  0.00    +0.000 OA
BRANCH  16  21
ATOM     17  C   UNL     1      47.527   4.185  17.616  0.00  0.00    +0.000 C 
ATOM     18  C   UNL     1      47.701   4.760  16.249  0.00  0.00    +0.000 A 
ATOM     19  C   UNL     1      47.002   4.271  15.145  0.00  0.00    +0.000 A 
ATOM     20  C   UNL     1      47.073   4.953  13.933  0.00  0.00    +0.000 A 
ATOM     21  C   UNL     1      47.834   6.109  13.882  0.00  0.00    +0.000 A 
ATOM     22  N   UNL     1      48.621   6.535  14.887  0.00  0.00    +0.000 NA
ATOM     23  C   UNL     1      48.530   5.857  16.050  0.00  0.00    +0.000 A 
ENDBRANCH  16  21
ENDBRANCH  13  16
ENDBRANCH   1  13
TORSDOF 4
ENDMDL
MODEL 8
REMARK VINA RESULT:    -6.678      2.422      7.567
REMARK INTER + INTRA:          -8.733
REMARK INTER:                  -7.795
REMARK INTRA:                  -0.938
REMARK UNBOUND:                -0.493
REMARK  Name = 
REMARK  5 active torsions:
REMARK  status: ('A' for Active; 'I' for Inactive)
REMARK    1  A    between atoms: C_1  and  C_2
REMARK    2  A    between atoms: C_5  and  O_6
REMARK    3  A    between atoms: O_6  and  C_7
REMARK    4  A    between atoms: C_7  and  C_8
REMARK    5  A    between atoms: C_12  and  C_13
REMARK                            x       y       z     vdW  Elec       q    Type
REMARK                         _______ _______ _______ _____ _____    ______ ____
ROOT
ATOM      1  C   UNL     1      47.411   7.551  12.366  0.00  0.00    +0.000 A 
ATOM      2  C   UNL     1      46.426   8.533  12.578  0.00  0.00    +0.000 A 
ATOM      3  C   UNL     1      45.097   8.348  12.205  0.00  0.00    +0.000 A 
ATOM      4  C   UNL     1      44.719   7.172  11.569  0.00  0.00    +0.000 A 
ATOM      5  C   UNL     1      45.652   6.153  11.328  0.00  0.00    +0.000 A 
ATOM      6  C   UNL     1      46.976   6.348  11.779  0.00  0.00    +0.000 A 
ENDROOT
BRANCH   5   7
ATOM      7  C   UNL     1      45.284   4.958  10.548  0.00  0.00    +0.000 A 
ATOM      8  C   UNL     1      45.548   4.843   9.178  0.00  0.00    +0.000 A 
ATOM      9  C   UNL     1      45.130   3.716   8.472  0.00  0.00    +0.000 A 
ATOM     10  C   UNL     1      44.460   2.718   9.157  0.00  0.00    +0.000 A 
ATOM     11  N   UNL     1      44.187   2.771  10.475  0.00  0.00    +0.000 NA
ATOM     12  C   UNL     1      44.597   3.885  11.129  0.00  0.00    +0.000 A 
ENDBRANCH   5   7
BRANCH   1  13
ATOM     13  C   UNL     1      48.893   7.849  12.620  0.00  0.00    +0.000 C 
ATOM     14  C   UNL     1      49.793   8.268  11.466  0.00  0.00    +0.000 C 
ATOM     15  C   UNL     1      49.325   9.291  12.447  0.00  0.00    +0.000 C 
BRANCH  13  16
ATOM     16  O   UNL     1      49.629   7.008  13.555  0.00  0.00    +0.000 OA
BRANCH  16  21
ATOM     17  C   UNL     1      48.330   6.494  18.951  0.00  0.00    +0.000 C 
ATOM     18  C   UNL     1      48.498   6.717  17.483  0.00  0.00    +0.000 A 
ATOM     19  C   UNL     1      48.873   7.955  16.961  0.00  0.00    +0.000 A 
ATOM     20  C   UNL     1      49.181   8.061  15.607  0.00  0.00    +0.000 A 
ATOM     21  C   UNL     1      49.112   6.915  14.833  0.00  0.00    +0.000 A 
ATOM     22  N   UNL     1      48.631   5.738  15.276  0.00  0.00    +0.000 NA
ATOM     23  C   UNL     1      48.344   5.663  16.592  0.00  0.00    +0.000 A 
ENDBRANCH  16  21
ENDBRANCH  13  16
ENDBRANCH   1  13
TORSDOF 4
ENDMDL
MODEL 9
REMARK VINA RESULT:    -6.002      2.629      4.359
REMARK INTER + INTRA:          -7.899
REMARK INTER:                  -7.186
REMARK INTRA:                  -0.713
REMARK UNBOUND:                -0.493
REMARK  Name = 
REMARK  5 active torsions:
REMARK  status: ('A' for Active; 'I' for Inactive)
REMARK    1  A    between atoms: C_1  and  C_2
REMARK    2  A    between atoms: C_5  and  O_6
REMARK    3  A    between atoms: O_6  and  C_7
REMARK    4  A    between atoms: C_7  and  C_8
REMARK    5  A    between atoms: C_12  and  C_13
REMARK                            x       y       z     vdW  Elec       q    Type
REMARK                         _______ _______ _______ _____ _____    ______ ____
ROOT
ATOM      1  C   UNL     1      48.231   7.999  14.160  0.00  0.00    +0.000 A 
ATOM      2  C   UNL     1      48.131   9.105  15.025  0.00  0.00    +0.000 A 
ATOM      3  C   UNL     1      48.385   9.008  16.390  0.00  0.00    +0.000 A 
ATOM      4  C   UNL     1      48.717   7.776  16.942  0.00  0.00    +0.000 A 
ATOM      5  C   UNL     1      48.833   6.635  16.135  0.00  0.00    +0.000 A 
ATOM      6  C   UNL     1      48.634   6.784  14.745  0.00  0.00    +0.000 A 
ENDROOT
BRANCH   5   7
ATOM      7  C   UNL     1      49.066   5.307  16.730  0.00  0.00    +0.000 A 
ATOM      8  C   UNL     1      50.292   4.939  17.295  0.00  0.00    +0.000 A 
ATOM      9  C   UNL     1      50.481   3.651  17.794  0.00  0.00    +0.000 A 
ATOM     10  C   UNL     1      49.429   2.755  17.725  0.00  0.00    +0.000 A 
ATOM     11  N   UNL     1      48.225   3.057  17.202  0.00  0.00    +0.000 NA
ATOM     12  C   UNL     1      48.079   4.314  16.715  0.00  0.00    +0.000 A 
ENDBRANCH   5   7
BRANCH   1  13
ATOM     13  C   UNL     1      47.773   8.094  12.700  0.00  0.00    +0.000 C 
ATOM     14  C   UNL     1      48.425   9.099  11.762  0.00  0.00    +0.000 C 
ATOM     15  C   UNL     1      48.775   7.653  11.653  0.00  0.00    +0.000 C 
BRANCH  13  16
ATOM     16  O   UNL     1      46.352   7.971  12.400  0.00  0.00    +0.000 OA
BRANCH  16  21
ATOM     17  C   UNL     1      43.671   3.157  11.571  0.00  0.00    +0.000 C 
ATOM     18  C   UNL     1      44.557   4.345  11.752  0.00  0.00    +0.000 A 
ATOM     19  C   UNL     1      45.036   5.083  10.671  0.00  0.00    +0.000 A 
ATOM     20  C   UNL     1      45.714   6.277  10.904  0.00  0.00    +0.000 A 
ATOM     21  C   UNL     1      45.872   6.689  12.216  0.00  0.00    +0.000 A 
ATOM     22  N   UNL     1      45.537   5.940  13.284  0.00  0.00    +0.000 NA
ATOM     23  C   UNL     1      44.880   4.790  13.028  0.00  0.00    +0.000 A 
ENDBRANCH  16  21
ENDBRANCH  13  16
ENDBRANCH   1  13
TORSDOF 4
ENDMDL
