MODEL 1
REMARK VINA RESULT:    -7.972      0.000      0.000
REMARK INTER + INTRA:         -13.160
REMARK INTER:                 -12.167
REMARK INTRA:                  -0.993
REMARK UNBOUND:                -0.993
REMARK  Name = 
REMARK  10 active torsions:
REMARK  status: ('A' for Active; 'I' for Inactive)
REMARK    1  A    between atoms: C_2  and  C_3
REMARK    2  A    between atoms: C_3  and  N_4
REMARK    3  A    between atoms: C_3  and  C_22
REMARK    4  A    between atoms: N_4  and  C_5
REMARK    5  A    between atoms: C_5  and  C_6
REMARK    6  A    between atoms: C_9  and  C_10
REMARK    7  A    between atoms: C_10  and  N_11
REMARK    8  A    between atoms: N_11  and  C_12
REMARK    9  A    between atoms: N_11  and  C_13
REMARK   10  A    between atoms: C_13  and  C_14
REMARK                            x       y       z     vdW  Elec       q    Type
REMARK                         _______ _______ _______ _____ _____    ______ ____
ROOT
ATOM      1  C   UNL     1      48.698   6.573  14.897  0.00  0.00    +0.000 C 
ENDROOT
BRANCH   1   2
ATOM      2  C   UNL     1      47.674   6.183  13.864  0.00  0.00    +0.000 A 
ATOM      3  C   UNL     1      46.874   5.049  14.055  0.00  0.00    +0.000 A 
ATOM      4  C   UNL     1      45.911   4.700  13.111  0.00  0.00    +0.000 A 
ATOM      5  C   UNL     1      45.687   5.513  11.991  0.00  0.00    +0.000 A 
ATOM      6  C   UNL     1      46.495   6.642  11.796  0.00  0.00    +0.000 A 
ATOM      7  C   UNL     1      47.484   6.969  12.722  0.00  0.00    +0.000 A 
BRANCH   5   8
ATOM      8  C   UNL     1      44.566   5.204  11.019  0.00  0.00    +0.000 C 
BRANCH   8   9
ATOM      9  N   UNL     1      44.604   3.817  10.509  0.00  0.00    +0.000 NA
ATOM     10  C   UNL     1      43.593   2.973  11.157  0.00  0.00    +0.000 C 
BRANCH   9  11
ATOM     11  C   UNL     1      44.407   3.811   9.042  0.00  0.00    +0.000 C 
BRANCH  11  12
ATOM     12  C   UNL     1      45.518   3.126   8.257  0.00  0.00    +0.000 A 
ATOM     13  C   UNL     1      45.839   1.790   8.492  0.00  0.00    +0.000 A 
ATOM     14  C   UNL     1      46.798   1.178   7.689  0.00  0.00    +0.000 A 
ATOM     15  C   UNL     1      47.437   1.920   6.703  0.00  0.00    +0.000 A 
ATOM     16  C   UNL     1      47.100   3.256   6.571  0.00  0.00    +0.000 A 
ATOM     17  N   UNL     1      46.157   3.872   7.316  0.00  0.00    +0.000 NA
ENDBRANCH  11  12
ENDBRANCH   9  11
ENDBRANCH   8   9
ENDBRANCH   5   8
ENDBRANCH   1   2
BRANCH   1  18
ATOM     18  N   UNL     1      48.986   5.464  15.803  0.00  0.00    +0.000 NA
ATOM     19  H   UNL     1      49.731   4.901  15.394  0.00  0.00    +0.000 HD
BRANCH  18  20
ATOM     20  C   UNL     1      49.410   5.938  17.130  0.00  0.00    +0.000 C 
BRANCH  20  21
ATOM     21  C   UNL     1      50.683   5.194  17.484  0.00  0.00    +0.000 A 
ATOM     22  C   UNL     1      51.838   5.840  17.913  0.00  0.00    +0.000 A 
ATOM     23  S   UNL     1      53.117   4.783  18.286  0.00  0.00    +0.000 S 
ATOM     24  C   UNL     1      52.179   3.418  17.903  0.00  0.00    +0.000 A 
ATOM     25  N   UNL     1      52.698   2.169  18.043  0.00  0.00    +0.000 NA
ATOM     26  C   UNL     1      51.869   1.216  17.783  0.00  0.00    +0.000 A 
ATOM     27  N   UNL     1      50.574   1.400  17.371  0.00  0.00    +0.000 N 
ATOM     28  C   UNL     1      50.048   2.645  17.085  0.00  0.00    +0.000 A 
ATOM     29  O   UNL     1      48.961   2.759  16.528  0.00  0.00    +0.000 OA
ATOM     30  C   UNL     1      50.909   3.758  17.465  0.00  0.00    +0.000 A 
ATOM     31  H   UNL     1      49.999   0.605  17.133  0.00  0.00    +0.000 HD
ENDBRANCH  20  21
BRANCH  20  33
ATOM     32  C   UNL     1      47.419   5.415  18.844  0.00  0.00    +0.000 C 
ATOM     33  C   UNL     1      48.349   5.652  18.132  0.00  0.00    +0.000 C 
ENDBRANCH  20  33
ENDBRANCH  18  20
ENDBRANCH   1  18
TORSDOF 9
ENDMDL
MODEL 2
REMARK VINA RESULT:    -7.934      2.345      3.069
REMARK INTER + INTRA:         -13.101
REMARK INTER:                 -11.609
REMARK INTRA:                  -1.493
REMARK UNBOUND:                -0.993
REMARK  Name = 
REMARK  10 active torsions:
REMARK  status: ('A' for Active; 'I' for Inactive)
REMARK    1  A    between atoms: C_2  and  C_3
REMARK    2  A    between atoms: C_3  and  N_4
REMARK    3  A    between atoms: C_3  and  C_22
REMARK    4  A    between atoms: N_4  and  C_5
REMARK    5  A    between atoms: C_5  and  C_6
REMARK    6  A    between atoms: C_9  and  C_10
REMARK    7  A    between atoms: C_10  and  N_11
REMARK    8  A    between atoms: N_11  and  C_12
REMARK    9  A    between atoms: N_11  and  C_13
REMARK   10  A    between atoms: C_13  and  C_14
REMARK                            x       y       z     vdW  Elec       q    Type
REMARK                         _______ _______ _______ _____ _____    ______ ____
ROOT
ATOM      1  C   UNL     1      47.581   8.786  13.436  0.00  0.00    +0.000 C 
ENDROOT
BRANCH   1   2
ATOM      2  C   UNL     1      46.742   7.771  12.705  0.00  0.00    +0.000 A 
ATOM      3  C   UNL     1      45.366   7.681  12.952  0.00  0.00    +0.000 A 
ATOM      4  C   UNL     1      44.586   6.757  12.260  0.00  0.00    +0.000 A 
ATOM      5  C   UNL     1      45.155   5.952  11.264  0.00  0.00    +0.000 A 
ATOM      6  C   UNL     1      46.533   6.036  11.025  0.00  0.00    +0.000 A 
ATOM      7  C   UNL     1      47.320   6.933  11.745  0.00  0.00    +0.000 A 
BRANCH   5   8
ATOM      8  C   UNL     1      44.294   5.026  10.428  0.00  0.00    +0.000 C 
BRANCH   8   9
ATOM      9  N   UNL     1      44.656   3.601  10.578  0.00  0.00    +0.000 NA
ATOM     10  C   UNL     1      44.020   3.000  11.756  0.00  0.00    +0.000 C 
BRANCH   9  11
ATOM     11  C   UNL     1      44.277   2.852   9.359  0.00  0.00    +0.000 C 
BRANCH  11  12
ATOM     12  C   UNL     1      45.443   2.493   8.448  0.00  0.00    +0.000 A 
ATOM     13  C   UNL     1      46.025   3.453   7.621  0.00  0.00    +0.000 A 
ATOM     14  C   UNL     1      47.146   3.106   6.872  0.00  0.00    +0.000 A 
ATOM     15  C   UNL     1      47.634   1.807   6.938  0.00  0.00    +0.000 A 
ATOM     16  C   UNL     1      46.966   0.898   7.741  0.00  0.00    +0.000 A 
ATOM     17  N   UNL     1      45.892   1.210   8.498  0.00  0.00    +0.000 NA
ENDBRANCH  11  12
ENDBRANCH   9  11
ENDBRANCH   8   9
ENDBRANCH   5   8
ENDBRANCH   1   2
BRANCH   1  18
ATOM     18  N   UNL     1      47.947   8.311  14.768  0.00  0.00    +0.000 NA
ATOM     19  H   UNL     1      47.143   7.828  15.169  0.00  0.00    +0.000 HD
BRANCH  18  20
ATOM     20  C   UNL     1      49.093   7.390  14.724  0.00  0.00    +0.000 C 
BRANCH  20  21
ATOM     21  C   UNL     1      49.098   6.622  16.033  0.00  0.00    +0.000 A 
ATOM     22  C   UNL     1      49.793   7.057  17.157  0.00  0.00    +0.000 A 
ATOM     23  S   UNL     1      49.610   6.044  18.511  0.00  0.00    +0.000 S 
ATOM     24  C   UNL     1      48.585   4.990  17.657  0.00  0.00    +0.000 A 
ATOM     25  N   UNL     1      48.048   3.906  18.278  0.00  0.00    +0.000 NA
ATOM     26  C   UNL     1      47.238   3.220  17.544  0.00  0.00    +0.000 A 
ATOM     27  N   UNL     1      46.937   3.507  16.237  0.00  0.00    +0.000 N 
ATOM     28  C   UNL     1      47.561   4.515  15.528  0.00  0.00    +0.000 A 
ATOM     29  O   UNL     1      47.419   4.614  14.314  0.00  0.00    +0.000 OA
ATOM     30  C   UNL     1      48.403   5.384  16.342  0.00  0.00    +0.000 A 
ATOM     31  H   UNL     1      46.335   2.894  15.708  0.00  0.00    +0.000 HD
ENDBRANCH  20  21
BRANCH  20  33
ATOM     32  C   UNL     1      51.376   8.734  14.336  0.00  0.00    +0.000 C 
ATOM     33  C   UNL     1      50.355   8.160  14.571  0.00  0.00    +0.000 C 
ENDBRANCH  20  33
ENDBRANCH  18  20
ENDBRANCH   1  18
TORSDOF 9
ENDMDL
MODEL 3
REMARK VINA RESULT:    -7.648      1.543      2.006
REMARK INTER + INTRA:         -12.665
REMARK INTER:                 -11.866
REMARK INTRA:                  -0.799
REMARK UNBOUND:                -0.993
REMARK  Name = 
REMARK  10 active torsions:
REMARK  status: ('A' for Active; 'I' for Inactive)
REMARK    1  A    between atoms: C_2  and  C_3
REMARK    2  A    between atoms: C_3  and  N_4
REMARK    3  A    between atoms: C_3  and  C_22
REMARK    4  A    between atoms: N_4  and  C_5
REMARK    5  A    between atoms: C_5  and  C_6
REMARK    6  A    between atoms: C_9  and  C_10
REMARK    7  A    between atoms: C_10  and  N_11
REMARK    8  A    between atoms: N_11  and  C_12
REMARK    9  A    between atoms: N_11  and  C_13
REMARK   10  A    between atoms: C_13  and  C_14
REMARK                            x       y       z     vdW  Elec       q    Type
REMARK                         _______ _______ _______ _____ _____    ______ ____
ROOT
ATOM      1  C   UNL     1      48.505   6.509  14.992  0.00  0.00    +0.000 C 
ENDROOT
BRANCH   1   2
ATOM      2  C   UNL     1      47.570   6.085  13.890  0.00  0.00    +0.000 A 
ATOM      3  C   UNL     1      46.747   4.963  14.053  0.00  0.00    +0.000 A 
ATOM      4  C   UNL     1      45.866   4.584  13.043  0.00  0.00    +0.000 A 
ATOM      5  C   UNL     1      45.746   5.355  11.879  0.00  0.00    +0.000 A 
ATOM      6  C   UNL     1      46.576   6.471  11.713  0.00  0.00    +0.000 A 
ATOM      7  C   UNL     1      47.486   6.828  12.708  0.00  0.00    +0.000 A 
BRANCH   5   8
ATOM      8  C   UNL     1      44.710   5.015  10.826  0.00  0.00    +0.000 C 
BRANCH   8   9
ATOM      9  N   UNL     1      44.657   3.573  10.508  0.00  0.00    +0.000 NA
ATOM     10  C   UNL     1      43.646   2.876  11.312  0.00  0.00    +0.000 C 
BRANCH   9  11
ATOM     11  C   UNL     1      44.378   3.383   9.066  0.00  0.00    +0.000 C 
BRANCH  11  12
ATOM     12  C   UNL     1      45.516   2.748   8.279  0.00  0.00    +0.000 A 
ATOM     13  C   UNL     1      46.300   3.512   7.415  0.00  0.00    +0.000 A 
ATOM     14  C   UNL     1      47.387   2.913   6.785  0.00  0.00    +0.000 A 
ATOM     15  C   UNL     1      47.642   1.564   7.002  0.00  0.00    +0.000 A 
ATOM     16  C   UNL     1      46.784   0.863   7.831  0.00  0.00    +0.000 A 
ATOM     17  N   UNL     1      45.737   1.421   8.476  0.00  0.00    +0.000 NA
ENDBRANCH  11  12
ENDBRANCH   9  11
ENDBRANCH   8   9
ENDBRANCH   5   8
ENDBRANCH   1   2
BRANCH   1  18
ATOM     18  N   UNL     1      48.865   5.379  15.845  0.00  0.00    +0.000 NA
ATOM     19  H   UNL     1      49.868   5.420  16.024  0.00  0.00    +0.000 HD
BRANCH  18  20
ATOM     20  C   UNL     1      48.143   5.408  17.126  0.00  0.00    +0.000 C 
BRANCH  20  21
ATOM     21  C   UNL     1      49.146   5.794  18.196  0.00  0.00    +0.000 A 
ATOM     22  C   UNL     1      48.990   6.913  19.006  0.00  0.00    +0.000 A 
ATOM     23  S   UNL     1      50.229   7.108  20.154  0.00  0.00    +0.000 S 
ATOM     24  C   UNL     1      51.019   5.698  19.628  0.00  0.00    +0.000 A 
ATOM     25  N   UNL     1      52.159   5.282  20.241  0.00  0.00    +0.000 NA
ATOM     26  C   UNL     1      52.628   4.167  19.793  0.00  0.00    +0.000 A 
ATOM     27  N   UNL     1      52.072   3.442  18.770  0.00  0.00    +0.000 N 
ATOM     28  C   UNL     1      50.996   3.893  18.031  0.00  0.00    +0.000 A 
ATOM     29  O   UNL     1      50.653   3.322  17.001  0.00  0.00    +0.000 OA
ATOM     30  C   UNL     1      50.366   5.094  18.566  0.00  0.00    +0.000 A 
ATOM     31  H   UNL     1      52.525   2.604  18.437  0.00  0.00    +0.000 HD
ENDBRANCH  20  21
BRANCH  20  33
ATOM     32  C   UNL     1      47.213   2.942  17.603  0.00  0.00    +0.000 C 
ATOM     33  C   UNL     1      47.570   4.066  17.414  0.00  0.00    +0.000 C 
ENDBRANCH  20  33
ENDBRANCH  18  20
ENDBRANCH   1  18
TORSDOF 9
ENDMDL
MODEL 4
REMARK VINA RESULT:    -7.634      1.728      2.205
REMARK INTER + INTRA:         -12.643
REMARK INTER:                 -11.734
REMARK INTRA:                  -0.909
REMARK UNBOUND:                -0.993
REMARK  Name = 
REMARK  10 active torsions:
REMARK  status: ('A' for Active; 'I' for Inactive)
REMARK    1  A    between atoms: C_2  and  C_3
REMARK    2  A    between atoms: C_3  and  N_4
REMARK    3  A    between atoms: C_3  and  C_22
REMARK    4  A    between atoms: N_4  and  C_5
REMARK    5  A    between atoms: C_5  and  C_6
REMARK    6  A    between atoms: C_9  and  C_10
REMARK    7  A    between atoms: C_10  and  N_11
REMARK    8  A    between atoms: N_11  and  C_12
REMARK    9  A    between atoms: N_11  and  C_13
REMARK   10  A    between atoms: C_13  and  C_14
REMARK                            x       y       z     vdW  Elec       q    Type
REMARK                         _______ _______ _______ _____ _____    ______ ____
ROOT
ATOM      1  C   UNL     1      48.731   6.955  14.417  0.00  0.00    +0.000 C 
ENDROOT
BRANCH   1   2
ATOM      2  C   UNL     1      47.736   6.377  13.445  0.00  0.00    +0.000 A 
ATOM      3  C   UNL     1      46.998   5.236  13.785  0.00  0.00    +0.000 A 
ATOM      4  C   UNL     1      46.061   4.714  12.896  0.00  0.00    +0.000 A 
ATOM      5  C   UNL     1      45.800   5.359  11.679  0.00  0.00    +0.000 A 
ATOM      6  C   UNL     1      46.547   6.494  11.336  0.00  0.00    +0.000 A 
ATOM      7  C   UNL     1      47.511   6.994  12.210  0.00  0.00    +0.000 A 
BRANCH   5   8
ATOM      8  C   UNL     1      44.704   4.863  10.757  0.00  0.00    +0.000 C 
BRANCH   8   9
ATOM      9  N   UNL     1      44.651   3.390  10.656  0.00  0.00    +0.000 NA
ATOM     10  C   UNL     1      43.703   2.814  11.618  0.00  0.00    +0.000 C 
BRANCH   9  11
ATOM     11  C   UNL     1      44.283   2.989   9.279  0.00  0.00    +0.000 C 
BRANCH  11  12
ATOM     12  C   UNL     1      45.456   2.557   8.411  0.00  0.00    +0.000 A 
ATOM     13  C   UNL     1      46.145   3.482   7.628  0.00  0.00    +0.000 A 
ATOM     14  C   UNL     1      47.267   3.062   6.920  0.00  0.00    +0.000 A 
ATOM     15  C   UNL     1      47.652   1.728   6.981  0.00  0.00    +0.000 A 
ATOM     16  C   UNL     1      46.883   0.861   7.738  0.00  0.00    +0.000 A 
ATOM     17  N   UNL     1      45.804   1.243   8.456  0.00  0.00    +0.000 NA
ENDBRANCH  11  12
ENDBRANCH   9  11
ENDBRANCH   8   9
ENDBRANCH   5   8
ENDBRANCH   1   2
BRANCH   1  18
ATOM     18  N   UNL     1      48.093   7.303  15.685  0.00  0.00    +0.000 NA
ATOM     19  H   UNL     1      47.223   6.776  15.761  0.00  0.00    +0.000 HD
BRANCH  18  20
ATOM     20  C   UNL     1      48.954   6.985  16.834  0.00  0.00    +0.000 C 
BRANCH  20  21
ATOM     21  C   UNL     1      48.841   5.493  17.078  0.00  0.00    +0.000 A 
ATOM     22  C   UNL     1      47.622   4.823  17.096  0.00  0.00    +0.000 A 
ATOM     23  S   UNL     1      47.762   3.147  17.349  0.00  0.00    +0.000 S 
ATOM     24  C   UNL     1      49.458   3.242  17.430  0.00  0.00    +0.000 A 
ATOM     25  N   UNL     1      50.199   2.117  17.607  0.00  0.00    +0.000 NA
ATOM     26  C   UNL     1      51.474   2.310  17.588  0.00  0.00    +0.000 A 
ATOM     27  N   UNL     1      52.075   3.534  17.433  0.00  0.00    +0.000 N 
ATOM     28  C   UNL     1      51.364   4.717  17.387  0.00  0.00    +0.000 A 
ATOM     29  O   UNL     1      51.935   5.801  17.453  0.00  0.00    +0.000 OA
ATOM     30  C   UNL     1      49.919   4.542  17.297  0.00  0.00    +0.000 A 
ATOM     31  H   UNL     1      53.079   3.617  17.483  0.00  0.00    +0.000 HD
ENDBRANCH  20  21
BRANCH  20  33
ATOM     32  C   UNL     1      48.089   8.430  18.917  0.00  0.00    +0.000 C 
ATOM     33  C   UNL     1      48.498   7.740  18.032  0.00  0.00    +0.000 C 
ENDBRANCH  20  33
ENDBRANCH  18  20
ENDBRANCH   1  18
TORSDOF 9
ENDMDL
MODEL 5
REMARK VINA RESULT:    -6.772      2.942      3.805
REMARK INTER + INTRA:         -11.328
REMARK INTER:                  -9.980
REMARK INTRA:                  -1.348
REMARK UNBOUND:                -0.993
REMARK  Name = 
REMARK  10 active torsions:
REMARK  status: ('A' for Active; 'I' for Inactive)
REMARK    1  A    between atoms: C_2  and  C_3
REMARK    2  A    between atoms: C_3  and  N_4
REMARK    3  A    between atoms: C_3  and  C_22
REMARK    4  A    between atoms: N_4  and  C_5
REMARK    5  A    between atoms: C_5  and  C_6
REMARK    6  A    between atoms: C_9  and  C_10
REMARK    7  A    between atoms: C_10  and  N_11
REMARK    8  A    between atoms: N_11  and  C_12
REMARK    9  A    between atoms: N_11  and  C_13
REMARK   10  A    between atoms: C_13  and  C_14
REMARK                            x       y       z     vdW  Elec       q    Type
REMARK                         _______ _______ _______ _____ _____    ______ ____
ROOT
ATOM      1  C   UNL     1      49.697   8.108  14.004  0.00  0.00    +0.000 C 
ENDROOT
BRANCH   1   2
ATOM      2  C   UNL     1      48.360   7.703  13.443  0.00  0.00    +0.000 A 
ATOM      3  C   UNL     1      47.279   8.594  13.479  0.00  0.00    +0.000 A 
ATOM      4  C   UNL     1      46.048   8.229  12.939  0.00  0.00    +0.000 A 
ATOM      5  C   UNL     1      45.892   6.993  12.298  0.00  0.00    +0.000 A 
ATOM      6  C   UNL     1      46.971   6.099  12.271  0.00  0.00    +0.000 A 
ATOM      7  C   UNL     1      48.192   6.449  12.846  0.00  0.00    +0.000 A 
BRANCH   5   8
ATOM      8  C   UNL     1      44.591   6.634  11.609  0.00  0.00    +0.000 C 
BRANCH   8   9
ATOM      9  N   UNL     1      44.362   5.177  11.521  0.00  0.00    +0.000 NA
ATOM     10  C   UNL     1      43.448   4.706  12.569  0.00  0.00    +0.000 C 
BRANCH   9  11
ATOM     11  C   UNL     1      43.825   4.828  10.186  0.00  0.00    +0.000 C 
BRANCH  11  12
ATOM     12  C   UNL     1      44.746   3.961   9.339  0.00  0.00    +0.000 A 
ATOM     13  C   UNL     1      44.787   2.579   9.516  0.00  0.00    +0.000 A 
ATOM     14  C   UNL     1      45.575   1.814   8.660  0.00  0.00    +0.000 A 
ATOM     15  C   UNL     1      46.328   2.447   7.678  0.00  0.00    +0.000 A 
ATOM     16  C   UNL     1      46.275   3.829   7.605  0.00  0.00    +0.000 A 
ATOM     17  N   UNL     1      45.501   4.596   8.403  0.00  0.00    +0.000 NA
ENDBRANCH  11  12
ENDBRANCH   9  11
ENDBRANCH   8   9
ENDBRANCH   5   8
ENDBRANCH   1   2
BRANCH   1  18
ATOM     18  N   UNL     1      49.737   7.938  15.455  0.00  0.00    +0.000 NA
ATOM     19  H   UNL     1      48.811   8.145  15.827  0.00  0.00    +0.000 HD
BRANCH  18  20
ATOM     20  C   UNL     1      50.117   6.569  15.835  0.00  0.00    +0.000 C 
BRANCH  20  21
ATOM     21  C   UNL     1      49.052   6.058  16.786  0.00  0.00    +0.000 A 
ATOM     22  C   UNL     1      48.324   4.897  16.549  0.00  0.00    +0.000 A 
ATOM     23  S   UNL     1      47.218   4.515  17.783  0.00  0.00    +0.000 S 
ATOM     24  C   UNL     1      47.674   5.877  18.693  0.00  0.00    +0.000 A 
ATOM     25  N   UNL     1      47.103   6.113  19.904  0.00  0.00    +0.000 NA
ATOM     26  C   UNL     1      47.577   7.140  20.525  0.00  0.00    +0.000 A 
ATOM     27  N   UNL     1      48.555   7.966  20.032  0.00  0.00    +0.000 N 
ATOM     28  C   UNL     1      49.065   7.844  18.754  0.00  0.00    +0.000 A 
ATOM     29  O   UNL     1      49.784   8.715  18.275  0.00  0.00    +0.000 OA
ATOM     30  C   UNL     1      48.640   6.638  18.055  0.00  0.00    +0.000 A 
ATOM     31  H   UNL     1      48.839   8.783  20.552  0.00  0.00    +0.000 HD
ENDBRANCH  20  21
BRANCH  20  33
ATOM     32  C   UNL     1      52.561   6.590  16.929  0.00  0.00    +0.000 C 
ATOM     33  C   UNL     1      51.445   6.579  16.503  0.00  0.00    +0.000 C 
ENDBRANCH  20  33
ENDBRANCH  18  20
ENDBRANCH   1  18
TORSDOF 9
ENDMDL
MODEL 6
REMARK VINA RESULT:    -6.722      1.633      2.268
REMARK INTER + INTRA:         -11.252
REMARK INTER:                 -10.029
REMARK INTRA:                  -1.223
REMARK UNBOUND:                -0.993
REMARK  Name = 
REMARK  10 active torsions:
REMARK  status: ('A' for Active; 'I' for Inactive)
REMARK    1  A    between atoms: C_2  and  C_3
REMARK    2  A    between atoms: C_3  and  N_4
REMARK    3  A    between atoms: C_3  and  C_22
REMARK    4  A    between atoms: N_4  and  C_5
REMARK    5  A    between atoms: C_5  and  C_6
REMARK    6  A    between atoms: C_9  and  C_10
REMARK    7  A    between atoms: C_10  and  N_11
REMARK    8  A    between atoms: N_11  and  C_12
REMARK    9  A    between atoms: N_11  and  C_13
REMARK   10  A    between atoms: C_13  and  C_14
REMARK                            x       y       z     vdW  Elec       q    Type
REMARK                         _______ _______ _______ _____ _____    ______ ____
ROOT
ATOM      1  C   UNL     1      48.862   8.270  16.295  0.00  0.00    +0.000 C 
ENDROOT
BRANCH   1   2
ATOM      2  C   UNL     1      48.140   7.793  15.062  0.00  0.00    +0.000 A 
ATOM      3  C   UNL     1      47.336   8.675  14.328  0.00  0.00    +0.000 A 
ATOM      4  C   UNL     1      46.686   8.240  13.176  0.00  0.00    +0.000 A 
ATOM      5  C   UNL     1      46.879   6.935  12.701  0.00  0.00    +0.000 A 
ATOM      6  C   UNL     1      47.675   6.051  13.441  0.00  0.00    +0.000 A 
ATOM      7  C   UNL     1      48.294   6.476  14.616  0.00  0.00    +0.000 A 
BRANCH   5   8
ATOM      8  C   UNL     1      46.267   6.489  11.388  0.00  0.00    +0.000 C 
BRANCH   8   9
ATOM      9  N   UNL     1      45.308   5.375  11.542  0.00  0.00    +0.000 NA
ATOM     10  C   UNL     1      44.351   5.629  12.625  0.00  0.00    +0.000 C 
BRANCH   9  11
ATOM     11  C   UNL     1      44.586   5.148  10.269  0.00  0.00    +0.000 C 
BRANCH  11  12
ATOM     12  C   UNL     1      45.236   4.126   9.347  0.00  0.00    +0.000 A 
ATOM     13  C   UNL     1      45.114   2.760   9.597  0.00  0.00    +0.000 A 
ATOM     14  C   UNL     1      45.645   1.858   8.679  0.00  0.00    +0.000 A 
ATOM     15  C   UNL     1      46.314   2.338   7.559  0.00  0.00    +0.000 A 
ATOM     16  C   UNL     1      46.439   3.709   7.413  0.00  0.00    +0.000 A 
ATOM     17  N   UNL     1      45.914   4.609   8.272  0.00  0.00    +0.000 NA
ENDBRANCH  11  12
ENDBRANCH   9  11
ENDBRANCH   8   9
ENDBRANCH   5   8
ENDBRANCH   1   2
BRANCH   1  18
ATOM     18  N   UNL     1      48.175   7.842  17.511  0.00  0.00    +0.000 NA
ATOM     19  H   UNL     1      47.641   7.000  17.298  0.00  0.00    +0.000 HD
BRANCH  18  20
ATOM     20  C   UNL     1      49.121   7.553  18.600  0.00  0.00    +0.000 C 
BRANCH  20  21
ATOM     21  C   UNL     1      49.984   6.392  18.145  0.00  0.00    +0.000 A 
ATOM     22  C   UNL     1      51.370   6.475  18.055  0.00  0.00    +0.000 A 
ATOM     23  S   UNL     1      52.113   5.028  17.559  0.00  0.00    +0.000 S 
ATOM     24  C   UNL     1      50.618   4.226  17.456  0.00  0.00    +0.000 A 
ATOM     25  N   UNL     1      50.567   2.915  17.101  0.00  0.00    +0.000 NA
ATOM     26  C   UNL     1      49.382   2.404  17.121  0.00  0.00    +0.000 A 
ATOM     27  N   UNL     1      48.241   3.094  17.439  0.00  0.00    +0.000 N 
ATOM     28  C   UNL     1      48.228   4.455  17.672  0.00  0.00    +0.000 A 
ATOM     29  O   UNL     1      47.171   5.073  17.752  0.00  0.00    +0.000 OA
ATOM     30  C   UNL     1      49.553   5.056  17.767  0.00  0.00    +0.000 A 
ATOM     31  H   UNL     1      47.341   2.641  17.380  0.00  0.00    +0.000 HD
ENDBRANCH  20  21
BRANCH  20  33
ATOM     32  C   UNL     1      47.678   6.947  20.774  0.00  0.00    +0.000 C 
ATOM     33  C   UNL     1      48.375   7.189  19.834  0.00  0.00    +0.000 C 
ENDBRANCH  20  33
ENDBRANCH  18  20
ENDBRANCH   1  18
TORSDOF 9
ENDMDL
MODEL 7
REMARK VINA RESULT:    -6.718      2.454      3.483
REMARK INTER + INTRA:         -11.246
REMARK INTER:                 -10.215
REMARK INTRA:                  -1.031
REMARK UNBOUND:                -0.993
REMARK  Name = 
REMARK  10 active torsions:
REMARK  status: ('A' for Active; 'I' for Inactive)
REMARK    1  A    between atoms: C_2  and  C_3
REMARK    2  A    between atoms: C_3  and  N_4
REMARK    3  A    between atoms: C_3  and  C_22
REMARK    4  A    between atoms: N_4  and  C_5
REMARK    5  A    between atoms: C_5  and  C_6
REMARK    6  A    between atoms: C_9  and  C_10
REMARK    7  A    between atoms: C_10  and  N_11
REMARK    8  A    between atoms: N_11  and  C_12
REMARK    9  A    between atoms: N_11  and  C_13
REMARK   10  A    between atoms: C_13  and  C_14
REMARK                            x       y       z     vdW  Elec       q    Type
REMARK                         _______ _______ _______ _____ _____    ______ ____
ROOT
ATOM      1  C   UNL     1      48.819   6.856  15.073  0.00  0.00    +0.000 C 
ENDROOT
BRANCH   1   2
ATOM      2  C   UNL     1      47.802   6.492  14.023  0.00  0.00    +0.000 A 
ATOM      3  C   UNL     1      47.458   5.151  13.808  0.00  0.00    +0.000 A 
ATOM      4  C   UNL     1      46.501   4.814  12.853  0.00  0.00    +0.000 A 
ATOM      5  C   UNL     1      45.825   5.816  12.142  0.00  0.00    +0.000 A 
ATOM      6  C   UNL     1      46.177   7.156  12.351  0.00  0.00    +0.000 A 
ATOM      7  C   UNL     1      47.163   7.489  13.279  0.00  0.00    +0.000 A 
BRANCH   5   8
ATOM      8  C   UNL     1      44.704   5.465  11.185  0.00  0.00    +0.000 C 
BRANCH   8   9
ATOM      9  N   UNL     1      44.498   4.009  11.039  0.00  0.00    +0.000 NA
ATOM     10  C   UNL     1      43.530   3.497  12.017  0.00  0.00    +0.000 C 
BRANCH   9  11
ATOM     11  C   UNL     1      44.044   3.697   9.664  0.00  0.00    +0.000 C 
BRANCH  11  12
ATOM     12  C   UNL     1      45.123   3.120   8.758  0.00  0.00    +0.000 A 
ATOM     13  C   UNL     1      45.841   3.942   7.890  0.00  0.00    +0.000 A 
ATOM     14  C   UNL     1      46.879   3.390   7.145  0.00  0.00    +0.000 A 
ATOM     15  C   UNL     1      47.151   2.032   7.256  0.00  0.00    +0.000 A 
ATOM     16  C   UNL     1      46.356   1.274   8.099  0.00  0.00    +0.000 A 
ATOM     17  N   UNL     1      45.358   1.784   8.853  0.00  0.00    +0.000 NA
ENDBRANCH  11  12
ENDBRANCH   9  11
ENDBRANCH   8   9
ENDBRANCH   5   8
ENDBRANCH   1   2
BRANCH   1  18
ATOM     18  N   UNL     1      49.149   5.707  15.912  0.00  0.00    +0.000 NA
ATOM     19  H   UNL     1      50.130   5.777  16.181  0.00  0.00    +0.000 HD
BRANCH  18  20
ATOM     20  C   UNL     1      48.317   5.659  17.125  0.00  0.00    +0.000 C 
BRANCH  20  21
ATOM     21  C   UNL     1      49.216   6.007  18.296  0.00  0.00    +0.000 A 
ATOM     22  C   UNL     1      50.034   5.071  18.921  0.00  0.00    +0.000 A 
ATOM     23  S   UNL     1      50.975   5.715  20.183  0.00  0.00    +0.000 S 
ATOM     24  C   UNL     1      50.341   7.273  19.938  0.00  0.00    +0.000 A 
ATOM     25  N   UNL     1      50.772   8.314  20.699  0.00  0.00    +0.000 NA
ATOM     26  C   UNL     1      50.264   9.456  20.376  0.00  0.00    +0.000 A 
ATOM     27  N   UNL     1      49.344   9.645  19.377  0.00  0.00    +0.000 N 
ATOM     28  C   UNL     1      48.778   8.600  18.672  0.00  0.00    +0.000 A 
ATOM     29  O   UNL     1      47.817   8.785  17.932  0.00  0.00    +0.000 OA
ATOM     30  C   UNL     1      49.397   7.305  18.926  0.00  0.00    +0.000 A 
ATOM     31  H   UNL     1      48.950  10.560  19.216  0.00  0.00    +0.000 HD
ENDBRANCH  20  21
BRANCH  20  33
ATOM     32  C   UNL     1      47.190   3.244  17.391  0.00  0.00    +0.000 C 
ATOM     33  C   UNL     1      47.751   4.295  17.296  0.00  0.00    +0.000 C 
ENDBRANCH  20  33
ENDBRANCH  18  20
ENDBRANCH   1  18
TORSDOF 9
ENDMDL
MODEL 8
REMARK VINA RESULT:    -6.704      3.861      5.835
REMARK INTER + INTRA:         -11.225
REMARK INTER:                  -9.803
REMARK INTRA:                  -1.422
REMARK UNBOUND:                -0.993
REMARK  Name = 
REMARK  10 active torsions:
REMARK  status: ('A' for Active; 'I' for Inactive)
REMARK    1  A    between atoms: C_2  and  C_3
REMARK    2  A    between atoms: C_3  and  N_4
REMARK    3  A    between atoms: C_3  and  C_22
REMARK    4  A    between atoms: N_4  and  C_5
REMARK    5  A    between atoms: C_5  and  C_6
REMARK    6  A    between atoms: C_9  and  C_10
REMARK    7  A    between atoms: C_10  and  N_11
REMARK    8  A    between atoms: N_11  and  C_12
REMARK    9  A    between atoms: N_11  and  C_13
REMARK   10  A    between atoms: C_13  and  C_14
REMARK                            x       y       z     vdW  Elec       q    Type
REMARK                         _______ _______ _______ _____ _____    ______ ____
ROOT
ATOM      1  C   UNL     1      48.914   6.999  14.708  0.00  0.00    +0.000 C 
ENDROOT
BRANCH   1   2
ATOM      2  C   UNL     1      47.676   6.661  13.921  0.00  0.00    +0.000 A 
ATOM      3  C   UNL     1      46.918   7.677  13.324  0.00  0.00    +0.000 A 
ATOM      4  C   UNL     1      45.786   7.364  12.576  0.00  0.00    +0.000 A 
ATOM      5  C   UNL     1      45.426   6.026  12.358  0.00  0.00    +0.000 A 
ATOM      6  C   UNL     1      46.179   5.012  12.964  0.00  0.00    +0.000 A 
ATOM      7  C   UNL     1      47.290   5.328  13.744  0.00  0.00    +0.000 A 
BRANCH   5   8
ATOM      8  C   UNL     1      44.263   5.673  11.453  0.00  0.00    +0.000 C 
BRANCH   8   9
ATOM      9  N   UNL     1      44.302   4.275  10.975  0.00  0.00    +0.000 NA
ATOM     10  C   UNL     1      43.307   3.440  11.658  0.00  0.00    +0.000 C 
BRANCH   9  11
ATOM     11  C   UNL     1      44.080   4.234   9.512  0.00  0.00    +0.000 C 
BRANCH  11  12
ATOM     12  C   UNL     1      45.173   3.524   8.726  0.00  0.00    +0.000 A 
ATOM     13  C   UNL     1      45.372   2.150   8.860  0.00  0.00    +0.000 A 
ATOM     14  C   UNL     1      46.321   1.525   8.055  0.00  0.00    +0.000 A 
ATOM     15  C   UNL     1      47.071   2.288   7.168  0.00  0.00    +0.000 A 
ATOM     16  C   UNL     1      46.852   3.654   7.135  0.00  0.00    +0.000 A 
ATOM     17  N   UNL     1      45.922   4.285   7.884  0.00  0.00    +0.000 NA
ENDBRANCH  11  12
ENDBRANCH   9  11
ENDBRANCH   8   9
ENDBRANCH   5   8
ENDBRANCH   1   2
BRANCH   1  18
ATOM     18  N   UNL     1      50.051   7.250  13.826  0.00  0.00    +0.000 NA
ATOM     19  H   UNL     1      49.695   7.561  12.923  0.00  0.00    +0.000 HD
BRANCH  18  20
ATOM     20  C   UNL     1      50.950   8.279  14.373  0.00  0.00    +0.000 C 
BRANCH  20  21
ATOM     21  C   UNL     1      50.206   9.599  14.311  0.00  0.00    +0.000 A 
ATOM     22  C   UNL     1      50.061  10.433  15.415  0.00  0.00    +0.000 A 
ATOM     23  S   UNL     1      49.222  11.874  15.081  0.00  0.00    +0.000 S 
ATOM     24  C   UNL     1      49.029  11.451  13.446  0.00  0.00    +0.000 A 
ATOM     25  N   UNL     1      48.400  12.299  12.589  0.00  0.00    +0.000 NA
ATOM     26  C   UNL     1      48.373  11.896  11.364  0.00  0.00    +0.000 A 
ATOM     27  N   UNL     1      48.896  10.706  10.924  0.00  0.00    +0.000 N 
ATOM     28  C   UNL     1      49.420   9.756  11.778  0.00  0.00    +0.000 A 
ATOM     29  O   UNL     1      49.691   8.628  11.379  0.00  0.00    +0.000 OA
ATOM     30  C   UNL     1      49.571  10.210  13.155  0.00  0.00    +0.000 A 
ATOM     31  H   UNL     1      48.790  10.431   9.959  0.00  0.00    +0.000 HD
ENDBRANCH  20  21
BRANCH  20  33
ATOM     32  C   UNL     1      53.216   8.508  12.963  0.00  0.00    +0.000 C 
ATOM     33  C   UNL     1      52.193   8.348  13.560  0.00  0.00    +0.000 C 
ENDBRANCH  20  33
ENDBRANCH  18  20
ENDBRANCH   1  18
TORSDOF 9
ENDMDL
MODEL 9
REMARK VINA RESULT:    -6.603      2.041      3.005
REMARK INTER + INTRA:         -11.070
REMARK INTER:                 -11.087
REMARK INTRA:                   0.017
REMARK UNBOUND:                -0.993
REMARK  Name = 
REMARK  10 active torsions:
REMARK  status: ('A' for Active; 'I' for Inactive)
REMARK    1  A    between atoms: C_2  and  C_3
REMARK    2  A    between atoms: C_3  and  N_4
REMARK    3  A    between atoms: C_3  and  C_22
REMARK    4  A    between atoms: N_4  and  C_5
REMARK    5  A    between atoms: C_5  and  C_6
REMARK    6  A    between atoms: C_9  and  C_10
REMARK    7  A    between atoms: C_10  and  N_11
REMARK    8  A    between atoms: N_11  and  C_12
REMARK    9  A    between atoms: N_11  and  C_13
REMARK   10  A    between atoms: C_13  and  C_14
REMARK                            x       y       z     vdW  Elec       q    Type
REMARK                         _______ _______ _______ _____ _____    ______ ____
ROOT
ATOM      1  C   UNL     1      48.352   6.252  15.121  0.00  0.00    +0.000 C 
ENDROOT
BRANCH   1   2
ATOM      2  C   UNL     1      47.415   5.875  14.005  0.00  0.00    +0.000 A 
ATOM      3  C   UNL     1      47.035   6.826  13.048  0.00  0.00    +0.000 A 
ATOM      4  C   UNL     1      46.186   6.472  12.002  0.00  0.00    +0.000 A 
ATOM      5  C   UNL     1      45.752   5.147  11.857  0.00  0.00    +0.000 A 
ATOM      6  C   UNL     1      46.124   4.199  12.821  0.00  0.00    +0.000 A 
ATOM      7  C   UNL     1      46.942   4.563  13.889  0.00  0.00    +0.000 A 
BRANCH   5   8
ATOM      8  C   UNL     1      44.922   4.729  10.661  0.00  0.00    +0.000 C 
BRANCH   8   9
ATOM      9  N   UNL     1      44.658   3.275  10.615  0.00  0.00    +0.000 NA
ATOM     10  C   UNL     1      43.586   2.889  11.541  0.00  0.00    +0.000 C 
BRANCH   9  11
ATOM     11  C   UNL     1      44.309   2.867   9.236  0.00  0.00    +0.000 C 
BRANCH  11  12
ATOM     12  C   UNL     1      45.498   2.466   8.374  0.00  0.00    +0.000 A 
ATOM     13  C   UNL     1      46.171   3.412   7.602  0.00  0.00    +0.000 A 
ATOM     14  C   UNL     1      47.309   3.022   6.901  0.00  0.00    +0.000 A 
ATOM     15  C   UNL     1      47.723   1.696   6.956  0.00  0.00    +0.000 A 
ATOM     16  C   UNL     1      46.967   0.808   7.701  0.00  0.00    +0.000 A 
ATOM     17  N   UNL     1      45.875   1.160   8.413  0.00  0.00    +0.000 NA
ENDBRANCH  11  12
ENDBRANCH   9  11
ENDBRANCH   8   9
ENDBRANCH   5   8
ENDBRANCH   1   2
BRANCH   1  18
ATOM     18  N   UNL     1      49.580   6.852  14.603  0.00  0.00    +0.000 NA
ATOM     19  H   UNL     1      49.364   7.793  14.275  0.00  0.00    +0.000 HD
BRANCH  18  20
ATOM     20  C   UNL     1      50.628   6.926  15.632  0.00  0.00    +0.000 C 
BRANCH  20  21
ATOM     21  C   UNL     1      49.930   7.015  16.975  0.00  0.00    +0.000 A 
ATOM     22  C   UNL     1      49.400   8.201  17.471  0.00  0.00    +0.000 A 
ATOM     23  S   UNL     1      48.632   8.033  18.979  0.00  0.00    +0.000 S 
ATOM     24  C   UNL     1      48.962   6.366  19.027  0.00  0.00    +0.000 A 
ATOM     25  N   UNL     1      48.532   5.612  20.073  0.00  0.00    +0.000 NA
ATOM     26  C   UNL     1      48.788   4.353  19.964  0.00  0.00    +0.000 A 
ATOM     27  N   UNL     1      49.459   3.782  18.912  0.00  0.00    +0.000 N 
ATOM     28  C   UNL     1      50.031   4.525  17.897  0.00  0.00    +0.000 A 
ATOM     29  O   UNL     1      50.793   4.006  17.086  0.00  0.00    +0.000 OA
ATOM     30  C   UNL     1      49.678   5.939  17.920  0.00  0.00    +0.000 A 
ATOM     31  H   UNL     1      49.671   2.796  18.919  0.00  0.00    +0.000 HD
ENDBRANCH  20  21
BRANCH  20  33
ATOM     32  C   UNL     1      52.070   9.158  15.297  0.00  0.00    +0.000 C 
ATOM     33  C   UNL     1      51.472   8.130  15.408  0.00  0.00    +0.000 C 
ENDBRANCH  20  33
ENDBRANCH  18  20
ENDBRANCH   1  18
TORSDOF 9
ENDMDL
