MODEL 1
REMARK VINA RESULT:    -8.510      0.000      0.000
REMARK INTER + INTRA:         -12.637
REMARK INTER:                 -11.495
REMARK INTRA:                  -1.143
REMARK UNBOUND:                -1.143
REMARK  Name = 
REMARK  7 active torsions:
REMARK  status: ('A' for Active; 'I' for Inactive)
REMARK    1  A    between atoms: C_1  and  N_2
REMARK    2  A    between atoms: N_2  and  C_3
REMARK    3  A    between atoms: C_3  and  C_4
REMARK    4  A    between atoms: C_7  and  C_8
REMARK    5  A    between atoms: C_8  and  N_9
REMARK    6  A    between atoms: C_10  and  C_12
REMARK    7  A    between atoms: C_24  and  C_26
REMARK                            x       y       z     vdW  Elec       q    Type
REMARK                         _______ _______ _______ _____ _____    ______ ____
ROOT
ATOM      1  C   UNL     1      46.666   4.689  13.487  0.00  0.00    +0.000 A 
ATOM      2  C   UNL     1      46.821   4.236  14.808  0.00  0.00    +0.000 A 
ATOM      3  C   UNL     1      47.659   4.910  15.696  0.00  0.00    +0.000 A 
ATOM      4  C   UNL     1      48.342   6.059  15.285  0.00  0.00    +0.000 A 
ATOM      5  C   UNL     1      48.191   6.508  13.965  0.00  0.00    +0.000 A 
ATOM      6  C   UNL     1      47.353   5.835  13.075  0.00  0.00    +0.000 A 
ENDROOT
BRANCH   1   7
ATOM      7  C   UNL     1      45.795   3.921  12.527  0.00  0.00    +0.000 C 
BRANCH   7   9
ATOM      8  C   UNL     1      43.700   5.311  12.875  0.00  0.00    +0.000 C 
ATOM      9  N   UNL     1      44.593   4.563  11.994  0.00  0.00    +0.000 N 
ATOM     10  C   UNL     1      44.180   4.487  10.649  0.00  0.00    +0.000 C 
ATOM     11  O   UNL     1      43.167   5.075  10.263  0.00  0.00    +0.000 OA
BRANCH  10  12
ATOM     12  C   UNL     1      44.956   3.746   9.603  0.00  0.00    +0.000 A 
ATOM     13  C   UNL     1      44.972   2.355   9.455  0.00  0.00    +0.000 A 
ATOM     14  C   UNL     1      45.748   1.743   8.467  0.00  0.00    +0.000 A 
ATOM     15  C   UNL     1      46.455   2.521   7.555  0.00  0.00    +0.000 A 
ATOM     16  C   UNL     1      46.383   3.909   7.629  0.00  0.00    +0.000 A 
ATOM     17  C   UNL     1      45.646   4.516   8.652  0.00  0.00    +0.000 A 
ENDBRANCH  10  12
ENDBRANCH   7   9
ENDBRANCH   1   7
BRANCH   4  18
ATOM     18  C   UNL     1      49.279   6.771  16.223  0.00  0.00    +0.000 C 
BRANCH  18  19
ATOM     19  N   UNL     1      50.324   5.884  16.665  0.00  0.00    +0.000 N 
ATOM     20  C   UNL     1      50.431   5.520  17.981  0.00  0.00    +0.000 C 
ATOM     21  O   UNL     1      49.626   5.900  18.827  0.00  0.00    +0.000 OA
ATOM     22  H   UNL     1      51.108   5.737  16.036  0.00  0.00    +0.000 HD
BRANCH  20  23
ATOM     23  C   UNL     1      51.520   4.598  18.320  0.00  0.00    +0.000 A 
ATOM     24  C   UNL     1      52.606   5.063  19.049  0.00  0.00    +0.000 A 
ATOM     25  S   UNL     1      53.760   3.860  19.404  0.00  0.00    +0.000 S 
ATOM     26  C   UNL     1      52.875   2.684  18.551  0.00  0.00    +0.000 A 
ATOM     27  N   UNL     1      53.336   1.409  18.441  0.00  0.00    +0.000 NA
ATOM     28  C   UNL     1      52.584   0.629  17.739  0.00  0.00    +0.000 A 
ATOM     29  N   UNL     1      51.408   1.006  17.144  0.00  0.00    +0.000 N 
ATOM     30  C   UNL     1      50.888   2.276  17.254  0.00  0.00    +0.000 A 
ATOM     31  O   UNL     1      49.810   2.566  16.745  0.00  0.00    +0.000 OA
ATOM     32  C   UNL     1      51.704   3.195  18.020  0.00  0.00    +0.000 A 
ATOM     33  H   UNL     1      50.862   0.342  16.616  0.00  0.00    +0.000 HD
ENDBRANCH  20  23
ENDBRANCH  18  19
ENDBRANCH   4  18
TORSDOF 6
ENDMDL
MODEL 2
REMARK VINA RESULT:    -7.998      2.736      3.470
REMARK INTER + INTRA:         -11.947
REMARK INTER:                 -11.294
REMARK INTRA:                  -0.653
REMARK UNBOUND:                -1.143
REMARK  Name = 
REMARK  7 active torsions:
REMARK  status: ('A' for Active; 'I' for Inactive)
REMARK    1  A    between atoms: C_1  and  N_2
REMARK    2  A    between atoms: N_2  and  C_3
REMARK    3  A    between atoms: C_3  and  C_4
REMARK    4  A    between atoms: C_7  and  C_8
REMARK    5  A    between atoms: C_8  and  N_9
REMARK    6  A    between atoms: C_10  and  C_12
REMARK    7  A    between atoms: C_24  and  C_26
REMARK                            x       y       z     vdW  Elec       q    Type
REMARK                         _______ _______ _______ _____ _____    ______ ____
ROOT
ATOM      1  C   UNL     1      45.412   6.227  10.999  0.00  0.00    +0.000 A 
ATOM      2  C   UNL     1      46.627   5.813  11.569  0.00  0.00    +0.000 A 
ATOM      3  C   UNL     1      47.274   6.605  12.516  0.00  0.00    +0.000 A 
ATOM      4  C   UNL     1      46.710   7.819  12.924  0.00  0.00    +0.000 A 
ATOM      5  C   UNL     1      45.499   8.234  12.351  0.00  0.00    +0.000 A 
ATOM      6  C   UNL     1      44.850   7.443  11.403  0.00  0.00    +0.000 A 
ENDROOT
BRANCH   1   7
ATOM      7  C   UNL     1      44.750   5.382   9.943  0.00  0.00    +0.000 C 
BRANCH   7   9
ATOM      8  C   UNL     1      43.203   4.050  11.451  0.00  0.00    +0.000 C 
ATOM      9  N   UNL     1      44.141   4.109  10.333  0.00  0.00    +0.000 N 
ATOM     10  C   UNL     1      44.420   2.872   9.721  0.00  0.00    +0.000 C 
ATOM     11  O   UNL     1      43.849   1.841  10.085  0.00  0.00    +0.000 OA
BRANCH  10  12
ATOM     12  C   UNL     1      45.373   2.732   8.572  0.00  0.00    +0.000 A 
ATOM     13  C   UNL     1      45.714   3.759   7.686  0.00  0.00    +0.000 A 
ATOM     14  C   UNL     1      46.592   3.532   6.622  0.00  0.00    +0.000 A 
ATOM     15  C   UNL     1      47.208   2.293   6.478  0.00  0.00    +0.000 A 
ATOM     16  C   UNL     1      46.949   1.283   7.401  0.00  0.00    +0.000 A 
ATOM     17  C   UNL     1      46.032   1.499   8.434  0.00  0.00    +0.000 A 
ENDBRANCH  10  12
ENDBRANCH   7   9
ENDBRANCH   1   7
BRANCH   4  18
ATOM     18  C   UNL     1      47.420   8.700  13.916  0.00  0.00    +0.000 C 
BRANCH  18  19
ATOM     19  N   UNL     1      47.768   7.953  15.098  0.00  0.00    +0.000 N 
ATOM     20  C   UNL     1      49.057   7.553  15.324  0.00  0.00    +0.000 C 
ATOM     21  O   UNL     1      49.972   7.842  14.557  0.00  0.00    +0.000 OA
ATOM     22  H   UNL     1      47.008   7.527  15.620  0.00  0.00    +0.000 HD
BRANCH  20  23
ATOM     23  C   UNL     1      49.306   6.814  16.567  0.00  0.00    +0.000 A 
ATOM     24  C   UNL     1      50.122   7.371  17.541  0.00  0.00    +0.000 A 
ATOM     25  S   UNL     1      50.272   6.413  18.942  0.00  0.00    +0.000 S 
ATOM     26  C   UNL     1      49.292   5.192  18.276  0.00  0.00    +0.000 A 
ATOM     27  N   UNL     1      49.035   4.050  18.968  0.00  0.00    +0.000 NA
ATOM     28  C   UNL     1      48.307   3.194  18.333  0.00  0.00    +0.000 A 
ATOM     29  N   UNL     1      47.805   3.380  17.071  0.00  0.00    +0.000 N 
ATOM     30  C   UNL     1      48.013   4.533  16.346  0.00  0.00    +0.000 A 
ATOM     31  O   UNL     1      47.510   4.682  15.237  0.00  0.00    +0.000 OA
ATOM     32  C   UNL     1      48.839   5.519  17.011  0.00  0.00    +0.000 A 
ATOM     33  H   UNL     1      47.232   2.673  16.635  0.00  0.00    +0.000 HD
ENDBRANCH  20  23
ENDBRANCH  18  19
ENDBRANCH   4  18
TORSDOF 6
ENDMDL
MODEL 3
REMARK VINA RESULT:    -7.841      3.138      4.258
REMARK INTER + INTRA:         -11.733
REMARK INTER:                 -11.154
REMARK INTRA:                  -0.580
REMARK UNBOUND:                -1.143
REMARK  Name = 
REMARK  7 active torsions:
REMARK  status: ('A' for Active; 'I' for Inactive)
REMARK    1  A    between atoms: C_1  and  N_2
REMARK    2  A    between atoms: N_2  and  C_3
REMARK    3  A    between atoms: C_3  and  C_4
REMARK    4  A    between atoms: C_7  and  C_8
REMARK    5  A    between atoms: C_8  and  N_9
REMARK    6  A    between atoms: C_10  and  C_12
REMARK    7  A    between atoms: C_24  and  C_26
REMARK                            x       y       z     vdW  Elec       q    Type
REMARK                         _______ _______ _______ _____ _____    ______ ____
ROOT
ATOM      1  C   UNL     1      45.577   6.651  11.635  0.00  0.00    +0.000 A 
ATOM      2  C   UNL     1      45.401   7.965  12.097  0.00  0.00    +0.000 A 
ATOM      3  C   UNL     1      46.293   8.522  13.012  0.00  0.00    +0.000 A 
ATOM      4  C   UNL     1      47.388   7.781  13.469  0.00  0.00    +0.000 A 
ATOM      5  C   UNL     1      47.561   6.467  13.011  0.00  0.00    +0.000 A 
ATOM      6  C   UNL     1      46.669   5.908  12.095  0.00  0.00    +0.000 A 
ENDROOT
BRANCH   1   7
ATOM      7  C   UNL     1      44.577   6.049  10.683  0.00  0.00    +0.000 C 
BRANCH   7   9
ATOM      8  C   UNL     1      42.894   4.928  12.218  0.00  0.00    +0.000 C 
ATOM      9  N   UNL     1      43.830   4.861  11.098  0.00  0.00    +0.000 N 
ATOM     10  C   UNL     1      43.967   3.589  10.510  0.00  0.00    +0.000 C 
ATOM     11  O   UNL     1      43.286   2.635  10.894  0.00  0.00    +0.000 OA
BRANCH  10  12
ATOM     12  C   UNL     1      44.895   3.320   9.363  0.00  0.00    +0.000 A 
ATOM     13  C   UNL     1      45.468   4.305   8.551  0.00  0.00    +0.000 A 
ATOM     14  C   UNL     1      46.302   3.964   7.483  0.00  0.00    +0.000 A 
ATOM     15  C   UNL     1      46.644   2.633   7.262  0.00  0.00    +0.000 A 
ATOM     16  C   UNL     1      46.155   1.645   8.113  0.00  0.00    +0.000 A 
ATOM     17  C   UNL     1      45.280   1.986   9.149  0.00  0.00    +0.000 A 
ENDBRANCH  10  12
ENDBRANCH   7   9
ENDBRANCH   1   7
BRANCH   4  18
ATOM     18  C   UNL     1      48.335   8.358  14.486  0.00  0.00    +0.000 C 
BRANCH  18  19
ATOM     19  N   UNL     1      48.173   7.701  15.758  0.00  0.00    +0.000 N 
ATOM     20  C   UNL     1      49.099   6.799  16.208  0.00  0.00    +0.000 C 
ATOM     21  O   UNL     1      50.117   6.540  15.572  0.00  0.00    +0.000 OA
ATOM     22  H   UNL     1      47.253   7.737  16.187  0.00  0.00    +0.000 HD
BRANCH  20  23
ATOM     23  C   UNL     1      48.847   6.201  17.524  0.00  0.00    +0.000 A 
ATOM     24  C   UNL     1      49.081   4.846  17.715  0.00  0.00    +0.000 A 
ATOM     25  S   UNL     1      48.787   4.317  19.308  0.00  0.00    +0.000 S 
ATOM     26  C   UNL     1      48.287   5.869  19.788  0.00  0.00    +0.000 A 
ATOM     27  N   UNL     1      47.867   6.103  21.061  0.00  0.00    +0.000 NA
ATOM     28  C   UNL     1      47.483   7.316  21.281  0.00  0.00    +0.000 A 
ATOM     29  N   UNL     1      47.489   8.319  20.347  0.00  0.00    +0.000 N 
ATOM     30  C   UNL     1      47.935   8.136  19.057  0.00  0.00    +0.000 A 
ATOM     31  O   UNL     1      47.968   9.068  18.260  0.00  0.00    +0.000 OA
ATOM     32  C   UNL     1      48.362   6.785  18.755  0.00  0.00    +0.000 A 
ATOM     33  H   UNL     1      47.185   9.250  20.589  0.00  0.00    +0.000 HD
ENDBRANCH  20  23
ENDBRANCH  18  19
ENDBRANCH   4  18
TORSDOF 6
ENDMDL
MODEL 4
REMARK VINA RESULT:    -7.796      3.709      8.856
REMARK INTER + INTRA:         -11.673
REMARK INTER:                  -9.871
REMARK INTRA:                  -1.802
REMARK UNBOUND:                -1.143
REMARK  Name = 
REMARK  7 active torsions:
REMARK  status: ('A' for Active; 'I' for Inactive)
REMARK    1  A    between atoms: C_1  and  N_2
REMARK    2  A    between atoms: N_2  and  C_3
REMARK    3  A    between atoms: C_3  and  C_4
REMARK    4  A    between atoms: C_7  and  C_8
REMARK    5  A    between atoms: C_8  and  N_9
REMARK    6  A    between atoms: C_10  and  C_12
REMARK    7  A    between atoms: C_24  and  C_26
REMARK                            x       y       z     vdW  Elec       q    Type
REMARK                         _______ _______ _______ _____ _____    ______ ____
ROOT
ATOM      1  C   UNL     1      48.916   7.805  16.219  0.00  0.00    +0.000 A 
ATOM      2  C   UNL     1      49.130   6.698  15.382  0.00  0.00    +0.000 A 
ATOM      3  C   UNL     1      48.679   6.706  14.063  0.00  0.00    +0.000 A 
ATOM      4  C   UNL     1      48.020   7.829  13.551  0.00  0.00    +0.000 A 
ATOM      5  C   UNL     1      47.802   8.932  14.389  0.00  0.00    +0.000 A 
ATOM      6  C   UNL     1      48.253   8.925  15.709  0.00  0.00    +0.000 A 
ENDROOT
BRANCH   1   7
ATOM      7  C   UNL     1      49.368   7.760  17.655  0.00  0.00    +0.000 C 
BRANCH   7   9
ATOM      8  C   UNL     1      47.860   8.597  19.517  0.00  0.00    +0.000 C 
ATOM      9  N   UNL     1      48.378   7.501  18.702  0.00  0.00    +0.000 N 
ATOM     10  C   UNL     1      47.886   6.225  19.035  0.00  0.00    +0.000 C 
ATOM     11  O   UNL     1      47.032   6.083  19.914  0.00  0.00    +0.000 OA
BRANCH  10  12
ATOM     12  C   UNL     1      48.318   4.978  18.324  0.00  0.00    +0.000 A 
ATOM     13  C   UNL     1      49.570   4.370  18.465  0.00  0.00    +0.000 A 
ATOM     14  C   UNL     1      49.900   3.221  17.740  0.00  0.00    +0.000 A 
ATOM     15  C   UNL     1      48.949   2.614  16.925  0.00  0.00    +0.000 A 
ATOM     16  C   UNL     1      47.669   3.153  16.838  0.00  0.00    +0.000 A 
ATOM     17  C   UNL     1      47.359   4.331  17.526  0.00  0.00    +0.000 A 
ENDBRANCH  10  12
ENDBRANCH   7   9
ENDBRANCH   1   7
BRANCH   4  18
ATOM     18  C   UNL     1      47.494   7.833  12.141  0.00  0.00    +0.000 C 
BRANCH  18  19
ATOM     19  N   UNL     1      46.834   6.588  11.844  0.00  0.00    +0.000 N 
ATOM     20  C   UNL     1      45.492   6.431  12.065  0.00  0.00    +0.000 C 
ATOM     21  O   UNL     1      44.792   7.347  12.486  0.00  0.00    +0.000 OA
ATOM     22  H   UNL     1      47.421   5.771  11.704  0.00  0.00    +0.000 HD
BRANCH  20  23
ATOM     23  C   UNL     1      44.917   5.128  11.710  0.00  0.00    +0.000 A 
ATOM     24  C   UNL     1      44.223   4.405  12.670  0.00  0.00    +0.000 A 
ATOM     25  S   UNL     1      43.576   2.939  12.090  0.00  0.00    +0.000 S 
ATOM     26  C   UNL     1      44.243   3.194  10.546  0.00  0.00    +0.000 A 
ATOM     27  N   UNL     1      44.080   2.276   9.556  0.00  0.00    +0.000 NA
ATOM     28  C   UNL     1      44.666   2.578   8.447  0.00  0.00    +0.000 A 
ATOM     29  N   UNL     1      45.394   3.720   8.234  0.00  0.00    +0.000 N 
ATOM     30  C   UNL     1      45.560   4.691   9.197  0.00  0.00    +0.000 A 
ATOM     31  O   UNL     1      46.181   5.721   8.956  0.00  0.00    +0.000 OA
ATOM     32  C   UNL     1      44.933   4.391  10.467  0.00  0.00    +0.000 A 
ATOM     33  H   UNL     1      45.819   3.900   7.337  0.00  0.00    +0.000 HD
ENDBRANCH  20  23
ENDBRANCH  18  19
ENDBRANCH   4  18
TORSDOF 6
ENDMDL
MODEL 5
REMARK VINA RESULT:    -7.553      3.764      8.827
REMARK INTER + INTRA:         -11.345
REMARK INTER:                  -9.180
REMARK INTRA:                  -2.164
REMARK UNBOUND:                -1.143
REMARK  Name = 
REMARK  7 active torsions:
REMARK  status: ('A' for Active; 'I' for Inactive)
REMARK    1  A    between atoms: C_1  and  N_2
REMARK    2  A    between atoms: N_2  and  C_3
REMARK    3  A    between atoms: C_3  and  C_4
REMARK    4  A    between atoms: C_7  and  C_8
REMARK    5  A    between atoms: C_8  and  N_9
REMARK    6  A    between atoms: C_10  and  C_12
REMARK    7  A    between atoms: C_24  and  C_26
REMARK                            x       y       z     vdW  Elec       q    Type
REMARK                         _______ _______ _______ _____ _____    ______ ____
ROOT
ATOM      1  C   UNL     1      50.376   6.709  18.270  0.00  0.00    +0.000 A 
ATOM      2  C   UNL     1      50.799   6.273  17.003  0.00  0.00    +0.000 A 
ATOM      3  C   UNL     1      50.224   6.792  15.844  0.00  0.00    +0.000 A 
ATOM      4  C   UNL     1      49.227   7.770  15.930  0.00  0.00    +0.000 A 
ATOM      5  C   UNL     1      48.802   8.201  17.194  0.00  0.00    +0.000 A 
ATOM      6  C   UNL     1      49.376   7.683  18.355  0.00  0.00    +0.000 A 
ENDROOT
BRANCH   1   7
ATOM      7  C   UNL     1      50.975   6.103  19.512  0.00  0.00    +0.000 C 
BRANCH   7   9
ATOM      8  C   UNL     1      50.257   5.999  21.944  0.00  0.00    +0.000 C 
ATOM      9  N   UNL     1      50.082   5.591  20.552  0.00  0.00    +0.000 N 
ATOM     10  C   UNL     1      49.044   4.667  20.326  0.00  0.00    +0.000 C 
ATOM     11  O   UNL     1      48.312   4.297  21.247  0.00  0.00    +0.000 OA
BRANCH  10  12
ATOM     12  C   UNL     1      48.727   4.118  18.967  0.00  0.00    +0.000 A 
ATOM     13  C   UNL     1      49.445   3.102  18.328  0.00  0.00    +0.000 A 
ATOM     14  C   UNL     1      49.097   2.669  17.046  0.00  0.00    +0.000 A 
ATOM     15  C   UNL     1      47.970   3.190  16.416  0.00  0.00    +0.000 A 
ATOM     16  C   UNL     1      47.191   4.140  17.070  0.00  0.00    +0.000 A 
ATOM     17  C   UNL     1      47.573   4.607  18.333  0.00  0.00    +0.000 A 
ENDBRANCH  10  12
ENDBRANCH   7   9
ENDBRANCH   1   7
BRANCH   4  18
ATOM     18  C   UNL     1      48.572   8.308  14.687  0.00  0.00    +0.000 C 
BRANCH  18  19
ATOM     19  N   UNL     1      47.503   7.441  14.262  0.00  0.00    +0.000 N 
ATOM     20  C   UNL     1      47.710   6.485  13.304  0.00  0.00    +0.000 C 
ATOM     21  O   UNL     1      48.812   6.300  12.797  0.00  0.00    +0.000 OA
ATOM     22  H   UNL     1      46.556   7.715  14.505  0.00  0.00    +0.000 HD
BRANCH  20  23
ATOM     23  C   UNL     1      46.559   5.643  12.958  0.00  0.00    +0.000 A 
ATOM     24  C   UNL     1      46.615   4.277  13.198  0.00  0.00    +0.000 A 
ATOM     25  S   UNL     1      45.183   3.448  12.788  0.00  0.00    +0.000 S 
ATOM     26  C   UNL     1      44.454   4.879  12.227  0.00  0.00    +0.000 A 
ATOM     27  N   UNL     1      43.197   4.862  11.705  0.00  0.00    +0.000 NA
ATOM     28  C   UNL     1      42.778   6.008  11.287  0.00  0.00    +0.000 A 
ATOM     29  N   UNL     1      43.497   7.174  11.351  0.00  0.00    +0.000 N 
ATOM     30  C   UNL     1      44.759   7.244  11.900  0.00  0.00    +0.000 A 
ATOM     31  O   UNL     1      45.355   8.313  11.981  0.00  0.00    +0.000 OA
ATOM     32  C   UNL     1      45.281   5.978  12.370  0.00  0.00    +0.000 A 
ATOM     33  H   UNL     1      43.105   8.040  11.015  0.00  0.00    +0.000 HD
ENDBRANCH  20  23
ENDBRANCH  18  19
ENDBRANCH   4  18
TORSDOF 6
ENDMDL
MODEL 6
REMARK VINA RESULT:    -7.483      3.317      4.995
REMARK INTER + INTRA:         -11.251
REMARK INTER:                 -10.172
REMARK INTRA:                  -1.079
REMARK UNBOUND:                -1.143
REMARK  Name = 
REMARK  7 active torsions:
REMARK  status: ('A' for Active; 'I' for Inactive)
REMARK    1  A    between atoms: C_1  and  N_2
REMARK    2  A    between atoms: N_2  and  C_3
REMARK    3  A    between atoms: C_3  and  C_4
REMARK    4  A    between atoms: C_7  and  C_8
REMARK    5  A    between atoms: C_8  and  N_9
REMARK    6  A    between atoms: C_10  and  C_12
REMARK    7  A    between atoms: C_24  and  C_26
REMARK                            x       y       z     vdW  Elec       q    Type
REMARK                         _______ _______ _______ _____ _____    ______ ____
ROOT
ATOM      1  C   UNL     1      46.438   4.594  13.370  0.00  0.00    +0.000 A 
ATOM      2  C   UNL     1      46.932   5.801  12.848  0.00  0.00    +0.000 A 
ATOM      3  C   UNL     1      47.775   6.611  13.607  0.00  0.00    +0.000 A 
ATOM      4  C   UNL     1      48.155   6.220  14.896  0.00  0.00    +0.000 A 
ATOM      5  C   UNL     1      47.659   5.017  15.418  0.00  0.00    +0.000 A 
ATOM      6  C   UNL     1      46.814   4.205  14.659  0.00  0.00    +0.000 A 
ENDROOT
BRANCH   1   7
ATOM      7  C   UNL     1      45.490   3.755  12.554  0.00  0.00    +0.000 C 
BRANCH   7   9
ATOM      8  C   UNL     1      43.295   4.970  12.936  0.00  0.00    +0.000 C 
ATOM      9  N   UNL     1      44.271   4.371  12.029  0.00  0.00    +0.000 N 
ATOM     10  C   UNL     1      43.920   4.406  10.666  0.00  0.00    +0.000 C 
ATOM     11  O   UNL     1      42.886   4.966  10.291  0.00  0.00    +0.000 OA
BRANCH  10  12
ATOM     12  C   UNL     1      44.786   3.823   9.589  0.00  0.00    +0.000 A 
ATOM     13  C   UNL     1      45.582   4.569   8.713  0.00  0.00    +0.000 A 
ATOM     14  C   UNL     1      46.338   3.943   7.718  0.00  0.00    +0.000 A 
ATOM     15  C   UNL     1      46.375   2.555   7.638  0.00  0.00    +0.000 A 
ATOM     16  C   UNL     1      45.659   1.792   8.556  0.00  0.00    +0.000 A 
ATOM     17  C   UNL     1      44.863   2.422   9.519  0.00  0.00    +0.000 A 
ENDBRANCH  10  12
ENDBRANCH   7   9
ENDBRANCH   1   7
BRANCH   4  18
ATOM     18  C   UNL     1      49.033   7.105  15.738  0.00  0.00    +0.000 C 
BRANCH  18  19
ATOM     19  N   UNL     1      48.462   7.283  17.049  0.00  0.00    +0.000 N 
ATOM     20  C   UNL     1      49.187   7.005  18.177  0.00  0.00    +0.000 C 
ATOM     21  O   UNL     1      50.355   6.631  18.123  0.00  0.00    +0.000 OA
ATOM     22  H   UNL     1      47.453   7.380  17.109  0.00  0.00    +0.000 HD
BRANCH  20  23
ATOM     23  C   UNL     1      48.517   7.238  19.461  0.00  0.00    +0.000 A 
ATOM     24  C   UNL     1      48.551   6.252  20.438  0.00  0.00    +0.000 A 
ATOM     25  S   UNL     1      47.771   6.695  21.887  0.00  0.00    +0.000 S 
ATOM     26  C   UNL     1      47.314   8.201  21.243  0.00  0.00    +0.000 A 
ATOM     27  N   UNL     1      46.579   9.079  21.978  0.00  0.00    +0.000 NA
ATOM     28  C   UNL     1      46.273  10.169  21.357  0.00  0.00    +0.000 A 
ATOM     29  N   UNL     1      46.642  10.465  20.070  0.00  0.00    +0.000 N 
ATOM     30  C   UNL     1      47.411   9.620  19.301  0.00  0.00    +0.000 A 
ATOM     31  O   UNL     1      47.759   9.938  18.168  0.00  0.00    +0.000 OA
ATOM     32  C   UNL     1      47.768   8.375  19.948  0.00  0.00    +0.000 A 
ATOM     33  H   UNL     1      46.377  11.341  19.648  0.00  0.00    +0.000 HD
ENDBRANCH  20  23
ENDBRANCH  18  19
ENDBRANCH   4  18
TORSDOF 6
ENDMDL
MODEL 7
REMARK VINA RESULT:    -7.396      2.810      3.153
REMARK INTER + INTRA:         -11.133
REMARK INTER:                  -9.860
REMARK INTRA:                  -1.273
REMARK UNBOUND:                -1.143
REMARK  Name = 
REMARK  7 active torsions:
REMARK  status: ('A' for Active; 'I' for Inactive)
REMARK    1  A    between atoms: C_1  and  N_2
REMARK    2  A    between atoms: N_2  and  C_3
REMARK    3  A    between atoms: C_3  and  C_4
REMARK    4  A    between atoms: C_7  and  C_8
REMARK    5  A    between atoms: C_8  and  N_9
REMARK    6  A    between atoms: C_10  and  C_12
REMARK    7  A    between atoms: C_24  and  C_26
REMARK                            x       y       z     vdW  Elec       q    Type
REMARK                         _______ _______ _______ _____ _____    ______ ____
ROOT
ATOM      1  C   UNL     1      46.411   4.649  13.314  0.00  0.00    +0.000 A 
ATOM      2  C   UNL     1      46.931   5.772  12.649  0.00  0.00    +0.000 A 
ATOM      3  C   UNL     1      47.848   6.610  13.281  0.00  0.00    +0.000 A 
ATOM      4  C   UNL     1      48.277   6.331  14.583  0.00  0.00    +0.000 A 
ATOM      5  C   UNL     1      47.754   5.212  15.248  0.00  0.00    +0.000 A 
ATOM      6  C   UNL     1      46.836   4.372  14.617  0.00  0.00    +0.000 A 
ENDROOT
BRANCH   1   7
ATOM      7  C   UNL     1      45.385   3.781  12.633  0.00  0.00    +0.000 C 
BRANCH   7   9
ATOM      8  C   UNL     1      43.233   5.103  12.889  0.00  0.00    +0.000 C 
ATOM      9  N   UNL     1      44.203   4.412  12.043  0.00  0.00    +0.000 N 
ATOM     10  C   UNL     1      43.883   4.377  10.673  0.00  0.00    +0.000 C 
ATOM     11  O   UNL     1      42.881   4.953  10.240  0.00  0.00    +0.000 OA
BRANCH  10  12
ATOM     12  C   UNL     1      44.747   3.695   9.654  0.00  0.00    +0.000 A 
ATOM     13  C   UNL     1      44.831   2.310   9.476  0.00  0.00    +0.000 A 
ATOM     14  C   UNL     1      45.686   1.758   8.519  0.00  0.00    +0.000 A 
ATOM     15  C   UNL     1      46.408   2.587   7.665  0.00  0.00    +0.000 A 
ATOM     16  C   UNL     1      46.271   3.969   7.768  0.00  0.00    +0.000 A 
ATOM     17  C   UNL     1      45.453   4.518   8.761  0.00  0.00    +0.000 A 
ENDBRANCH  10  12
ENDBRANCH   7   9
ENDBRANCH   1   7
BRANCH   4  18
ATOM     18  C   UNL     1      49.236   7.250  15.289  0.00  0.00    +0.000 C 
BRANCH  18  19
ATOM     19  N   UNL     1      49.530   6.757  16.611  0.00  0.00    +0.000 N 
ATOM     20  C   UNL     1      50.105   7.567  17.553  0.00  0.00    +0.000 C 
ATOM     21  O   UNL     1      50.358   8.747  17.329  0.00  0.00    +0.000 OA
ATOM     22  H   UNL     1      49.530   5.750  16.743  0.00  0.00    +0.000 HD
BRANCH  20  23
ATOM     23  C   UNL     1      50.346   6.970  18.872  0.00  0.00    +0.000 A 
ATOM     24  C   UNL     1      51.630   6.972  19.398  0.00  0.00    +0.000 A 
ATOM     25  S   UNL     1      51.735   6.287  20.955  0.00  0.00    +0.000 S 
ATOM     26  C   UNL     1      50.075   5.915  20.961  0.00  0.00    +0.000 A 
ATOM     27  N   UNL     1      49.508   5.278  22.021  0.00  0.00    +0.000 NA
ATOM     28  C   UNL     1      48.250   5.027  21.881  0.00  0.00    +0.000 A 
ATOM     29  N   UNL     1      47.504   5.362  20.780  0.00  0.00    +0.000 N 
ATOM     30  C   UNL     1      48.029   6.035  19.699  0.00  0.00    +0.000 A 
ATOM     31  O   UNL     1      47.321   6.358  18.750  0.00  0.00    +0.000 OA
ATOM     32  C   UNL     1      49.444   6.327  19.801  0.00  0.00    +0.000 A 
ATOM     33  H   UNL     1      46.520   5.145  20.739  0.00  0.00    +0.000 HD
ENDBRANCH  20  23
ENDBRANCH  18  19
ENDBRANCH   4  18
TORSDOF 6
ENDMDL
MODEL 8
REMARK VINA RESULT:    -7.090      4.118      8.441
REMARK INTER + INTRA:         -10.720
REMARK INTER:                  -8.591
REMARK INTRA:                  -2.129
REMARK UNBOUND:                -1.143
REMARK  Name = 
REMARK  7 active torsions:
REMARK  status: ('A' for Active; 'I' for Inactive)
REMARK    1  A    between atoms: C_1  and  N_2
REMARK    2  A    between atoms: N_2  and  C_3
REMARK    3  A    between atoms: C_3  and  C_4
REMARK    4  A    between atoms: C_7  and  C_8
REMARK    5  A    between atoms: C_8  and  N_9
REMARK    6  A    between atoms: C_10  and  C_12
REMARK    7  A    between atoms: C_24  and  C_26
REMARK                            x       y       z     vdW  Elec       q    Type
REMARK                         _______ _______ _______ _____ _____    ______ ____
ROOT
ATOM      1  C   UNL     1      49.747   7.740  17.075  0.00  0.00    +0.000 A 
ATOM      2  C   UNL     1      50.191   6.940  16.009  0.00  0.00    +0.000 A 
ATOM      3  C   UNL     1      49.808   7.225  14.699  0.00  0.00    +0.000 A 
ATOM      4  C   UNL     1      48.989   8.326  14.429  0.00  0.00    +0.000 A 
ATOM      5  C   UNL     1      48.542   9.122  15.494  0.00  0.00    +0.000 A 
ATOM      6  C   UNL     1      48.924   8.838  16.805  0.00  0.00    +0.000 A 
ENDROOT
BRANCH   1   7
ATOM      7  C   UNL     1      50.132   7.389  18.488  0.00  0.00    +0.000 C 
BRANCH   7   9
ATOM      8  C   UNL     1      48.850   8.214  20.518  0.00  0.00    +0.000 C 
ATOM      9  N   UNL     1      49.076   7.206  19.485  0.00  0.00    +0.000 N 
ATOM     10  C   UNL     1      48.244   6.073  19.564  0.00  0.00    +0.000 C 
ATOM     11  O   UNL     1      47.356   5.996  20.418  0.00  0.00    +0.000 OA
BRANCH  10  12
ATOM     12  C   UNL     1      48.342   4.925  18.605  0.00  0.00    +0.000 A 
ATOM     13  C   UNL     1      49.401   4.012  18.557  0.00  0.00    +0.000 A 
ATOM     14  C   UNL     1      49.425   2.985  17.608  0.00  0.00    +0.000 A 
ATOM     15  C   UNL     1      48.346   2.806  16.747  0.00  0.00    +0.000 A 
ATOM     16  C   UNL     1      47.243   3.650  16.838  0.00  0.00    +0.000 A 
ATOM     17  C   UNL     1      47.246   4.707  17.754  0.00  0.00    +0.000 A 
ENDBRANCH  10  12
ENDBRANCH   7   9
ENDBRANCH   1   7
BRANCH   4  18
ATOM     18  C   UNL     1      48.537   8.620  13.024  0.00  0.00    +0.000 C 
BRANCH  18  19
ATOM     19  N   UNL     1      47.560   7.653  12.594  0.00  0.00    +0.000 N 
ATOM     20  C   UNL     1      46.222   7.872  12.783  0.00  0.00    +0.000 C 
ATOM     21  O   UNL     1      45.797   8.908  13.287  0.00  0.00    +0.000 OA
ATOM     22  H   UNL     1      47.893   6.718  12.378  0.00  0.00    +0.000 HD
BRANCH  20  23
ATOM     23  C   UNL     1      45.311   6.832  12.291  0.00  0.00    +0.000 A 
ATOM     24  C   UNL     1      44.166   7.198  11.597  0.00  0.00    +0.000 A 
ATOM     25  S   UNL     1      43.241   5.875  11.052  0.00  0.00    +0.000 S 
ATOM     26  C   UNL     1      44.310   4.764  11.769  0.00  0.00    +0.000 A 
ATOM     27  N   UNL     1      44.077   3.426  11.695  0.00  0.00    +0.000 NA
ATOM     28  C   UNL     1      44.947   2.698  12.310  0.00  0.00    +0.000 A 
ATOM     29  N   UNL     1      46.036   3.186  12.985  0.00  0.00    +0.000 N 
ATOM     30  C   UNL     1      46.328   4.530  13.059  0.00  0.00    +0.000 A 
ATOM     31  O   UNL     1      47.336   4.927  13.636  0.00  0.00    +0.000 OA
ATOM     32  C   UNL     1      45.371   5.391  12.397  0.00  0.00    +0.000 A 
ATOM     33  H   UNL     1      46.685   2.559  13.437  0.00  0.00    +0.000 HD
ENDBRANCH  20  23
ENDBRANCH  18  19
ENDBRANCH   4  18
TORSDOF 6
ENDMDL
MODEL 9
REMARK VINA RESULT:    -6.827      3.716      8.862
REMARK INTER + INTRA:         -10.364
REMARK INTER:                  -8.993
REMARK INTRA:                  -1.371
REMARK UNBOUND:                -1.143
REMARK  Name = 
REMARK  7 active torsions:
REMARK  status: ('A' for Active; 'I' for Inactive)
REMARK    1  A    between atoms: C_1  and  N_2
REMARK    2  A    between atoms: N_2  and  C_3
REMARK    3  A    between atoms: C_3  and  C_4
REMARK    4  A    between atoms: C_7  and  C_8
REMARK    5  A    between atoms: C_8  and  N_9
REMARK    6  A    between atoms: C_10  and  C_12
REMARK    7  A    between atoms: C_24  and  C_26
REMARK                            x       y       z     vdW  Elec       q    Type
REMARK                         _______ _______ _______ _____ _____    ______ ____
ROOT
ATOM      1  C   UNL     1      49.199   7.612  16.597  0.00  0.00    +0.000 A 
ATOM      2  C   UNL     1      48.551   8.830  16.331  0.00  0.00    +0.000 A 
ATOM      3  C   UNL     1      48.070   9.115  15.055  0.00  0.00    +0.000 A 
ATOM      4  C   UNL     1      48.210   8.180  14.024  0.00  0.00    +0.000 A 
ATOM      5  C   UNL     1      48.860   6.966  14.288  0.00  0.00    +0.000 A 
ATOM      6  C   UNL     1      49.344   6.679  15.565  0.00  0.00    +0.000 A 
ENDROOT
BRANCH   1   7
ATOM      7  C   UNL     1      49.756   7.341  17.970  0.00  0.00    +0.000 C 
BRANCH   7   9
ATOM      8  C   UNL     1      48.241   7.859  19.940  0.00  0.00    +0.000 C 
ATOM      9  N   UNL     1      48.848   6.893  19.027  0.00  0.00    +0.000 N 
ATOM     10  C   UNL     1      48.521   5.547  19.278  0.00  0.00    +0.000 C 
ATOM     11  O   UNL     1      47.727   5.243  20.172  0.00  0.00    +0.000 OA
BRANCH  10  12
ATOM     12  C   UNL     1      49.063   4.414  18.460  0.00  0.00    +0.000 A 
ATOM     13  C   UNL     1      48.306   3.625  17.587  0.00  0.00    +0.000 A 
ATOM     14  C   UNL     1      48.889   2.567  16.882  0.00  0.00    +0.000 A 
ATOM     15  C   UNL     1      50.258   2.336  16.977  0.00  0.00    +0.000 A 
ATOM     16  C   UNL     1      51.044   3.166  17.772  0.00  0.00    +0.000 A 
ATOM     17  C   UNL     1      50.449   4.190  18.515  0.00  0.00    +0.000 A 
ENDBRANCH  10  12
ENDBRANCH   7   9
ENDBRANCH   1   7
BRANCH   4  18
ATOM     18  C   UNL     1      47.728   8.493  12.633  0.00  0.00    +0.000 C 
BRANCH  18  19
ATOM     19  N   UNL     1      47.194   7.311  12.004  0.00  0.00    +0.000 N 
ATOM     20  C   UNL     1      45.885   7.255  11.609  0.00  0.00    +0.000 C 
ATOM     21  O   UNL     1      45.126   8.211  11.736  0.00  0.00    +0.000 OA
ATOM     22  H   UNL     1      47.734   6.455  12.087  0.00  0.00    +0.000 HD
BRANCH  20  23
ATOM     23  C   UNL     1      45.448   6.011  10.963  0.00  0.00    +0.000 A 
ATOM     24  C   UNL     1      45.791   5.773   9.639  0.00  0.00    +0.000 A 
ATOM     25  S   UNL     1      45.252   4.267   9.051  0.00  0.00    +0.000 S 
ATOM     26  C   UNL     1      44.496   3.901  10.530  0.00  0.00    +0.000 A 
ATOM     27  N   UNL     1      43.811   2.736  10.693  0.00  0.00    +0.000 NA
ATOM     28  C   UNL     1      43.258   2.600  11.851  0.00  0.00    +0.000 A 
ATOM     29  N   UNL     1      43.335   3.519  12.866  0.00  0.00    +0.000 N 
ATOM     30  C   UNL     1      44.043   4.696  12.757  0.00  0.00    +0.000 A 
ATOM     31  O   UNL     1      44.126   5.474  13.701  0.00  0.00    +0.000 OA
ATOM     32  C   UNL     1      44.670   4.902  11.468  0.00  0.00    +0.000 A 
ATOM     33  H   UNL     1      42.887   3.346  13.753  0.00  0.00    +0.000 HD
ENDBRANCH  20  23
ENDBRANCH  18  19
ENDBRANCH   4  18
TORSDOF 6
ENDMDL
