MODEL 1
REMARK VINA RESULT:    -8.568      0.000      0.000
REMARK INTER + INTRA:         -13.107
REMARK INTER:                 -12.576
REMARK INTRA:                  -0.531
REMARK UNBOUND:                -0.531
REMARK  Name = 
REMARK  9 active torsions:
REMARK  status: ('A' for Active; 'I' for Inactive)
REMARK    1  A    between atoms: N_1  and  C_2
REMARK    2  A    between atoms: C_2  and  C_3
REMARK    3  A    between atoms: C_2  and  C_22
REMARK    4  A    between atoms: C_3  and  C_4
REMARK    5  A    between atoms: C_7  and  CA_8
REMARK    6  A    between atoms: CA_8  and  C_9
REMARK    7  A    between atoms: CA_8  and  N_11
REMARK    8  A    between atoms: C_9  and  O_10
REMARK    9  A    between atoms: C_12  and  C_14
REMARK                            x       y       z     vdW  Elec       q    Type
REMARK                         _______ _______ _______ _____ _____    ______ ____
ROOT
ATOM      1  C   UNL     1      46.760   4.076  14.036  0.00  0.00    +0.000 A 
ATOM      2  C   UNL     1      46.053   3.259  13.152  0.00  0.00    +0.000 A 
ATOM      3  C   UNL     1      45.277   3.805  12.134  0.00  0.00    +0.000 A 
ATOM      4  C   UNL     1      45.157   5.192  11.979  0.00  0.00    +0.000 A 
ATOM      5  C   UNL     1      45.763   6.018  12.937  0.00  0.00    +0.000 A 
ATOM      6  C   UNL     1      46.559   5.462  13.954  0.00  0.00    +0.000 A 
ENDROOT
BRANCH   1   7
ATOM      7  C   UNL     1      47.715   3.498  15.071  0.00  0.00    +0.000 C 
BRANCH   7   8
ATOM      8  C   UNL     1      47.520   3.996  16.533  0.00  0.00    +0.000 C 
BRANCH   8   9
ATOM      9  C   UNL     1      48.813   4.300  17.252  0.00  0.00    +0.000 A 
ATOM     10  C   UNL     1      49.117   5.502  17.873  0.00  0.00    +0.000 A 
ATOM     11  S   UNL     1      50.679   5.528  18.562  0.00  0.00    +0.000 S 
ATOM     12  C   UNL     1      51.001   3.940  18.044  0.00  0.00    +0.000 A 
ATOM     13  N   UNL     1      52.195   3.341  18.309  0.00  0.00    +0.000 NA
ATOM     14  C   UNL     1      52.295   2.136  17.849  0.00  0.00    +0.000 A 
ATOM     15  N   UNL     1      51.317   1.476  17.148  0.00  0.00    +0.000 N 
ATOM     16  C   UNL     1      50.100   2.043  16.847  0.00  0.00    +0.000 A 
ATOM     17  O   UNL     1      49.262   1.427  16.199  0.00  0.00    +0.000 OA
ATOM     18  C   UNL     1      49.933   3.395  17.354  0.00  0.00    +0.000 A 
ATOM     19  H   UNL     1      51.461   0.541  16.811  0.00  0.00    +0.000 HD
ENDBRANCH   8   9
BRANCH   8  20
ATOM     20  N   UNL     1      46.772   3.064  17.385  0.00  0.00    +0.000 NA
ATOM     21  H   UNL     1      47.044   2.112  17.141  0.00  0.00    +0.000 HD
ATOM     22  H   UNL     1      45.774   3.136  17.196  0.00  0.00    +0.000 HD
ENDBRANCH   8  20
ENDBRANCH   7   8
ENDBRANCH   1   7
BRANCH   4  23
ATOM     23  CA  UNL     1      44.446   5.703  10.738  0.00  0.00    +0.000 C 
BRANCH  23  24
ATOM     24  N   UNL     1      44.345   4.687   9.703  0.00  0.00    +0.000 N 
ATOM     25  C   UNL     1      45.266   4.635   8.674  0.00  0.00    +0.000 C 
ATOM     26  O   UNL     1      46.225   5.396   8.604  0.00  0.00    +0.000 OA
ATOM     27  H   UNL     1      43.431   4.277   9.566  0.00  0.00    +0.000 HD
BRANCH  25  28
ATOM     28  C   UNL     1      44.981   3.558   7.626  0.00  0.00    +0.000 C 
ATOM     29  C   UNL     1      44.569   2.227   8.268  0.00  0.00    +0.000 C 
ATOM     30  C   UNL     1      45.761   1.426   8.794  0.00  0.00    +0.000 C 
ATOM     31  N   UNL     1      46.785   1.228   7.769  0.00  0.00    +0.000 NA
ATOM     32  C   UNL     1      47.288   2.517   7.293  0.00  0.00    +0.000 C 
ATOM     33  C   UNL     1      46.170   3.354   6.673  0.00  0.00    +0.000 C 
ATOM     34  H   UNL     1      46.389   0.710   6.985  0.00  0.00    +0.000 HD
ENDBRANCH  25  28
ENDBRANCH  23  24
BRANCH  23  35
ATOM     35  C   UNL     1      43.086   6.359  11.070  0.00  0.00    +0.000 C 
BRANCH  35  36
ATOM     36  O   UNL     1      43.161   7.789  11.063  0.00  0.00    +0.000 OA
ATOM     37  H   UNL     1      42.316   8.109  11.424  0.00  0.00    +0.000 HD
ENDBRANCH  35  36
ENDBRANCH  23  35
ENDBRANCH   4  23
TORSDOF 9
ENDMDL
MODEL 2
REMARK VINA RESULT:    -8.168      1.209      1.727
REMARK INTER + INTRA:         -12.519
REMARK INTER:                 -11.956
REMARK INTRA:                  -0.562
REMARK UNBOUND:                -0.531
REMARK  Name = 
REMARK  9 active torsions:
REMARK  status: ('A' for Active; 'I' for Inactive)
REMARK    1  A    between atoms: N_1  and  C_2
REMARK    2  A    between atoms: C_2  and  C_3
REMARK    3  A    between atoms: C_2  and  C_22
REMARK    4  A    between atoms: C_3  and  C_4
REMARK    5  A    between atoms: C_7  and  CA_8
REMARK    6  A    between atoms: CA_8  and  C_9
REMARK    7  A    between atoms: CA_8  and  N_11
REMARK    8  A    between atoms: C_9  and  O_10
REMARK    9  A    between atoms: C_12  and  C_14
REMARK                            x       y       z     vdW  Elec       q    Type
REMARK                         _______ _______ _______ _____ _____    ______ ____
ROOT
ATOM      1  C   UNL     1      47.063   4.559  14.236  0.00  0.00    +0.000 A 
ATOM      2  C   UNL     1      47.085   5.817  13.630  0.00  0.00    +0.000 A 
ATOM      3  C   UNL     1      46.276   6.099  12.533  0.00  0.00    +0.000 A 
ATOM      4  C   UNL     1      45.437   5.123  11.982  0.00  0.00    +0.000 A 
ATOM      5  C   UNL     1      45.501   3.824  12.506  0.00  0.00    +0.000 A 
ATOM      6  C   UNL     1      46.307   3.548  13.625  0.00  0.00    +0.000 A 
ENDROOT
BRANCH   1   7
ATOM      7  C   UNL     1      47.840   4.272  15.513  0.00  0.00    +0.000 C 
BRANCH   7   8
ATOM      8  C   UNL     1      47.009   4.265  16.829  0.00  0.00    +0.000 C 
BRANCH   8   9
ATOM      9  C   UNL     1      47.669   5.004  17.971  0.00  0.00    +0.000 A 
ATOM     10  C   UNL     1      47.101   6.057  18.673  0.00  0.00    +0.000 A 
ATOM     11  S   UNL     1      48.127   6.693  19.879  0.00  0.00    +0.000 S 
ATOM     12  C   UNL     1      49.364   5.590  19.495  0.00  0.00    +0.000 A 
ATOM     13  N   UNL     1      50.549   5.598  20.167  0.00  0.00    +0.000 NA
ATOM     14  C   UNL     1      51.393   4.705  19.761  0.00  0.00    +0.000 A 
ATOM     15  N   UNL     1      51.164   3.808  18.747  0.00  0.00    +0.000 N 
ATOM     16  C   UNL     1      49.989   3.769  18.033  0.00  0.00    +0.000 A 
ATOM     17  O   UNL     1      49.834   2.967  17.119  0.00  0.00    +0.000 OA
ATOM     18  C   UNL     1      49.001   4.747  18.460  0.00  0.00    +0.000 A 
ATOM     19  H   UNL     1      51.866   3.143  18.475  0.00  0.00    +0.000 HD
ENDBRANCH   8   9
BRANCH   8  20
ATOM     20  N   UNL     1      46.690   2.921  17.326  0.00  0.00    +0.000 NA
ATOM     21  H   UNL     1      47.090   2.816  18.257  0.00  0.00    +0.000 HD
ATOM     22  H   UNL     1      47.132   2.215  16.741  0.00  0.00    +0.000 HD
ENDBRANCH   8  20
ENDBRANCH   7   8
ENDBRANCH   1   7
BRANCH   4  23
ATOM     23  CA  UNL     1      44.456   5.563  10.908  0.00  0.00    +0.000 C 
BRANCH  23  24
ATOM     24  N   UNL     1      44.357   4.600   9.823  0.00  0.00    +0.000 N 
ATOM     25  C   UNL     1      45.263   4.618   8.781  0.00  0.00    +0.000 C 
ATOM     26  O   UNL     1      46.208   5.400   8.737  0.00  0.00    +0.000 OA
ATOM     27  H   UNL     1      43.450   4.181   9.678  0.00  0.00    +0.000 HD
BRANCH  25  28
ATOM     28  C   UNL     1      44.982   3.591   7.683  0.00  0.00    +0.000 C 
ATOM     29  C   UNL     1      44.601   2.222   8.261  0.00  0.00    +0.000 C 
ATOM     30  C   UNL     1      45.814   1.416   8.729  0.00  0.00    +0.000 C 
ATOM     31  N   UNL     1      46.827   1.289   7.682  0.00  0.00    +0.000 NA
ATOM     32  C   UNL     1      47.302   2.609   7.267  0.00  0.00    +0.000 C 
ATOM     33  C   UNL     1      46.162   3.457   6.705  0.00  0.00    +0.000 C 
ATOM     34  H   UNL     1      46.429   0.805   6.879  0.00  0.00    +0.000 HD
ENDBRANCH  25  28
ENDBRANCH  23  24
BRANCH  23  35
ATOM     35  C   UNL     1      43.079   5.950  11.495  0.00  0.00    +0.000 C 
BRANCH  35  36
ATOM     36  O   UNL     1      42.696   7.283  11.140  0.00  0.00    +0.000 OA
ATOM     37  H   UNL     1      41.725   7.279  11.068  0.00  0.00    +0.000 HD
ENDBRANCH  35  36
ENDBRANCH  23  35
ENDBRANCH   4  23
TORSDOF 9
ENDMDL
MODEL 3
REMARK VINA RESULT:    -7.916      1.929      2.680
REMARK INTER + INTRA:         -12.149
REMARK INTER:                 -10.966
REMARK INTRA:                  -1.183
REMARK UNBOUND:                -0.531
REMARK  Name = 
REMARK  9 active torsions:
REMARK  status: ('A' for Active; 'I' for Inactive)
REMARK    1  A    between atoms: N_1  and  C_2
REMARK    2  A    between atoms: C_2  and  C_3
REMARK    3  A    between atoms: C_2  and  C_22
REMARK    4  A    between atoms: C_3  and  C_4
REMARK    5  A    between atoms: C_7  and  CA_8
REMARK    6  A    between atoms: CA_8  and  C_9
REMARK    7  A    between atoms: CA_8  and  N_11
REMARK    8  A    between atoms: C_9  and  O_10
REMARK    9  A    between atoms: C_12  and  C_14
REMARK                            x       y       z     vdW  Elec       q    Type
REMARK                         _______ _______ _______ _____ _____    ______ ____
ROOT
ATOM      1  C   UNL     1      46.981   4.173  14.366  0.00  0.00    +0.000 A 
ATOM      2  C   UNL     1      46.918   5.517  13.993  0.00  0.00    +0.000 A 
ATOM      3  C   UNL     1      46.192   5.918  12.875  0.00  0.00    +0.000 A 
ATOM      4  C   UNL     1      45.524   4.986  12.071  0.00  0.00    +0.000 A 
ATOM      5  C   UNL     1      45.685   3.624  12.367  0.00  0.00    +0.000 A 
ATOM      6  C   UNL     1      46.406   3.225  13.506  0.00  0.00    +0.000 A 
ENDROOT
BRANCH   1   7
ATOM      7  C   UNL     1      47.659   3.731  15.654  0.00  0.00    +0.000 C 
BRANCH   7   8
ATOM      8  C   UNL     1      47.710   4.787  16.795  0.00  0.00    +0.000 C 
BRANCH   8   9
ATOM      9  C   UNL     1      49.029   4.826  17.532  0.00  0.00    +0.000 A 
ATOM     10  C   UNL     1      49.999   3.836  17.484  0.00  0.00    +0.000 A 
ATOM     11  S   UNL     1      51.356   4.175  18.463  0.00  0.00    +0.000 S 
ATOM     12  C   UNL     1      50.687   5.647  18.989  0.00  0.00    +0.000 A 
ATOM     13  N   UNL     1      51.351   6.451  19.865  0.00  0.00    +0.000 NA
ATOM     14  C   UNL     1      50.716   7.533  20.176  0.00  0.00    +0.000 A 
ATOM     15  N   UNL     1      49.480   7.888  19.694  0.00  0.00    +0.000 N 
ATOM     16  C   UNL     1      48.766   7.105  18.817  0.00  0.00    +0.000 A 
ATOM     17  O   UNL     1      47.654   7.448  18.429  0.00  0.00    +0.000 OA
ATOM     18  C   UNL     1      49.444   5.880  18.426  0.00  0.00    +0.000 A 
ATOM     19  H   UNL     1      49.036   8.742  19.982  0.00  0.00    +0.000 HD
ENDBRANCH   8   9
BRANCH   8  20
ATOM     20  N   UNL     1      46.664   4.618  17.812  0.00  0.00    +0.000 NA
ATOM     21  H   UNL     1      46.488   5.522  18.249  0.00  0.00    +0.000 HD
ATOM     22  H   UNL     1      46.988   3.998  18.551  0.00  0.00    +0.000 HD
ENDBRANCH   8  20
ENDBRANCH   7   8
ENDBRANCH   1   7
BRANCH   4  23
ATOM     23  CA  UNL     1      44.608   5.521  10.985  0.00  0.00    +0.000 C 
BRANCH  23  24
ATOM     24  N   UNL     1      44.474   4.596   9.871  0.00  0.00    +0.000 N 
ATOM     25  C   UNL     1      45.342   4.655   8.797  0.00  0.00    +0.000 C 
ATOM     26  O   UNL     1      46.280   5.444   8.747  0.00  0.00    +0.000 OA
ATOM     27  H   UNL     1      43.564   4.177   9.744  0.00  0.00    +0.000 HD
BRANCH  25  28
ATOM     28  C   UNL     1      45.026   3.666   7.675  0.00  0.00    +0.000 C 
ATOM     29  C   UNL     1      44.594   2.298   8.219  0.00  0.00    +0.000 C 
ATOM     30  C   UNL     1      45.776   1.438   8.670  0.00  0.00    +0.000 C 
ATOM     31  N   UNL     1      46.785   1.299   7.621  0.00  0.00    +0.000 NA
ATOM     32  C   UNL     1      47.309   2.611   7.237  0.00  0.00    +0.000 C 
ATOM     33  C   UNL     1      46.201   3.513   6.695  0.00  0.00    +0.000 C 
ATOM     34  H   UNL     1      46.371   0.849   6.805  0.00  0.00    +0.000 HD
ENDBRANCH  25  28
ENDBRANCH  23  24
BRANCH  23  35
ATOM     35  C   UNL     1      43.244   5.988  11.545  0.00  0.00    +0.000 C 
BRANCH  35  36
ATOM     36  O   UNL     1      42.876   7.282  11.058  0.00  0.00    +0.000 OA
ATOM     37  H   UNL     1      41.946   7.417  11.315  0.00  0.00    +0.000 HD
ENDBRANCH  35  36
ENDBRANCH  23  35
ENDBRANCH   4  23
TORSDOF 9
ENDMDL
MODEL 4
REMARK VINA RESULT:    -7.287      2.767      9.481
REMARK INTER + INTRA:         -11.226
REMARK INTER:                 -10.557
REMARK INTRA:                  -0.669
REMARK UNBOUND:                -0.531
REMARK  Name = 
REMARK  9 active torsions:
REMARK  status: ('A' for Active; 'I' for Inactive)
REMARK    1  A    between atoms: N_1  and  C_2
REMARK    2  A    between atoms: C_2  and  C_3
REMARK    3  A    between atoms: C_2  and  C_22
REMARK    4  A    between atoms: C_3  and  C_4
REMARK    5  A    between atoms: C_7  and  CA_8
REMARK    6  A    between atoms: CA_8  and  C_9
REMARK    7  A    between atoms: CA_8  and  N_11
REMARK    8  A    between atoms: C_9  and  O_10
REMARK    9  A    between atoms: C_12  and  C_14
REMARK                            x       y       z     vdW  Elec       q    Type
REMARK                         _______ _______ _______ _____ _____    ______ ____
ROOT
ATOM      1  C   UNL     1      47.286   6.088  13.377  0.00  0.00    +0.000 A 
ATOM      2  C   UNL     1      46.912   4.926  14.057  0.00  0.00    +0.000 A 
ATOM      3  C   UNL     1      47.398   4.653  15.332  0.00  0.00    +0.000 A 
ATOM      4  C   UNL     1      48.299   5.519  15.964  0.00  0.00    +0.000 A 
ATOM      5  C   UNL     1      48.775   6.622  15.240  0.00  0.00    +0.000 A 
ATOM      6  C   UNL     1      48.269   6.902  13.958  0.00  0.00    +0.000 A 
ENDROOT
BRANCH   1   7
ATOM      7  C   UNL     1      46.665   6.468  12.040  0.00  0.00    +0.000 C 
BRANCH   7   8
ATOM      8  C   UNL     1      45.111   6.424  11.972  0.00  0.00    +0.000 C 
BRANCH   8   9
ATOM      9  C   UNL     1      44.553   5.057  11.650  0.00  0.00    +0.000 A 
ATOM     10  C   UNL     1      43.786   4.286  12.510  0.00  0.00    +0.000 A 
ATOM     11  S   UNL     1      43.346   2.775  11.849  0.00  0.00    +0.000 S 
ATOM     12  C   UNL     1      44.174   3.099  10.399  0.00  0.00    +0.000 A 
ATOM     13  N   UNL     1      44.200   2.191   9.384  0.00  0.00    +0.000 NA
ATOM     14  C   UNL     1      44.872   2.576   8.348  0.00  0.00    +0.000 A 
ATOM     15  N   UNL     1      45.521   3.780   8.232  0.00  0.00    +0.000 N 
ATOM     16  C   UNL     1      45.533   4.723   9.233  0.00  0.00    +0.000 A 
ATOM     17  O   UNL     1      46.145   5.777   9.098  0.00  0.00    +0.000 OA
ATOM     18  C   UNL     1      44.779   4.343  10.417  0.00  0.00    +0.000 A 
ATOM     19  H   UNL     1      46.033   4.015   7.400  0.00  0.00    +0.000 HD
ENDBRANCH   8   9
BRANCH   8  20
ATOM     20  N   UNL     1      44.531   7.357  10.999  0.00  0.00    +0.000 NA
ATOM     21  H   UNL     1      45.284   7.906  10.587  0.00  0.00    +0.000 HD
ATOM     22  H   UNL     1      43.915   8.017  11.467  0.00  0.00    +0.000 HD
ENDBRANCH   8  20
ENDBRANCH   7   8
ENDBRANCH   1   7
BRANCH   4  23
ATOM     23  CA  UNL     1      48.635   5.244  17.420  0.00  0.00    +0.000 C 
BRANCH  23  24
ATOM     24  N   UNL     1      50.035   5.496  17.720  0.00  0.00    +0.000 N 
ATOM     25  C   UNL     1      50.985   4.511  17.532  0.00  0.00    +0.000 C 
ATOM     26  O   UNL     1      50.713   3.409  17.067  0.00  0.00    +0.000 OA
ATOM     27  H   UNL     1      50.225   6.243  18.374  0.00  0.00    +0.000 HD
BRANCH  25  28
ATOM     28  C   UNL     1      52.398   4.906  17.962  0.00  0.00    +0.000 C 
ATOM     29  C   UNL     1      53.370   3.720  17.900  0.00  0.00    +0.000 C 
ATOM     30  C   UNL     1      53.244   2.785  19.104  0.00  0.00    +0.000 C 
ATOM     31  N   UNL     1      53.362   3.504  20.372  0.00  0.00    +0.000 NA
ATOM     32  C   UNL     1      52.314   4.519  20.484  0.00  0.00    +0.000 C 
ATOM     33  C   UNL     1      52.416   5.548  19.359  0.00  0.00    +0.000 C 
ATOM     34  H   UNL     1      54.275   3.954  20.427  0.00  0.00    +0.000 HD
ENDBRANCH  25  28
ENDBRANCH  23  24
BRANCH  23  35
ATOM     35  C   UNL     1      47.673   5.968  18.390  0.00  0.00    +0.000 C 
BRANCH  35  36
ATOM     36  O   UNL     1      46.442   5.258  18.560  0.00  0.00    +0.000 OA
ATOM     37  H   UNL     1      45.761   5.929  18.744  0.00  0.00    +0.000 HD
ENDBRANCH  35  36
ENDBRANCH  23  35
ENDBRANCH   4  23
TORSDOF 9
ENDMDL
MODEL 5
REMARK VINA RESULT:    -7.179      3.313      9.368
REMARK INTER + INTRA:         -11.068
REMARK INTER:                 -10.198
REMARK INTRA:                  -0.870
REMARK UNBOUND:                -0.531
REMARK  Name = 
REMARK  9 active torsions:
REMARK  status: ('A' for Active; 'I' for Inactive)
REMARK    1  A    between atoms: N_1  and  C_2
REMARK    2  A    between atoms: C_2  and  C_3
REMARK    3  A    between atoms: C_2  and  C_22
REMARK    4  A    between atoms: C_3  and  C_4
REMARK    5  A    between atoms: C_7  and  CA_8
REMARK    6  A    between atoms: CA_8  and  C_9
REMARK    7  A    between atoms: CA_8  and  N_11
REMARK    8  A    between atoms: C_9  and  O_10
REMARK    9  A    between atoms: C_12  and  C_14
REMARK                            x       y       z     vdW  Elec       q    Type
REMARK                         _______ _______ _______ _____ _____    ______ ____
ROOT
ATOM      1  C   UNL     1      47.823   6.875  12.631  0.00  0.00    +0.000 A 
ATOM      2  C   UNL     1      48.865   7.802  12.557  0.00  0.00    +0.000 A 
ATOM      3  C   UNL     1      49.734   7.992  13.627  0.00  0.00    +0.000 A 
ATOM      4  C   UNL     1      49.577   7.280  14.823  0.00  0.00    +0.000 A 
ATOM      5  C   UNL     1      48.462   6.439  14.950  0.00  0.00    +0.000 A 
ATOM      6  C   UNL     1      47.595   6.239  13.860  0.00  0.00    +0.000 A 
ENDROOT
BRANCH   1   7
ATOM      7  C   UNL     1      46.945   6.559  11.428  0.00  0.00    +0.000 C 
BRANCH   7   8
ATOM      8  C   UNL     1      45.412   6.539  11.690  0.00  0.00    +0.000 C 
BRANCH   8   9
ATOM      9  C   UNL     1      44.795   5.163  11.593  0.00  0.00    +0.000 A 
ATOM     10  C   UNL     1      44.135   4.510  12.624  0.00  0.00    +0.000 A 
ATOM     11  S   UNL     1      43.588   2.951  12.194  0.00  0.00    +0.000 S 
ATOM     12  C   UNL     1      44.223   3.096  10.622  0.00  0.00    +0.000 A 
ATOM     13  N   UNL     1      44.100   2.086   9.717  0.00  0.00    +0.000 NA
ATOM     14  C   UNL     1      44.636   2.339   8.567  0.00  0.00    +0.000 A 
ATOM     15  N   UNL     1      45.282   3.504   8.237  0.00  0.00    +0.000 N 
ATOM     16  C   UNL     1      45.441   4.547   9.121  0.00  0.00    +0.000 A 
ATOM     17  O   UNL     1      46.046   5.562   8.793  0.00  0.00    +0.000 OA
ATOM     18  C   UNL     1      44.844   4.316  10.426  0.00  0.00    +0.000 A 
ATOM     19  H   UNL     1      45.684   3.635   7.326  0.00  0.00    +0.000 HD
ENDBRANCH   8   9
BRANCH   8  20
ATOM     20  N   UNL     1      44.642   7.410  10.794  0.00  0.00    +0.000 NA
ATOM     21  H   UNL     1      45.234   8.191  10.515  0.00  0.00    +0.000 HD
ATOM     22  H   UNL     1      43.848   7.812  11.288  0.00  0.00    +0.000 HD
ENDBRANCH   8  20
ENDBRANCH   7   8
ENDBRANCH   1   7
BRANCH   4  23
ATOM     23  CA  UNL     1      50.672   7.409  15.868  0.00  0.00    +0.000 C 
BRANCH  23  24
ATOM     24  N   UNL     1      50.830   6.197  16.655  0.00  0.00    +0.000 N 
ATOM     25  C   UNL     1      50.609   6.208  18.018  0.00  0.00    +0.000 C 
ATOM     26  O   UNL     1      50.231   7.208  18.621  0.00  0.00    +0.000 OA
ATOM     27  H   UNL     1      51.422   5.480  16.258  0.00  0.00    +0.000 HD
BRANCH  25  28
ATOM     28  C   UNL     1      50.887   4.874  18.713  0.00  0.00    +0.000 C 
ATOM     29  C   UNL     1      50.353   3.684  17.907  0.00  0.00    +0.000 C 
ATOM     30  C   UNL     1      48.846   3.479  18.076  0.00  0.00    +0.000 C 
ATOM     31  N   UNL     1      48.460   3.385  19.483  0.00  0.00    +0.000 NA
ATOM     32  C   UNL     1      48.827   4.608  20.198  0.00  0.00    +0.000 C 
ATOM     33  C   UNL     1      50.335   4.847  20.149  0.00  0.00    +0.000 C 
ATOM     34  H   UNL     1      48.928   2.589  19.914  0.00  0.00    +0.000 HD
ENDBRANCH  25  28
ENDBRANCH  23  24
BRANCH  23  35
ATOM     35  C   UNL     1      52.004   7.910  15.263  0.00  0.00    +0.000 C 
BRANCH  35  36
ATOM     36  O   UNL     1      52.980   6.867  15.168  0.00  0.00    +0.000 OA
ATOM     37  H   UNL     1      53.232   6.813  14.230  0.00  0.00    +0.000 HD
ENDBRANCH  35  36
ENDBRANCH  23  35
ENDBRANCH   4  23
TORSDOF 9
ENDMDL
MODEL 6
REMARK VINA RESULT:    -7.062      2.539      3.795
REMARK INTER + INTRA:         -10.895
REMARK INTER:                  -9.737
REMARK INTRA:                  -1.159
REMARK UNBOUND:                -0.531
REMARK  Name = 
REMARK  9 active torsions:
REMARK  status: ('A' for Active; 'I' for Inactive)
REMARK    1  A    between atoms: N_1  and  C_2
REMARK    2  A    between atoms: C_2  and  C_3
REMARK    3  A    between atoms: C_2  and  C_22
REMARK    4  A    between atoms: C_3  and  C_4
REMARK    5  A    between atoms: C_7  and  CA_8
REMARK    6  A    between atoms: CA_8  and  C_9
REMARK    7  A    between atoms: CA_8  and  N_11
REMARK    8  A    between atoms: C_9  and  O_10
REMARK    9  A    between atoms: C_12  and  C_14
REMARK                            x       y       z     vdW  Elec       q    Type
REMARK                         _______ _______ _______ _____ _____    ______ ____
ROOT
ATOM      1  C   UNL     1      49.088   7.661  15.649  0.00  0.00    +0.000 A 
ATOM      2  C   UNL     1      48.324   8.823  15.526  0.00  0.00    +0.000 A 
ATOM      3  C   UNL     1      47.507   9.031  14.418  0.00  0.00    +0.000 A 
ATOM      4  C   UNL     1      47.445   8.096  13.378  0.00  0.00    +0.000 A 
ATOM      5  C   UNL     1      48.301   6.987  13.435  0.00  0.00    +0.000 A 
ATOM      6  C   UNL     1      49.113   6.773  14.563  0.00  0.00    +0.000 A 
ENDROOT
BRANCH   1   7
ATOM      7  C   UNL     1      49.884   7.356  16.910  0.00  0.00    +0.000 C 
BRANCH   7   8
ATOM      8  C   UNL     1      49.181   6.445  17.957  0.00  0.00    +0.000 C 
BRANCH   8   9
ATOM      9  C   UNL     1      49.013   5.013  17.505  0.00  0.00    +0.000 A 
ATOM     10  C   UNL     1      47.830   4.457  17.042  0.00  0.00    +0.000 A 
ATOM     11  S   UNL     1      47.972   2.802  16.646  0.00  0.00    +0.000 S 
ATOM     12  C   UNL     1      49.614   2.775  17.090  0.00  0.00    +0.000 A 
ATOM     13  N   UNL     1      50.351   1.633  16.997  0.00  0.00    +0.000 NA
ATOM     14  C   UNL     1      51.581   1.765  17.375  0.00  0.00    +0.000 A 
ATOM     15  N   UNL     1      52.143   2.929  17.837  0.00  0.00    +0.000 N 
ATOM     16  C   UNL     1      51.437   4.104  17.959  0.00  0.00    +0.000 A 
ATOM     17  O   UNL     1      51.972   5.116  18.398  0.00  0.00    +0.000 OA
ATOM     18  C   UNL     1      50.050   4.010  17.535  0.00  0.00    +0.000 A 
ATOM     19  H   UNL     1      53.106   2.963  18.122  0.00  0.00    +0.000 HD
ENDBRANCH   8   9
BRANCH   8  20
ATOM     20  N   UNL     1      47.852   6.918  18.361  0.00  0.00    +0.000 NA
ATOM     21  H   UNL     1      47.962   7.786  18.885  0.00  0.00    +0.000 HD
ATOM     22  H   UNL     1      47.418   6.251  18.995  0.00  0.00    +0.000 HD
ENDBRANCH   8  20
ENDBRANCH   7   8
ENDBRANCH   1   7
BRANCH   4  23
ATOM     23  CA  UNL     1      46.395   8.310  12.301  0.00  0.00    +0.000 C 
BRANCH  23  24
ATOM     24  N   UNL     1      45.319   7.336  12.379  0.00  0.00    +0.000 N 
ATOM     25  C   UNL     1      45.219   6.319  11.448  0.00  0.00    +0.000 C 
ATOM     26  O   UNL     1      46.042   6.159  10.552  0.00  0.00    +0.000 OA
ATOM     27  H   UNL     1      44.492   7.622  12.884  0.00  0.00    +0.000 HD
BRANCH  25  28
ATOM     28  C   UNL     1      43.994   5.422  11.622  0.00  0.00    +0.000 C 
ATOM     29  C   UNL     1      44.173   4.421  12.771  0.00  0.00    +0.000 C 
ATOM     30  C   UNL     1      45.025   3.213  12.379  0.00  0.00    +0.000 C 
ATOM     31  N   UNL     1      44.523   2.554  11.173  0.00  0.00    +0.000 NA
ATOM     32  C   UNL     1      44.523   3.486  10.044  0.00  0.00    +0.000 C 
ATOM     33  C   UNL     1      43.625   4.691  10.320  0.00  0.00    +0.000 C 
ATOM     34  H   UNL     1      43.574   2.221  11.335  0.00  0.00    +0.000 HD
ENDBRANCH  25  28
ENDBRANCH  23  24
BRANCH  23  35
ATOM     35  C   UNL     1      45.884   9.768  12.262  0.00  0.00    +0.000 C 
BRANCH  35  36
ATOM     36  O   UNL     1      44.533   9.879  12.723  0.00  0.00    +0.000 OA
ATOM     37  H   UNL     1      44.581   9.989  13.689  0.00  0.00    +0.000 HD
ENDBRANCH  35  36
ENDBRANCH  23  35
ENDBRANCH   4  23
TORSDOF 9
ENDMDL
MODEL 7
REMARK VINA RESULT:    -7.022      3.207      4.766
REMARK INTER + INTRA:         -10.837
REMARK INTER:                  -9.347
REMARK INTRA:                  -1.490
REMARK UNBOUND:                -0.531
REMARK  Name = 
REMARK  9 active torsions:
REMARK  status: ('A' for Active; 'I' for Inactive)
REMARK    1  A    between atoms: N_1  and  C_2
REMARK    2  A    between atoms: C_2  and  C_3
REMARK    3  A    between atoms: C_2  and  C_22
REMARK    4  A    between atoms: C_3  and  C_4
REMARK    5  A    between atoms: C_7  and  CA_8
REMARK    6  A    between atoms: CA_8  and  C_9
REMARK    7  A    between atoms: CA_8  and  N_11
REMARK    8  A    between atoms: C_9  and  O_10
REMARK    9  A    between atoms: C_12  and  C_14
REMARK                            x       y       z     vdW  Elec       q    Type
REMARK                         _______ _______ _______ _____ _____    ______ ____
ROOT
ATOM      1  C   UNL     1      49.882   8.405  14.274  0.00  0.00    +0.000 A 
ATOM      2  C   UNL     1      48.684   8.874  14.818  0.00  0.00    +0.000 A 
ATOM      3  C   UNL     1      47.508   8.873  14.073  0.00  0.00    +0.000 A 
ATOM      4  C   UNL     1      47.492   8.428  12.746  0.00  0.00    +0.000 A 
ATOM      5  C   UNL     1      48.712   8.073  12.153  0.00  0.00    +0.000 A 
ATOM      6  C   UNL     1      49.895   8.061  12.914  0.00  0.00    +0.000 A 
ENDROOT
BRANCH   1   7
ATOM      7  C   UNL     1      51.146   8.277  15.112  0.00  0.00    +0.000 C 
BRANCH   7   8
ATOM      8  C   UNL     1      51.352   6.912  15.830  0.00  0.00    +0.000 C 
BRANCH   8   9
ATOM      9  C   UNL     1      50.728   6.845  17.204  0.00  0.00    +0.000 A 
ATOM     10  C   UNL     1      51.320   7.305  18.372  0.00  0.00    +0.000 A 
ATOM     11  S   UNL     1      50.361   7.044  19.760  0.00  0.00    +0.000 S 
ATOM     12  C   UNL     1      49.132   6.302  18.848  0.00  0.00    +0.000 A 
ATOM     13  N   UNL     1      48.000   5.831  19.441  0.00  0.00    +0.000 NA
ATOM     14  C   UNL     1      47.160   5.289  18.621  0.00  0.00    +0.000 A 
ATOM     15  N   UNL     1      47.344   5.172  17.266  0.00  0.00    +0.000 N 
ATOM     16  C   UNL     1      48.475   5.622  16.623  0.00  0.00    +0.000 A 
ATOM     17  O   UNL     1      48.610   5.477  15.413  0.00  0.00    +0.000 OA
ATOM     18  C   UNL     1      49.447   6.252  17.502  0.00  0.00    +0.000 A 
ATOM     19  H   UNL     1      46.654   4.733  16.684  0.00  0.00    +0.000 HD
ENDBRANCH   8   9
BRANCH   8  20
ATOM     20  N   UNL     1      52.760   6.528  15.987  0.00  0.00    +0.000 NA
ATOM     21  H   UNL     1      52.800   5.628  16.462  0.00  0.00    +0.000 HD
ATOM     22  H   UNL     1      53.242   7.193  16.588  0.00  0.00    +0.000 HD
ENDBRANCH   8  20
ENDBRANCH   7   8
ENDBRANCH   1   7
BRANCH   4  23
ATOM     23  CA  UNL     1      46.141   8.286  12.067  0.00  0.00    +0.000 C 
BRANCH  23  24
ATOM     24  N   UNL     1      45.315   7.264  12.690  0.00  0.00    +0.000 N 
ATOM     25  C   UNL     1      45.592   5.924  12.502  0.00  0.00    +0.000 C 
ATOM     26  O   UNL     1      46.555   5.531  11.851  0.00  0.00    +0.000 OA
ATOM     27  H   UNL     1      44.378   7.541  12.947  0.00  0.00    +0.000 HD
BRANCH  25  28
ATOM     28  C   UNL     1      44.591   4.974  13.161  0.00  0.00    +0.000 C 
ATOM     29  C   UNL     1      44.812   3.518  12.731  0.00  0.00    +0.000 C 
ATOM     30  C   UNL     1      44.226   3.209  11.353  0.00  0.00    +0.000 C 
ATOM     31  N   UNL     1      42.815   3.582  11.259  0.00  0.00    +0.000 NA
ATOM     32  C   UNL     1      42.648   5.015  11.504  0.00  0.00    +0.000 C 
ATOM     33  C   UNL     1      43.136   5.400  12.901  0.00  0.00    +0.000 C 
ATOM     34  H   UNL     1      42.276   3.057  11.947  0.00  0.00    +0.000 HD
ENDBRANCH  25  28
ENDBRANCH  23  24
BRANCH  23  35
ATOM     35  C   UNL     1      45.411   9.642  11.924  0.00  0.00    +0.000 C 
BRANCH  35  36
ATOM     36  O   UNL     1      44.339   9.780  12.863  0.00  0.00    +0.000 OA
ATOM     37  H   UNL     1      43.855   8.936  12.852  0.00  0.00    +0.000 HD
ENDBRANCH  35  36
ENDBRANCH  23  35
ENDBRANCH   4  23
TORSDOF 9
ENDMDL
MODEL 8
REMARK VINA RESULT:    -6.854      3.598     10.083
REMARK INTER + INTRA:         -10.591
REMARK INTER:                  -9.948
REMARK INTRA:                  -0.643
REMARK UNBOUND:                -0.531
REMARK  Name = 
REMARK  9 active torsions:
REMARK  status: ('A' for Active; 'I' for Inactive)
REMARK    1  A    between atoms: N_1  and  C_2
REMARK    2  A    between atoms: C_2  and  C_3
REMARK    3  A    between atoms: C_2  and  C_22
REMARK    4  A    between atoms: C_3  and  C_4
REMARK    5  A    between atoms: C_7  and  CA_8
REMARK    6  A    between atoms: CA_8  and  C_9
REMARK    7  A    between atoms: CA_8  and  N_11
REMARK    8  A    between atoms: C_9  and  O_10
REMARK    9  A    between atoms: C_12  and  C_14
REMARK                            x       y       z     vdW  Elec       q    Type
REMARK                         _______ _______ _______ _____ _____    ______ ____
ROOT
ATOM      1  C   UNL     1      47.339   5.948  13.561  0.00  0.00    +0.000 A 
ATOM      2  C   UNL     1      46.963   4.768  14.207  0.00  0.00    +0.000 A 
ATOM      3  C   UNL     1      47.348   4.514  15.520  0.00  0.00    +0.000 A 
ATOM      4  C   UNL     1      48.149   5.418  16.228  0.00  0.00    +0.000 A 
ATOM      5  C   UNL     1      48.633   6.545  15.547  0.00  0.00    +0.000 A 
ATOM      6  C   UNL     1      48.228   6.806  14.226  0.00  0.00    +0.000 A 
ENDROOT
BRANCH   1   7
ATOM      7  C   UNL     1      46.821   6.304  12.175  0.00  0.00    +0.000 C 
BRANCH   7   8
ATOM      8  C   UNL     1      45.273   6.340  12.015  0.00  0.00    +0.000 C 
BRANCH   8   9
ATOM      9  C   UNL     1      44.665   5.004  11.658  0.00  0.00    +0.000 A 
ATOM     10  C   UNL     1      43.890   4.228  12.507  0.00  0.00    +0.000 A 
ATOM     11  S   UNL     1      43.389   2.755  11.803  0.00  0.00    +0.000 S 
ATOM     12  C   UNL     1      44.199   3.103  10.349  0.00  0.00    +0.000 A 
ATOM     13  N   UNL     1      44.176   2.231   9.303  0.00  0.00    +0.000 NA
ATOM     14  C   UNL     1      44.840   2.630   8.267  0.00  0.00    +0.000 A 
ATOM     15  N   UNL     1      45.525   3.816   8.179  0.00  0.00    +0.000 N 
ATOM     16  C   UNL     1      45.587   4.724   9.211  0.00  0.00    +0.000 A 
ATOM     17  O   UNL     1      46.229   5.762   9.099  0.00  0.00    +0.000 OA
ATOM     18  C   UNL     1      44.844   4.326  10.397  0.00  0.00    +0.000 A 
ATOM     19  H   UNL     1      46.028   4.064   7.346  0.00  0.00    +0.000 HD
ENDBRANCH   8   9
BRANCH   8  20
ATOM     20  N   UNL     1      44.801   7.301  11.010  0.00  0.00    +0.000 NA
ATOM     21  H   UNL     1      45.405   8.121  11.036  0.00  0.00    +0.000 HD
ATOM     22  H   UNL     1      43.865   7.624  11.244  0.00  0.00    +0.000 HD
ENDBRANCH   8  20
ENDBRANCH   7   8
ENDBRANCH   1   7
BRANCH   4  23
ATOM     23  CA  UNL     1      48.369   5.155  17.707  0.00  0.00    +0.000 C 
BRANCH  23  24
ATOM     24  N   UNL     1      47.654   6.100  18.549  0.00  0.00    +0.000 N 
ATOM     25  C   UNL     1      48.293   6.736  19.596  0.00  0.00    +0.000 C 
ATOM     26  O   UNL     1      49.485   6.576  19.840  0.00  0.00    +0.000 OA
ATOM     27  H   UNL     1      46.648   6.008  18.571  0.00  0.00    +0.000 HD
BRANCH  25  28
ATOM     28  C   UNL     1      47.389   7.643  20.430  0.00  0.00    +0.000 C 
ATOM     29  C   UNL     1      47.296   9.058  19.844  0.00  0.00    +0.000 C 
ATOM     30  C   UNL     1      48.510   9.923  20.186  0.00  0.00    +0.000 C 
ATOM     31  N   UNL     1      48.772   9.959  21.624  0.00  0.00    +0.000 NA
ATOM     32  C   UNL     1      49.029   8.610  22.131  0.00  0.00    +0.000 C 
ATOM     33  C   UNL     1      47.827   7.695  21.904  0.00  0.00    +0.000 C 
ATOM     34  H   UNL     1      47.967  10.354  22.109  0.00  0.00    +0.000 HD
ENDBRANCH  25  28
ENDBRANCH  23  24
BRANCH  23  35
ATOM     35  C   UNL     1      48.091   3.682  18.088  0.00  0.00    +0.000 C 
BRANCH  35  36
ATOM     36  O   UNL     1      49.137   3.126  18.892  0.00  0.00    +0.000 OA
ATOM     37  H   UNL     1      49.501   2.377  18.387  0.00  0.00    +0.000 HD
ENDBRANCH  35  36
ENDBRANCH  23  35
ENDBRANCH   4  23
TORSDOF 9
ENDMDL
MODEL 9
REMARK VINA RESULT:    -6.851      3.036      4.170
REMARK INTER + INTRA:         -10.587
REMARK INTER:                  -9.394
REMARK INTRA:                  -1.193
REMARK UNBOUND:                -0.531
REMARK  Name = 
REMARK  9 active torsions:
REMARK  status: ('A' for Active; 'I' for Inactive)
REMARK    1  A    between atoms: N_1  and  C_2
REMARK    2  A    between atoms: C_2  and  C_3
REMARK    3  A    between atoms: C_2  and  C_22
REMARK    4  A    between atoms: C_3  and  C_4
REMARK    5  A    between atoms: C_7  and  CA_8
REMARK    6  A    between atoms: CA_8  and  C_9
REMARK    7  A    between atoms: CA_8  and  N_11
REMARK    8  A    between atoms: C_9  and  O_10
REMARK    9  A    between atoms: C_12  and  C_14
REMARK                            x       y       z     vdW  Elec       q    Type
REMARK                         _______ _______ _______ _____ _____    ______ ____
ROOT
ATOM      1  C   UNL     1      49.098   7.444  14.784  0.00  0.00    +0.000 A 
ATOM      2  C   UNL     1      48.399   6.448  14.099  0.00  0.00    +0.000 A 
ATOM      3  C   UNL     1      47.318   6.763  13.281  0.00  0.00    +0.000 A 
ATOM      4  C   UNL     1      46.878   8.084  13.139  0.00  0.00    +0.000 A 
ATOM      5  C   UNL     1      47.495   9.073  13.918  0.00  0.00    +0.000 A 
ATOM      6  C   UNL     1      48.596   8.753  14.732  0.00  0.00    +0.000 A 
ENDROOT
BRANCH   1   7
ATOM      7  C   UNL     1      50.360   7.136  15.578  0.00  0.00    +0.000 C 
BRANCH   7   8
ATOM      8  C   UNL     1      50.219   6.055  16.689  0.00  0.00    +0.000 C 
BRANCH   8   9
ATOM      9  C   UNL     1      49.753   6.603  18.017  0.00  0.00    +0.000 A 
ATOM     10  C   UNL     1      49.768   7.942  18.377  0.00  0.00    +0.000 A 
ATOM     11  S   UNL     1      49.206   8.219  19.965  0.00  0.00    +0.000 S 
ATOM     12  C   UNL     1      48.936   6.560  20.225  0.00  0.00    +0.000 A 
ATOM     13  N   UNL     1      48.451   6.102  21.412  0.00  0.00    +0.000 NA
ATOM     14  C   UNL     1      48.302   4.819  21.463  0.00  0.00    +0.000 A 
ATOM     15  N   UNL     1      48.593   3.950  20.440  0.00  0.00    +0.000 N 
ATOM     16  C   UNL     1      49.095   4.364  19.228  0.00  0.00    +0.000 A 
ATOM     17  O   UNL     1      49.364   3.553  18.348  0.00  0.00    +0.000 OA
ATOM     18  C   UNL     1      49.269   5.803  19.116  0.00  0.00    +0.000 A 
ATOM     19  H   UNL     1      48.462   2.960  20.547  0.00  0.00    +0.000 HD
ENDBRANCH   8   9
BRANCH   8  20
ATOM     20  N   UNL     1      51.455   5.307  16.951  0.00  0.00    +0.000 NA
ATOM     21  H   UNL     1      51.216   4.449  17.447  0.00  0.00    +0.000 HD
ATOM     22  H   UNL     1      52.064   5.838  17.570  0.00  0.00    +0.000 HD
ENDBRANCH   8  20
ENDBRANCH   7   8
ENDBRANCH   1   7
BRANCH   4  23
ATOM     23  CA  UNL     1      45.816   8.363  12.089  0.00  0.00    +0.000 C 
BRANCH  23  24
ATOM     24  N   UNL     1      44.716   7.414  12.150  0.00  0.00    +0.000 N 
ATOM     25  C   UNL     1      44.635   6.371  11.248  0.00  0.00    +0.000 C 
ATOM     26  O   UNL     1      45.491   6.166  10.394  0.00  0.00    +0.000 OA
ATOM     27  H   UNL     1      43.875   7.733  12.610  0.00  0.00    +0.000 HD
BRANCH  25  28
ATOM     28  C   UNL     1      43.384   5.505  11.396  0.00  0.00    +0.000 C 
ATOM     29  C   UNL     1      43.111   5.135  12.860  0.00  0.00    +0.000 C 
ATOM     30  C   UNL     1      43.989   3.985  13.357  0.00  0.00    +0.000 C 
ATOM     31  N   UNL     1      43.902   2.813  12.487  0.00  0.00    +0.000 NA
ATOM     32  C   UNL     1      44.332   3.150  11.129  0.00  0.00    +0.000 C 
ATOM     33  C   UNL     1      43.451   4.241  10.523  0.00  0.00    +0.000 C 
ATOM     34  H   UNL     1      42.940   2.476  12.462  0.00  0.00    +0.000 HD
ENDBRANCH  25  28
ENDBRANCH  23  24
BRANCH  23  35
ATOM     35  C   UNL     1      45.341   9.835  12.113  0.00  0.00    +0.000 C 
BRANCH  35  36
ATOM     36  O   UNL     1      43.962   9.951  12.480  0.00  0.00    +0.000 OA
ATOM     37  H   UNL     1      43.939   9.982  13.453  0.00  0.00    +0.000 HD
ENDBRANCH  35  36
ENDBRANCH  23  35
ENDBRANCH   4  23
TORSDOF 9
ENDMDL
