MODEL 1
REMARK VINA RESULT:    -8.672      0.000      0.000
REMARK INTER + INTRA:         -13.464
REMARK INTER:                 -12.220
REMARK INTRA:                  -1.244
REMARK UNBOUND:                -1.244
REMARK  Name = 
REMARK  8 active torsions:
REMARK  status: ('A' for Active; 'I' for Inactive)
REMARK    1  A    between atoms: C_1  and  N_2
REMARK    2  A    between atoms: N_2  and  C_3
REMARK    3  A    between atoms: N_2  and  C_10
REMARK    4  A    between atoms: C_3  and  C_4
REMARK    5  A    between atoms: C_10  and  C_11
REMARK    6  A    between atoms: C_14  and  C_15
REMARK    7  A    between atoms: C_15  and  N_16
REMARK    8  A    between atoms: C_17  and  C_19
REMARK                            x       y       z     vdW  Elec       q    Type
REMARK                         _______ _______ _______ _____ _____    ______ ____
ROOT
ATOM      1  C   UNL     1      44.891   5.684  11.018  0.00  0.00    +0.000 A 
ATOM      2  C   UNL     1      46.189   6.002  10.623  0.00  0.00    +0.000 A 
ATOM      3  C   UNL     1      46.947   6.858  11.419  0.00  0.00    +0.000 A 
ATOM      4  C   UNL     1      46.393   7.405  12.580  0.00  0.00    +0.000 A 
ATOM      5  C   UNL     1      45.082   7.053  12.882  0.00  0.00    +0.000 A 
ATOM      6  N   UNL     1      44.325   6.214  12.134  0.00  0.00    +0.000 NA
ENDROOT
BRANCH   1   7
ATOM      7  C   UNL     1      44.066   4.689  10.213  0.00  0.00    +0.000 C 
BRANCH   7   9
ATOM      8  C   UNL     1      43.586   2.664  11.451  0.00  0.00    +0.000 C 
ATOM      9  N   UNL     1      44.438   3.260  10.412  0.00  0.00    +0.000 NA
BRANCH   9  10
ATOM     10  C   UNL     1      44.268   2.552   9.123  0.00  0.00    +0.000 C 
BRANCH  10  11
ATOM     11  C   UNL     1      45.495   2.465   8.231  0.00  0.00    +0.000 A 
ATOM     12  C   UNL     1      46.219   1.262   8.169  0.00  0.00    +0.000 A 
ATOM     13  C   UNL     1      47.286   1.109   7.281  0.00  0.00    +0.000 A 
ATOM     14  C   UNL     1      47.646   2.160   6.440  0.00  0.00    +0.000 A 
ATOM     15  C   UNL     1      46.945   3.364   6.495  0.00  0.00    +0.000 A 
ATOM     16  C   UNL     1      45.873   3.514   7.379  0.00  0.00    +0.000 A 
ENDBRANCH  10  11
ENDBRANCH   9  10
ENDBRANCH   7   9
ENDBRANCH   1   7
BRANCH   4  17
ATOM     17  C   UNL     1      47.194   8.292  13.486  0.00  0.00    +0.000 C 
BRANCH  17  18
ATOM     18  N   UNL     1      47.595   7.601  14.689  0.00  0.00    +0.000 N 
ATOM     19  C   UNL     1      48.788   6.920  14.747  0.00  0.00    +0.000 C 
ATOM     20  O   UNL     1      49.577   6.922  13.806  0.00  0.00    +0.000 OA
ATOM     21  H   UNL     1      46.873   7.398  15.375  0.00  0.00    +0.000 HD
BRANCH  19  22
ATOM     22  C   UNL     1      49.105   6.236  16.007  0.00  0.00    +0.000 A 
ATOM     23  C   UNL     1      50.159   6.693  16.788  0.00  0.00    +0.000 A 
ATOM     24  S   UNL     1      50.369   5.824  18.240  0.00  0.00    +0.000 S 
ATOM     25  C   UNL     1      49.092   4.770  17.853  0.00  0.00    +0.000 A 
ATOM     26  N   UNL     1      48.752   3.752  18.691  0.00  0.00    +0.000 NA
ATOM     27  C   UNL     1      47.786   3.009  18.261  0.00  0.00    +0.000 A 
ATOM     28  N   UNL     1      47.123   3.199  17.075  0.00  0.00    +0.000 N 
ATOM     29  C   UNL     1      47.410   4.232  16.214  0.00  0.00    +0.000 A 
ATOM     30  O   UNL     1      46.777   4.398  15.176  0.00  0.00    +0.000 OA
ATOM     31  C   UNL     1      48.498   5.089  16.644  0.00  0.00    +0.000 A 
ATOM     32  H   UNL     1      46.369   2.587  16.803  0.00  0.00    +0.000 HD
ENDBRANCH  19  22
ENDBRANCH  17  18
ENDBRANCH   4  17
TORSDOF 7
ENDMDL
MODEL 2
REMARK VINA RESULT:    -7.918      1.932      2.362
REMARK INTER + INTRA:         -12.402
REMARK INTER:                 -11.683
REMARK INTRA:                  -0.719
REMARK UNBOUND:                -1.244
REMARK  Name = 
REMARK  8 active torsions:
REMARK  status: ('A' for Active; 'I' for Inactive)
REMARK    1  A    between atoms: C_1  and  N_2
REMARK    2  A    between atoms: N_2  and  C_3
REMARK    3  A    between atoms: N_2  and  C_10
REMARK    4  A    between atoms: C_3  and  C_4
REMARK    5  A    between atoms: C_10  and  C_11
REMARK    6  A    between atoms: C_14  and  C_15
REMARK    7  A    between atoms: C_15  and  N_16
REMARK    8  A    between atoms: C_17  and  C_19
REMARK                            x       y       z     vdW  Elec       q    Type
REMARK                         _______ _______ _______ _____ _____    ______ ____
ROOT
ATOM      1  C   UNL     1      45.547   5.532  11.788  0.00  0.00    +0.000 A 
ATOM      2  C   UNL     1      46.349   6.547  11.270  0.00  0.00    +0.000 A 
ATOM      3  C   UNL     1      47.439   6.993  12.014  0.00  0.00    +0.000 A 
ATOM      4  C   UNL     1      47.698   6.441  13.271  0.00  0.00    +0.000 A 
ATOM      5  C   UNL     1      46.831   5.451  13.719  0.00  0.00    +0.000 A 
ATOM      6  N   UNL     1      45.770   4.988  13.013  0.00  0.00    +0.000 NA
ENDROOT
BRANCH   1   7
ATOM      7  C   UNL     1      44.398   4.968  10.964  0.00  0.00    +0.000 C 
BRANCH   7   9
ATOM      8  C   UNL     1      43.602   2.696  11.228  0.00  0.00    +0.000 C 
ATOM      9  N   UNL     1      44.571   3.553  10.530  0.00  0.00    +0.000 NA
BRANCH   9  10
ATOM     10  C   UNL     1      44.370   3.489   9.065  0.00  0.00    +0.000 C 
BRANCH  10  11
ATOM     11  C   UNL     1      45.474   2.825   8.259  0.00  0.00    +0.000 A 
ATOM     12  C   UNL     1      46.296   3.613   7.434  0.00  0.00    +0.000 A 
ATOM     13  C   UNL     1      47.388   3.056   6.765  0.00  0.00    +0.000 A 
ATOM     14  C   UNL     1      47.675   1.701   6.909  0.00  0.00    +0.000 A 
ATOM     15  C   UNL     1      46.865   0.903   7.716  0.00  0.00    +0.000 A 
ATOM     16  C   UNL     1      45.776   1.461   8.392  0.00  0.00    +0.000 A 
ENDBRANCH  10  11
ENDBRANCH   9  10
ENDBRANCH   7   9
ENDBRANCH   1   7
BRANCH   4  17
ATOM     17  C   UNL     1      48.890   6.861  14.080  0.00  0.00    +0.000 C 
BRANCH  17  18
ATOM     18  N   UNL     1      48.542   7.095  15.461  0.00  0.00    +0.000 N 
ATOM     19  C   UNL     1      49.268   6.522  16.478  0.00  0.00    +0.000 C 
ATOM     20  O   UNL     1      50.268   5.844  16.253  0.00  0.00    +0.000 OA
ATOM     21  H   UNL     1      47.609   7.449  15.656  0.00  0.00    +0.000 HD
BRANCH  19  22
ATOM     22  C   UNL     1      48.831   6.805  17.852  0.00  0.00    +0.000 A 
ATOM     23  C   UNL     1      48.511   8.107  18.214  0.00  0.00    +0.000 A 
ATOM     24  S   UNL     1      47.978   8.261  19.827  0.00  0.00    +0.000 S 
ATOM     25  C   UNL     1      48.205   6.601  20.115  0.00  0.00    +0.000 A 
ATOM     26  N   UNL     1      47.945   6.065  21.339  0.00  0.00    +0.000 NA
ATOM     27  C   UNL     1      48.190   4.800  21.430  0.00  0.00    +0.000 A 
ATOM     28  N   UNL     1      48.662   4.021  20.404  0.00  0.00    +0.000 N 
ATOM     29  C   UNL     1      48.908   4.512  19.143  0.00  0.00    +0.000 A 
ATOM     30  O   UNL     1      49.297   3.784  18.235  0.00  0.00    +0.000 OA
ATOM     31  C   UNL     1      48.660   5.932  18.992  0.00  0.00    +0.000 A 
ATOM     32  H   UNL     1      48.823   3.034  20.538  0.00  0.00    +0.000 HD
ENDBRANCH  19  22
ENDBRANCH  17  18
ENDBRANCH   4  17
TORSDOF 7
ENDMDL
MODEL 3
REMARK VINA RESULT:    -7.797      2.293      2.707
REMARK INTER + INTRA:         -12.231
REMARK INTER:                 -11.259
REMARK INTRA:                  -0.972
REMARK UNBOUND:                -1.244
REMARK  Name = 
REMARK  8 active torsions:
REMARK  status: ('A' for Active; 'I' for Inactive)
REMARK    1  A    between atoms: C_1  and  N_2
REMARK    2  A    between atoms: N_2  and  C_3
REMARK    3  A    between atoms: N_2  and  C_10
REMARK    4  A    between atoms: C_3  and  C_4
REMARK    5  A    between atoms: C_10  and  C_11
REMARK    6  A    between atoms: C_14  and  C_15
REMARK    7  A    between atoms: C_15  and  N_16
REMARK    8  A    between atoms: C_17  and  C_19
REMARK                            x       y       z     vdW  Elec       q    Type
REMARK                         _______ _______ _______ _____ _____    ______ ____
ROOT
ATOM      1  C   UNL     1      45.527   5.614  11.822  0.00  0.00    +0.000 A 
ATOM      2  C   UNL     1      46.296   6.705  11.426  0.00  0.00    +0.000 A 
ATOM      3  C   UNL     1      47.348   7.122  12.240  0.00  0.00    +0.000 A 
ATOM      4  C   UNL     1      47.600   6.463  13.446  0.00  0.00    +0.000 A 
ATOM      5  C   UNL     1      46.765   5.400  13.772  0.00  0.00    +0.000 A 
ATOM      6  N   UNL     1      45.743   4.965  12.996  0.00  0.00    +0.000 NA
ENDROOT
BRANCH   1   7
ATOM      7  C   UNL     1      44.423   5.085  10.916  0.00  0.00    +0.000 C 
BRANCH   7   9
ATOM      8  C   UNL     1      43.598   2.820  11.147  0.00  0.00    +0.000 C 
ATOM      9  N   UNL     1      44.594   3.671  10.478  0.00  0.00    +0.000 NA
BRANCH   9  10
ATOM     10  C   UNL     1      44.429   3.617   9.008  0.00  0.00    +0.000 C 
BRANCH  10  11
ATOM     11  C   UNL     1      45.548   2.948   8.227  0.00  0.00    +0.000 A 
ATOM     12  C   UNL     1      45.852   1.598   8.476  0.00  0.00    +0.000 A 
ATOM     13  C   UNL     1      46.798   0.919   7.704  0.00  0.00    +0.000 A 
ATOM     14  C   UNL     1      47.455   1.581   6.670  0.00  0.00    +0.000 A 
ATOM     15  C   UNL     1      47.173   2.923   6.415  0.00  0.00    +0.000 A 
ATOM     16  C   UNL     1      46.221   3.600   7.183  0.00  0.00    +0.000 A 
ENDBRANCH  10  11
ENDBRANCH   9  10
ENDBRANCH   7   9
ENDBRANCH   1   7
BRANCH   4  17
ATOM     17  C   UNL     1      48.752   6.852  14.324  0.00  0.00    +0.000 C 
BRANCH  17  18
ATOM     18  N   UNL     1      48.463   6.613  15.719  0.00  0.00    +0.000 N 
ATOM     19  C   UNL     1      49.451   6.207  16.584  0.00  0.00    +0.000 C 
ATOM     20  O   UNL     1      50.618   6.089  16.219  0.00  0.00    +0.000 OA
ATOM     21  H   UNL     1      47.490   6.483  15.980  0.00  0.00    +0.000 HD
BRANCH  19  22
ATOM     22  C   UNL     1      49.061   5.976  17.981  0.00  0.00    +0.000 A 
ATOM     23  C   UNL     1      49.262   4.725  18.550  0.00  0.00    +0.000 A 
ATOM     24  S   UNL     1      48.802   4.632  20.189  0.00  0.00    +0.000 S 
ATOM     25  C   UNL     1      48.268   6.246  20.184  0.00  0.00    +0.000 A 
ATOM     26  N   UNL     1      47.728   6.803  21.303  0.00  0.00    +0.000 NA
ATOM     27  C   UNL     1      47.335   8.025  21.152  0.00  0.00    +0.000 A 
ATOM     28  N   UNL     1      47.444   8.742  19.988  0.00  0.00    +0.000 N 
ATOM     29  C   UNL     1      48.011   8.231  18.844  0.00  0.00    +0.000 A 
ATOM     30  O   UNL     1      48.127   8.908  17.827  0.00  0.00    +0.000 OA
ATOM     31  C   UNL     1      48.458   6.856  18.957  0.00  0.00    +0.000 A 
ATOM     32  H   UNL     1      47.126   9.698  19.940  0.00  0.00    +0.000 HD
ENDBRANCH  19  22
ENDBRANCH  17  18
ENDBRANCH   4  17
TORSDOF 7
ENDMDL
MODEL 4
REMARK VINA RESULT:    -6.953      2.947      8.252
REMARK INTER + INTRA:         -11.042
REMARK INTER:                  -9.544
REMARK INTRA:                  -1.498
REMARK UNBOUND:                -1.244
REMARK  Name = 
REMARK  8 active torsions:
REMARK  status: ('A' for Active; 'I' for Inactive)
REMARK    1  A    between atoms: C_1  and  N_2
REMARK    2  A    between atoms: N_2  and  C_3
REMARK    3  A    between atoms: N_2  and  C_10
REMARK    4  A    between atoms: C_3  and  C_4
REMARK    5  A    between atoms: C_10  and  C_11
REMARK    6  A    between atoms: C_14  and  C_15
REMARK    7  A    between atoms: C_15  and  N_16
REMARK    8  A    between atoms: C_17  and  C_19
REMARK                            x       y       z     vdW  Elec       q    Type
REMARK                         _______ _______ _______ _____ _____    ______ ____
ROOT
ATOM      1  C   UNL     1      49.321   8.324  15.921  0.00  0.00    +0.000 A 
ATOM      2  C   UNL     1      50.019   7.467  15.073  0.00  0.00    +0.000 A 
ATOM      3  C   UNL     1      49.561   7.286  13.769  0.00  0.00    +0.000 A 
ATOM      4  C   UNL     1      48.403   7.938  13.339  0.00  0.00    +0.000 A 
ATOM      5  C   UNL     1      47.757   8.754  14.261  0.00  0.00    +0.000 A 
ATOM      6  N   UNL     1      48.185   8.959  15.531  0.00  0.00    +0.000 NA
ENDROOT
BRANCH   1   7
ATOM      7  C   UNL     1      49.840   8.605  17.324  0.00  0.00    +0.000 C 
BRANCH   7   9
ATOM      8  C   UNL     1      50.606   7.790  19.471  0.00  0.00    +0.000 C 
ATOM      9  N   UNL     1      50.029   7.399  18.178  0.00  0.00    +0.000 NA
BRANCH   9  10
ATOM     10  C   UNL     1      48.710   6.751  18.365  0.00  0.00    +0.000 C 
BRANCH  10  11
ATOM     11  C   UNL     1      48.582   5.322  17.865  0.00  0.00    +0.000 A 
ATOM     12  C   UNL     1      49.743   4.558  17.653  0.00  0.00    +0.000 A 
ATOM     13  C   UNL     1      49.661   3.209  17.300  0.00  0.00    +0.000 A 
ATOM     14  C   UNL     1      48.416   2.603  17.152  0.00  0.00    +0.000 A 
ATOM     15  C   UNL     1      47.254   3.348  17.349  0.00  0.00    +0.000 A 
ATOM     16  C   UNL     1      47.335   4.697  17.710  0.00  0.00    +0.000 A 
ENDBRANCH  10  11
ENDBRANCH   9  10
ENDBRANCH   7   9
ENDBRANCH   1   7
BRANCH   4  17
ATOM     17  C   UNL     1      47.908   7.805  11.929  0.00  0.00    +0.000 C 
BRANCH  17  18
ATOM     18  N   UNL     1      47.162   6.583  11.739  0.00  0.00    +0.000 N 
ATOM     19  C   UNL     1      45.789   6.579  11.802  0.00  0.00    +0.000 C 
ATOM     20  O   UNL     1      45.148   7.614  11.963  0.00  0.00    +0.000 OA
ATOM     21  H   UNL     1      47.667   5.706  11.836  0.00  0.00    +0.000 HD
BRANCH  19  22
ATOM     22  C   UNL     1      45.116   5.287  11.611  0.00  0.00    +0.000 A 
ATOM     23  C   UNL     1      44.436   4.706  12.673  0.00  0.00    +0.000 A 
ATOM     24  S   UNL     1      43.670   3.234  12.277  0.00  0.00    +0.000 S 
ATOM     25  C   UNL     1      44.264   3.295  10.685  0.00  0.00    +0.000 A 
ATOM     26  N   UNL     1      43.985   2.298   9.800  0.00  0.00    +0.000 NA
ATOM     27  C   UNL     1      44.524   2.453   8.637  0.00  0.00    +0.000 A 
ATOM     28  N   UNL     1      45.308   3.519   8.275  0.00  0.00    +0.000 N 
ATOM     29  C   UNL     1      45.590   4.563   9.124  0.00  0.00    +0.000 A 
ATOM     30  O   UNL     1      46.266   5.521   8.762  0.00  0.00    +0.000 OA
ATOM     31  C   UNL     1      45.018   4.431  10.450  0.00  0.00    +0.000 A 
ATOM     32  H   UNL     1      45.691   3.585   7.344  0.00  0.00    +0.000 HD
ENDBRANCH  19  22
ENDBRANCH  17  18
ENDBRANCH   4  17
TORSDOF 7
ENDMDL
MODEL 5
REMARK VINA RESULT:    -6.914      3.639      5.236
REMARK INTER + INTRA:         -10.987
REMARK INTER:                  -9.998
REMARK INTRA:                  -0.989
REMARK UNBOUND:                -1.244
REMARK  Name = 
REMARK  8 active torsions:
REMARK  status: ('A' for Active; 'I' for Inactive)
REMARK    1  A    between atoms: C_1  and  N_2
REMARK    2  A    between atoms: N_2  and  C_3
REMARK    3  A    between atoms: N_2  and  C_10
REMARK    4  A    between atoms: C_3  and  C_4
REMARK    5  A    between atoms: C_10  and  C_11
REMARK    6  A    between atoms: C_14  and  C_15
REMARK    7  A    between atoms: C_15  and  N_16
REMARK    8  A    between atoms: C_17  and  C_19
REMARK                            x       y       z     vdW  Elec       q    Type
REMARK                         _______ _______ _______ _____ _____    ______ ____
ROOT
ATOM      1  C   UNL     1      45.754   5.491  11.896  0.00  0.00    +0.000 A 
ATOM      2  C   UNL     1      45.939   4.884  13.136  0.00  0.00    +0.000 A 
ATOM      3  C   UNL     1      46.964   5.336  13.964  0.00  0.00    +0.000 A 
ATOM      4  C   UNL     1      47.806   6.365  13.535  0.00  0.00    +0.000 A 
ATOM      5  C   UNL     1      47.563   6.894  12.272  0.00  0.00    +0.000 A 
ATOM      6  N   UNL     1      46.567   6.484  11.450  0.00  0.00    +0.000 NA
ENDROOT
BRANCH   1   7
ATOM      7  C   UNL     1      44.594   5.074  11.003  0.00  0.00    +0.000 C 
BRANCH   7   9
ATOM      8  C   UNL     1      43.583   2.882  11.198  0.00  0.00    +0.000 C 
ATOM      9  N   UNL     1      44.638   3.661  10.533  0.00  0.00    +0.000 NA
BRANCH   9  10
ATOM     10  C   UNL     1      44.451   3.654   9.065  0.00  0.00    +0.000 C 
BRANCH  10  11
ATOM     11  C   UNL     1      45.531   2.962   8.249  0.00  0.00    +0.000 A 
ATOM     12  C   UNL     1      45.838   1.616   8.511  0.00  0.00    +0.000 A 
ATOM     13  C   UNL     1      46.746   0.916   7.712  0.00  0.00    +0.000 A 
ATOM     14  C   UNL     1      47.361   1.554   6.638  0.00  0.00    +0.000 A 
ATOM     15  C   UNL     1      47.075   2.892   6.369  0.00  0.00    +0.000 A 
ATOM     16  C   UNL     1      46.162   3.590   7.164  0.00  0.00    +0.000 A 
ENDBRANCH  10  11
ENDBRANCH   9  10
ENDBRANCH   7   9
ENDBRANCH   1   7
BRANCH   4  17
ATOM     17  C   UNL     1      48.889   6.910  14.417  0.00  0.00    +0.000 C 
BRANCH  17  18
ATOM     18  N   UNL     1      50.044   7.319  13.653  0.00  0.00    +0.000 N 
ATOM     19  C   UNL     1      50.966   8.190  14.182  0.00  0.00    +0.000 C 
ATOM     20  O   UNL     1      50.875   8.604  15.334  0.00  0.00    +0.000 OA
ATOM     21  H   UNL     1      50.015   7.176  12.648  0.00  0.00    +0.000 HD
BRANCH  19  22
ATOM     22  C   UNL     1      52.101   8.560  13.326  0.00  0.00    +0.000 A 
ATOM     23  C   UNL     1      53.397   8.304  13.758  0.00  0.00    +0.000 A 
ATOM     24  S   UNL     1      54.598   8.748  12.633  0.00  0.00    +0.000 S 
ATOM     25  C   UNL     1      53.434   9.347  11.549  0.00  0.00    +0.000 A 
ATOM     26  N   UNL     1      53.809   9.902  10.363  0.00  0.00    +0.000 NA
ATOM     27  C   UNL     1      52.827  10.345   9.650  0.00  0.00    +0.000 A 
ATOM     28  N   UNL     1      51.506  10.274  10.010  0.00  0.00    +0.000 N 
ATOM     29  C   UNL     1      51.079   9.695  11.182  0.00  0.00    +0.000 A 
ATOM     30  O   UNL     1      49.887   9.614  11.462  0.00  0.00    +0.000 OA
ATOM     31  C   UNL     1      52.145   9.192  12.026  0.00  0.00    +0.000 A 
ATOM     32  H   UNL     1      50.785  10.631   9.400  0.00  0.00    +0.000 HD
ENDBRANCH  19  22
ENDBRANCH  17  18
ENDBRANCH   4  17
TORSDOF 7
ENDMDL
MODEL 6
REMARK VINA RESULT:    -6.628      3.347      8.673
REMARK INTER + INTRA:         -10.585
REMARK INTER:                  -9.704
REMARK INTRA:                  -0.881
REMARK UNBOUND:                -1.244
REMARK  Name = 
REMARK  8 active torsions:
REMARK  status: ('A' for Active; 'I' for Inactive)
REMARK    1  A    between atoms: C_1  and  N_2
REMARK    2  A    between atoms: N_2  and  C_3
REMARK    3  A    between atoms: N_2  and  C_10
REMARK    4  A    between atoms: C_3  and  C_4
REMARK    5  A    between atoms: C_10  and  C_11
REMARK    6  A    between atoms: C_14  and  C_15
REMARK    7  A    between atoms: C_15  and  N_16
REMARK    8  A    between atoms: C_17  and  C_19
REMARK                            x       y       z     vdW  Elec       q    Type
REMARK                         _______ _______ _______ _____ _____    ______ ____
ROOT
ATOM      1  C   UNL     1      50.258   7.214  15.495  0.00  0.00    +0.000 A 
ATOM      2  C   UNL     1      50.679   8.086  14.493  0.00  0.00    +0.000 A 
ATOM      3  C   UNL     1      49.880   8.254  13.363  0.00  0.00    +0.000 A 
ATOM      4  C   UNL     1      48.690   7.533  13.236  0.00  0.00    +0.000 A 
ATOM      5  C   UNL     1      48.362   6.667  14.273  0.00  0.00    +0.000 A 
ATOM      6  N   UNL     1      49.111   6.492  15.389  0.00  0.00    +0.000 NA
ENDROOT
BRANCH   1   7
ATOM      7  C   UNL     1      51.067   7.070  16.776  0.00  0.00    +0.000 C 
BRANCH   7   9
ATOM      8  C   UNL     1      53.385   6.369  16.757  0.00  0.00    +0.000 C 
ATOM      9  N   UNL     1      51.992   5.902  16.806  0.00  0.00    +0.000 NA
BRANCH   9  10
ATOM     10  C   UNL     1      51.737   5.140  18.049  0.00  0.00    +0.000 C 
BRANCH  10  11
ATOM     11  C   UNL     1      51.965   3.639  17.981  0.00  0.00    +0.000 A 
ATOM     12  C   UNL     1      50.945   2.807  17.487  0.00  0.00    +0.000 A 
ATOM     13  C   UNL     1      51.156   1.438  17.307  0.00  0.00    +0.000 A 
ATOM     14  C   UNL     1      52.393   0.879  17.619  0.00  0.00    +0.000 A 
ATOM     15  C   UNL     1      53.413   1.687  18.118  0.00  0.00    +0.000 A 
ATOM     16  C   UNL     1      53.204   3.059  18.292  0.00  0.00    +0.000 A 
ENDBRANCH  10  11
ENDBRANCH   9  10
ENDBRANCH   7   9
ENDBRANCH   1   7
BRANCH   4  17
ATOM     17  C   UNL     1      47.782   7.724  12.058  0.00  0.00    +0.000 C 
BRANCH  17  18
ATOM     18  N   UNL     1      47.036   6.524  11.760  0.00  0.00    +0.000 N 
ATOM     19  C   UNL     1      45.707   6.420  12.091  0.00  0.00    +0.000 C 
ATOM     20  O   UNL     1      45.093   7.357  12.596  0.00  0.00    +0.000 OA
ATOM     21  H   UNL     1      47.567   5.680  11.563  0.00  0.00    +0.000 HD
BRANCH  19  22
ATOM     22  C   UNL     1      45.034   5.157  11.762  0.00  0.00    +0.000 A 
ATOM     23  C   UNL     1      44.337   4.473  12.750  0.00  0.00    +0.000 A 
ATOM     24  S   UNL     1      43.574   3.052  12.198  0.00  0.00    +0.000 S 
ATOM     25  C   UNL     1      44.190   3.270  10.629  0.00  0.00    +0.000 A 
ATOM     26  N   UNL     1      43.920   2.368   9.644  0.00  0.00    +0.000 NA
ATOM     27  C   UNL     1      44.476   2.638   8.510  0.00  0.00    +0.000 A 
ATOM     28  N   UNL     1      45.267   3.732   8.268  0.00  0.00    +0.000 N 
ATOM     29  C   UNL     1      45.540   4.684   9.221  0.00  0.00    +0.000 A 
ATOM     30  O   UNL     1      46.223   5.671   8.967  0.00  0.00    +0.000 OA
ATOM     31  C   UNL     1      44.949   4.422  10.519  0.00  0.00    +0.000 A 
ATOM     32  H   UNL     1      45.663   3.890   7.353  0.00  0.00    +0.000 HD
ENDBRANCH  19  22
ENDBRANCH  17  18
ENDBRANCH   4  17
TORSDOF 7
ENDMDL
MODEL 7
REMARK VINA RESULT:    -6.358      3.583      8.006
REMARK INTER + INTRA:         -10.204
REMARK INTER:                  -9.467
REMARK INTRA:                  -0.737
REMARK UNBOUND:                -1.244
REMARK  Name = 
REMARK  8 active torsions:
REMARK  status: ('A' for Active; 'I' for Inactive)
REMARK    1  A    between atoms: C_1  and  N_2
REMARK    2  A    between atoms: N_2  and  C_3
REMARK    3  A    between atoms: N_2  and  C_10
REMARK    4  A    between atoms: C_3  and  C_4
REMARK    5  A    between atoms: C_10  and  C_11
REMARK    6  A    between atoms: C_14  and  C_15
REMARK    7  A    between atoms: C_15  and  N_16
REMARK    8  A    between atoms: C_17  and  C_19
REMARK                            x       y       z     vdW  Elec       q    Type
REMARK                         _______ _______ _______ _____ _____    ______ ____
ROOT
ATOM      1  C   UNL     1      49.445   8.272  17.296  0.00  0.00    +0.000 A 
ATOM      2  C   UNL     1      48.408   8.872  16.585  0.00  0.00    +0.000 A 
ATOM      3  C   UNL     1      48.366   8.728  15.199  0.00  0.00    +0.000 A 
ATOM      4  C   UNL     1      49.370   8.013  14.542  0.00  0.00    +0.000 A 
ATOM      5  C   UNL     1      50.379   7.470  15.329  0.00  0.00    +0.000 A 
ATOM      6  N   UNL     1      50.439   7.583  16.678  0.00  0.00    +0.000 NA
ENDROOT
BRANCH   1   7
ATOM      7  C   UNL     1      49.474   8.343  18.816  0.00  0.00    +0.000 C 
BRANCH   7   9
ATOM      8  C   UNL     1      49.594   7.221  20.958  0.00  0.00    +0.000 C 
ATOM      9  N   UNL     1      49.474   7.023  19.506  0.00  0.00    +0.000 NA
BRANCH   9  10
ATOM     10  C   UNL     1      48.211   6.325  19.174  0.00  0.00    +0.000 C 
BRANCH  10  11
ATOM     11  C   UNL     1      48.335   5.073  18.321  0.00  0.00    +0.000 A 
ATOM     12  C   UNL     1      49.579   4.426  18.221  0.00  0.00    +0.000 A 
ATOM     13  C   UNL     1      49.707   3.215  17.537  0.00  0.00    +0.000 A 
ATOM     14  C   UNL     1      48.592   2.632  16.941  0.00  0.00    +0.000 A 
ATOM     15  C   UNL     1      47.352   3.264  17.023  0.00  0.00    +0.000 A 
ATOM     16  C   UNL     1      47.221   4.473  17.714  0.00  0.00    +0.000 A 
ENDBRANCH  10  11
ENDBRANCH   9  10
ENDBRANCH   7   9
ENDBRANCH   1   7
BRANCH   4  17
ATOM     17  C   UNL     1      49.332   7.796  13.058  0.00  0.00    +0.000 C 
BRANCH  17  18
ATOM     18  N   UNL     1      47.997   7.493  12.597  0.00  0.00    +0.000 N 
ATOM     19  C   UNL     1      47.466   6.236  12.753  0.00  0.00    +0.000 C 
ATOM     20  O   UNL     1      48.078   5.345  13.336  0.00  0.00    +0.000 OA
ATOM     21  H   UNL     1      47.579   8.130  11.924  0.00  0.00    +0.000 HD
BRANCH  19  22
ATOM     22  C   UNL     1      46.107   6.017  12.240  0.00  0.00    +0.000 A 
ATOM     23  C   UNL     1      45.407   7.078  11.680  0.00  0.00    +0.000 A 
ATOM     24  S   UNL     1      43.865   6.651  11.091  0.00  0.00    +0.000 S 
ATOM     25  C   UNL     1      44.055   5.044  11.611  0.00  0.00    +0.000 A 
ATOM     26  N   UNL     1      43.061   4.131  11.425  0.00  0.00    +0.000 NA
ATOM     27  C   UNL     1      43.323   2.957  11.895  0.00  0.00    +0.000 A 
ATOM     28  N   UNL     1      44.492   2.610  12.524  0.00  0.00    +0.000 N 
ATOM     29  C   UNL     1      45.534   3.489  12.706  0.00  0.00    +0.000 A 
ATOM     30  O   UNL     1      46.582   3.142  13.241  0.00  0.00    +0.000 OA
ATOM     31  C   UNL     1      45.285   4.828  12.206  0.00  0.00    +0.000 A 
ATOM     32  H   UNL     1      44.638   1.670  12.860  0.00  0.00    +0.000 HD
ENDBRANCH  19  22
ENDBRANCH  17  18
ENDBRANCH   4  17
TORSDOF 7
ENDMDL
MODEL 8
REMARK VINA RESULT:    -5.988      3.386      9.495
REMARK INTER + INTRA:          -9.683
REMARK INTER:                  -8.555
REMARK INTRA:                  -1.128
REMARK UNBOUND:                -1.244
REMARK  Name = 
REMARK  8 active torsions:
REMARK  status: ('A' for Active; 'I' for Inactive)
REMARK    1  A    between atoms: C_1  and  N_2
REMARK    2  A    between atoms: N_2  and  C_3
REMARK    3  A    between atoms: N_2  and  C_10
REMARK    4  A    between atoms: C_3  and  C_4
REMARK    5  A    between atoms: C_10  and  C_11
REMARK    6  A    between atoms: C_14  and  C_15
REMARK    7  A    between atoms: C_15  and  N_16
REMARK    8  A    between atoms: C_17  and  C_19
REMARK                            x       y       z     vdW  Elec       q    Type
REMARK                         _______ _______ _______ _____ _____    ______ ____
ROOT
ATOM      1  C   UNL     1      50.314   6.891  15.868  0.00  0.00    +0.000 A 
ATOM      2  C   UNL     1      50.711   7.809  14.899  0.00  0.00    +0.000 A 
ATOM      3  C   UNL     1      49.879   8.041  13.806  0.00  0.00    +0.000 A 
ATOM      4  C   UNL     1      48.680   7.336  13.681  0.00  0.00    +0.000 A 
ATOM      5  C   UNL     1      48.376   6.421  14.682  0.00  0.00    +0.000 A 
ATOM      6  N   UNL     1      49.159   6.183  15.763  0.00  0.00    +0.000 NA
ENDROOT
BRANCH   1   7
ATOM      7  C   UNL     1      51.162   6.675  17.114  0.00  0.00    +0.000 C 
BRANCH   7   9
ATOM      8  C   UNL     1      50.849   4.982  18.816  0.00  0.00    +0.000 C 
ATOM      9  N   UNL     1      50.398   6.296  18.336  0.00  0.00    +0.000 NA
BRANCH   9  10
ATOM     10  C   UNL     1      50.621   7.337  19.365  0.00  0.00    +0.000 C 
BRANCH  10  11
ATOM     11  C   UNL     1      49.401   8.133  19.797  0.00  0.00    +0.000 A 
ATOM     12  C   UNL     1      48.474   8.554  18.828  0.00  0.00    +0.000 A 
ATOM     13  C   UNL     1      47.287   9.192  19.198  0.00  0.00    +0.000 A 
ATOM     14  C   UNL     1      47.010   9.419  20.544  0.00  0.00    +0.000 A 
ATOM     15  C   UNL     1      47.923   9.016  21.518  0.00  0.00    +0.000 A 
ATOM     16  C   UNL     1      49.107   8.371  21.148  0.00  0.00    +0.000 A 
ENDBRANCH  10  11
ENDBRANCH   9  10
ENDBRANCH   7   9
ENDBRANCH   1   7
BRANCH   4  17
ATOM     17  C   UNL     1      47.736   7.594  12.543  0.00  0.00    +0.000 C 
BRANCH  17  18
ATOM     18  N   UNL     1      47.024   6.397  12.160  0.00  0.00    +0.000 N 
ATOM     19  C   UNL     1      45.651   6.359  12.176  0.00  0.00    +0.000 C 
ATOM     20  O   UNL     1      44.981   7.349  12.459  0.00  0.00    +0.000 OA
ATOM     21  H   UNL     1      47.546   5.525  12.150  0.00  0.00    +0.000 HD
BRANCH  19  22
ATOM     22  C   UNL     1      45.014   5.094  11.784  0.00  0.00    +0.000 A 
ATOM     23  C   UNL     1      44.300   4.366  12.727  0.00  0.00    +0.000 A 
ATOM     24  S   UNL     1      43.583   2.950  12.104  0.00  0.00    +0.000 S 
ATOM     25  C   UNL     1      44.244   3.231  10.563  0.00  0.00    +0.000 A 
ATOM     26  N   UNL     1      44.024   2.358   9.542  0.00  0.00    +0.000 NA
ATOM     27  C   UNL     1      44.610   2.675   8.435  0.00  0.00    +0.000 A 
ATOM     28  N   UNL     1      45.387   3.791   8.255  0.00  0.00    +0.000 N 
ATOM     29  C   UNL     1      45.610   4.716   9.248  0.00  0.00    +0.000 A 
ATOM     30  O   UNL     1      46.281   5.724   9.048  0.00  0.00    +0.000 OA
ATOM     31  C   UNL     1      44.983   4.400  10.516  0.00  0.00    +0.000 A 
ATOM     32  H   UNL     1      45.809   3.987   7.360  0.00  0.00    +0.000 HD
ENDBRANCH  19  22
ENDBRANCH  17  18
ENDBRANCH   4  17
TORSDOF 7
ENDMDL
MODEL 9
REMARK VINA RESULT:    -5.972      3.311      8.930
REMARK INTER + INTRA:          -9.661
REMARK INTER:                  -8.616
REMARK INTRA:                  -1.045
REMARK UNBOUND:                -1.244
REMARK  Name = 
REMARK  8 active torsions:
REMARK  status: ('A' for Active; 'I' for Inactive)
REMARK    1  A    between atoms: C_1  and  N_2
REMARK    2  A    between atoms: N_2  and  C_3
REMARK    3  A    between atoms: N_2  and  C_10
REMARK    4  A    between atoms: C_3  and  C_4
REMARK    5  A    between atoms: C_10  and  C_11
REMARK    6  A    between atoms: C_14  and  C_15
REMARK    7  A    between atoms: C_15  and  N_16
REMARK    8  A    between atoms: C_17  and  C_19
REMARK                            x       y       z     vdW  Elec       q    Type
REMARK                         _______ _______ _______ _____ _____    ______ ____
ROOT
ATOM      1  C   UNL     1      50.309   6.923  15.663  0.00  0.00    +0.000 A 
ATOM      2  C   UNL     1      50.888   7.884  14.838  0.00  0.00    +0.000 A 
ATOM      3  C   UNL     1      50.230   8.257  13.668  0.00  0.00    +0.000 A 
ATOM      4  C   UNL     1      49.020   7.649  13.325  0.00  0.00    +0.000 A 
ATOM      5  C   UNL     1      48.528   6.682  14.195  0.00  0.00    +0.000 A 
ATOM      6  N   UNL     1      49.140   6.308  15.345  0.00  0.00    +0.000 NA
ENDROOT
BRANCH   1   7
ATOM      7  C   UNL     1      50.963   6.553  16.987  0.00  0.00    +0.000 C 
BRANCH   7   9
ATOM      8  C   UNL     1      50.497   4.626  18.378  0.00  0.00    +0.000 C 
ATOM      9  N   UNL     1      50.040   5.972  18.003  0.00  0.00    +0.000 NA
BRANCH   9  10
ATOM     10  C   UNL     1      50.023   6.869  19.181  0.00  0.00    +0.000 C 
BRANCH  10  11
ATOM     11  C   UNL     1      49.192   8.135  19.056  0.00  0.00    +0.000 A 
ATOM     12  C   UNL     1      47.824   8.097  19.376  0.00  0.00    +0.000 A 
ATOM     13  C   UNL     1      47.053   9.262  19.378  0.00  0.00    +0.000 A 
ATOM     14  C   UNL     1      47.639  10.484  19.058  0.00  0.00    +0.000 A 
ATOM     15  C   UNL     1      48.993  10.539  18.729  0.00  0.00    +0.000 A 
ATOM     16  C   UNL     1      49.767   9.374  18.734  0.00  0.00    +0.000 A 
ENDBRANCH  10  11
ENDBRANCH   9  10
ENDBRANCH   7   9
ENDBRANCH   1   7
BRANCH   4  17
ATOM     17  C   UNL     1      48.258   8.059  12.099  0.00  0.00    +0.000 C 
BRANCH  17  18
ATOM     18  N   UNL     1      47.575   6.939  11.497  0.00  0.00    +0.000 N 
ATOM     19  C   UNL     1      46.202   6.902  11.434  0.00  0.00    +0.000 C 
ATOM     20  O   UNL     1      45.513   7.838  11.831  0.00  0.00    +0.000 OA
ATOM     21  H   UNL     1      48.101   6.077  11.379  0.00  0.00    +0.000 HD
BRANCH  19  22
ATOM     22  C   UNL     1      45.594   5.716  10.817  0.00  0.00    +0.000 A 
ATOM     23  C   UNL     1      45.726   5.512   9.449  0.00  0.00    +0.000 A 
ATOM     24  S   UNL     1      45.005   4.069   8.895  0.00  0.00    +0.000 S 
ATOM     25  C   UNL     1      44.445   3.690  10.455  0.00  0.00    +0.000 A 
ATOM     26  N   UNL     1      43.717   2.561  10.677  0.00  0.00    +0.000 NA
ATOM     27  C   UNL     1      43.328   2.411  11.899  0.00  0.00    +0.000 A 
ATOM     28  N   UNL     1      43.610   3.281  12.921  0.00  0.00    +0.000 N 
ATOM     29  C   UNL     1      44.369   4.415  12.751  0.00  0.00    +0.000 A 
ATOM     30  O   UNL     1      44.635   5.158  13.691  0.00  0.00    +0.000 OA
ATOM     31  C   UNL     1      44.820   4.638  11.391  0.00  0.00    +0.000 A 
ATOM     32  H   UNL     1      43.285   3.099  13.859  0.00  0.00    +0.000 HD
ENDBRANCH  19  22
ENDBRANCH  17  18
ENDBRANCH   4  17
TORSDOF 7
ENDMDL
