MODEL 1
REMARK VINA RESULT:    -8.851      0.000      0.000
REMARK INTER + INTRA:         -13.466
REMARK INTER:                 -12.474
REMARK INTRA:                  -0.992
REMARK UNBOUND:                -0.992
REMARK  Name = 
REMARK  9 active torsions:
REMARK  status: ('A' for Active; 'I' for Inactive)
REMARK    1  A    between atoms: C_1  and  C_2
REMARK    2  A    between atoms: C_8  and  C_9
REMARK    3  A    between atoms: C_11  and  C_12
REMARK    4  A    between atoms: N_14  and  C_15
REMARK    5  A    between atoms: C_15  and  C_16
REMARK    6  A    between atoms: C_19  and  O_20
REMARK    7  A    between atoms: O_20  and  C_21
REMARK    8  A    between atoms: C_21  and  C_22
REMARK    9  A    between atoms: C_22  and  C_23
REMARK                            x       y       z     vdW  Elec       q    Type
REMARK                         _______ _______ _______ _____ _____    ______ ____
ROOT
ATOM      1  C   UNL     1      48.971   5.613  16.313  0.00  0.00    +0.000 C 
ATOM      2  O   UNL     1      50.036   6.081  15.923  0.00  0.00    +0.000 OA
ATOM      3  N   UNL     1      47.817   5.754  15.568  0.00  0.00    +0.000 N 
ATOM      4  H   UNL     1      46.937   5.645  16.050  0.00  0.00    +0.000 HD
ENDROOT
BRANCH   1  15
ATOM      5  C   UNL     1      48.752   2.463  16.710  0.00  0.00    +0.000 C 
ATOM      6  C   UNL     1      48.728   3.543  17.731  0.00  0.00    +0.000 A 
ATOM      7  N   UNL     1      48.573   3.219  19.053  0.00  0.00    +0.000 N 
ATOM      8  C   UNL     1      48.590   4.343  19.816  0.00  0.00    +0.000 A 
ATOM      9  N   UNL     1      48.439   4.306  21.148  0.00  0.00    +0.000 NA
ATOM     10  C   UNL     1      48.470   5.526  21.683  0.00  0.00    +0.000 A 
ATOM     11  N   UNL     1      48.628   6.689  21.031  0.00  0.00    +0.000 NA
ATOM     12  C   UNL     1      48.768   6.688  19.668  0.00  0.00    +0.000 A 
ATOM     13  C   UNL     1      48.913   8.044  19.059  0.00  0.00    +0.000 C 
ATOM     14  C   UNL     1      48.761   5.448  18.987  0.00  0.00    +0.000 A 
ATOM     15  C   UNL     1      48.847   4.937  17.623  0.00  0.00    +0.000 A 
ATOM     16  H   UNL     1      48.452   2.292  19.435  0.00  0.00    +0.000 HD
ENDBRANCH   1  15
BRANCH   3  17
ATOM     17  C   UNL     1      47.817   6.496  14.319  0.00  0.00    +0.000 C 
BRANCH  17  18
ATOM     18  C   UNL     1      46.794   5.967  13.336  0.00  0.00    +0.000 A 
ATOM     19  C   UNL     1      46.701   6.479  12.031  0.00  0.00    +0.000 A 
ATOM     20  C   UNL     1      45.745   5.984  11.125  0.00  0.00    +0.000 A 
ATOM     21  C   UNL     1      44.866   4.972  11.511  0.00  0.00    +0.000 A 
ATOM     22  C   UNL     1      44.943   4.471  12.811  0.00  0.00    +0.000 A 
ATOM     23  C   UNL     1      45.902   4.953  13.712  0.00  0.00    +0.000 A 
BRANCH  21  24
ATOM     24  O   UNL     1      43.863   4.446  10.737  0.00  0.00    +0.000 OA
BRANCH  24  25
ATOM     25  C   UNL     1      44.212   4.159   9.380  0.00  0.00    +0.000 C 
BRANCH  25  26
ATOM     26  C   UNL     1      44.648   2.695   9.274  0.00  0.00    +0.000 C 
BRANCH  26  27
ATOM     27  C   UNL     1      45.698   2.507   8.206  0.00  0.00    +0.000 A 
ATOM     28  C   UNL     1      45.953   3.512   7.264  0.00  0.00    +0.000 A 
ATOM     29  C   UNL     1      46.902   3.313   6.258  0.00  0.00    +0.000 A 
ATOM     30  C   UNL     1      47.598   2.108   6.180  0.00  0.00    +0.000 A 
ATOM     31  C   UNL     1      47.346   1.100   7.107  0.00  0.00    +0.000 A 
ATOM     32  C   UNL     1      46.400   1.297   8.115  0.00  0.00    +0.000 A 
ENDBRANCH  26  27
ENDBRANCH  25  26
ENDBRANCH  24  25
ENDBRANCH  21  24
ENDBRANCH  17  18
ENDBRANCH   3  17
TORSDOF 7
ENDMDL
MODEL 2
REMARK VINA RESULT:    -8.454      0.884      2.385
REMARK INTER + INTRA:         -12.905
REMARK INTER:                 -11.871
REMARK INTRA:                  -1.034
REMARK UNBOUND:                -0.992
REMARK  Name = 
REMARK  9 active torsions:
REMARK  status: ('A' for Active; 'I' for Inactive)
REMARK    1  A    between atoms: C_1  and  C_2
REMARK    2  A    between atoms: C_8  and  C_9
REMARK    3  A    between atoms: C_11  and  C_12
REMARK    4  A    between atoms: N_14  and  C_15
REMARK    5  A    between atoms: C_15  and  C_16
REMARK    6  A    between atoms: C_19  and  O_20
REMARK    7  A    between atoms: O_20  and  C_21
REMARK    8  A    between atoms: C_21  and  C_22
REMARK    9  A    between atoms: C_22  and  C_23
REMARK                            x       y       z     vdW  Elec       q    Type
REMARK                         _______ _______ _______ _____ _____    ______ ____
ROOT
ATOM      1  C   UNL     1      49.043   6.648  15.975  0.00  0.00    +0.000 C 
ATOM      2  O   UNL     1      50.203   6.519  15.595  0.00  0.00    +0.000 OA
ATOM      3  N   UNL     1      47.996   6.638  15.075  0.00  0.00    +0.000 N 
ATOM      4  H   UNL     1      47.124   7.052  15.372  0.00  0.00    +0.000 HD
ENDROOT
BRANCH   1  15
ATOM      5  C   UNL     1      48.238   9.476  17.192  0.00  0.00    +0.000 C 
ATOM      6  C   UNL     1      48.384   8.164  17.877  0.00  0.00    +0.000 A 
ATOM      7  N   UNL     1      48.177   8.083  19.229  0.00  0.00    +0.000 N 
ATOM      8  C   UNL     1      48.349   6.803  19.652  0.00  0.00    +0.000 A 
ATOM      9  N   UNL     1      48.222   6.452  20.940  0.00  0.00    +0.000 NA
ATOM     10  C   UNL     1      48.452   5.152  21.123  0.00  0.00    +0.000 A 
ATOM     11  N   UNL     1      48.775   4.250  20.183  0.00  0.00    +0.000 NA
ATOM     12  C   UNL     1      48.906   4.648  18.879  0.00  0.00    +0.000 A 
ATOM     13  C   UNL     1      49.290   3.556  17.934  0.00  0.00    +0.000 C 
ATOM     14  C   UNL     1      48.676   6.006  18.558  0.00  0.00    +0.000 A 
ATOM     15  C   UNL     1      48.706   6.887  17.396  0.00  0.00    +0.000 A 
ATOM     16  H   UNL     1      47.942   8.844  19.850  0.00  0.00    +0.000 HD
ENDBRANCH   1  15
BRANCH   3  17
ATOM     17  C   UNL     1      48.234   6.517  13.648  0.00  0.00    +0.000 C 
BRANCH  17  18
ATOM     18  C   UNL     1      47.026   5.989  12.904  0.00  0.00    +0.000 A 
ATOM     19  C   UNL     1      46.209   4.988  13.454  0.00  0.00    +0.000 A 
ATOM     20  C   UNL     1      45.090   4.500  12.754  0.00  0.00    +0.000 A 
ATOM     21  C   UNL     1      44.773   5.004  11.493  0.00  0.00    +0.000 A 
ATOM     22  C   UNL     1      45.590   5.986  10.934  0.00  0.00    +0.000 A 
ATOM     23  C   UNL     1      46.698   6.484  11.634  0.00  0.00    +0.000 A 
BRANCH  21  24
ATOM     24  O   UNL     1      43.742   4.574  10.696  0.00  0.00    +0.000 OA
BRANCH  24  25
ATOM     25  C   UNL     1      44.104   4.199   9.364  0.00  0.00    +0.000 C 
BRANCH  25  26
ATOM     26  C   UNL     1      44.605   2.752   9.369  0.00  0.00    +0.000 C 
BRANCH  26  27
ATOM     27  C   UNL     1      45.633   2.520   8.288  0.00  0.00    +0.000 A 
ATOM     28  C   UNL     1      45.962   3.534   7.379  0.00  0.00    +0.000 A 
ATOM     29  C   UNL     1      46.888   3.295   6.360  0.00  0.00    +0.000 A 
ATOM     30  C   UNL     1      47.488   2.043   6.237  0.00  0.00    +0.000 A 
ATOM     31  C   UNL     1      47.162   1.027   7.132  0.00  0.00    +0.000 A 
ATOM     32  C   UNL     1      46.239   1.262   8.152  0.00  0.00    +0.000 A 
ENDBRANCH  26  27
ENDBRANCH  25  26
ENDBRANCH  24  25
ENDBRANCH  21  24
ENDBRANCH  17  18
ENDBRANCH   3  17
TORSDOF 7
ENDMDL
MODEL 3
REMARK VINA RESULT:    -8.287      1.575      2.610
REMARK INTER + INTRA:         -12.670
REMARK INTER:                 -11.498
REMARK INTRA:                  -1.172
REMARK UNBOUND:                -0.992
REMARK  Name = 
REMARK  9 active torsions:
REMARK  status: ('A' for Active; 'I' for Inactive)
REMARK    1  A    between atoms: C_1  and  C_2
REMARK    2  A    between atoms: C_8  and  C_9
REMARK    3  A    between atoms: C_11  and  C_12
REMARK    4  A    between atoms: N_14  and  C_15
REMARK    5  A    between atoms: C_15  and  C_16
REMARK    6  A    between atoms: C_19  and  O_20
REMARK    7  A    between atoms: O_20  and  C_21
REMARK    8  A    between atoms: C_21  and  C_22
REMARK    9  A    between atoms: C_22  and  C_23
REMARK                            x       y       z     vdW  Elec       q    Type
REMARK                         _______ _______ _______ _____ _____    ______ ____
ROOT
ATOM      1  C   UNL     1      48.864   7.019  14.743  0.00  0.00    +0.000 C 
ATOM      2  O   UNL     1      49.602   6.864  13.774  0.00  0.00    +0.000 OA
ATOM      3  N   UNL     1      47.584   7.512  14.589  0.00  0.00    +0.000 N 
ATOM      4  H   UNL     1      47.140   7.914  15.402  0.00  0.00    +0.000 HD
ENDROOT
BRANCH   1  15
ATOM      5  C   UNL     1      50.944   8.828  16.335  0.00  0.00    +0.000 C 
ATOM      6  C   UNL     1      50.262   7.578  16.765  0.00  0.00    +0.000 A 
ATOM      7  N   UNL     1      50.530   7.056  18.002  0.00  0.00    +0.000 N 
ATOM      8  C   UNL     1      49.800   5.927  18.201  0.00  0.00    +0.000 A 
ATOM      9  N   UNL     1      49.888   5.207  19.329  0.00  0.00    +0.000 NA
ATOM     10  C   UNL     1      49.098   4.135  19.294  0.00  0.00    +0.000 A 
ATOM     11  N   UNL     1      48.290   3.760  18.290  0.00  0.00    +0.000 NA
ATOM     12  C   UNL     1      48.235   4.515  17.148  0.00  0.00    +0.000 A 
ATOM     13  C   UNL     1      47.316   3.982  16.096  0.00  0.00    +0.000 C 
ATOM     14  C   UNL     1      49.024   5.686  17.070  0.00  0.00    +0.000 A 
ATOM     15  C   UNL     1      49.322   6.756  16.125  0.00  0.00    +0.000 A 
ATOM     16  H   UNL     1      51.175   7.425  18.685  0.00  0.00    +0.000 HD
ENDBRANCH   1  15
BRANCH   3  17
ATOM     17  C   UNL     1      47.081   7.901  13.283  0.00  0.00    +0.000 C 
BRANCH  17  18
ATOM     18  C   UNL     1      46.141   6.869  12.697  0.00  0.00    +0.000 A 
ATOM     19  C   UNL     1      45.002   7.247  11.968  0.00  0.00    +0.000 A 
ATOM     20  C   UNL     1      44.132   6.280  11.429  0.00  0.00    +0.000 A 
ATOM     21  C   UNL     1      44.388   4.922  11.614  0.00  0.00    +0.000 A 
ATOM     22  C   UNL     1      45.508   4.540  12.352  0.00  0.00    +0.000 A 
ATOM     23  C   UNL     1      46.383   5.499  12.879  0.00  0.00    +0.000 A 
BRANCH  21  24
ATOM     24  O   UNL     1      43.589   3.893  11.183  0.00  0.00    +0.000 OA
BRANCH  24  25
ATOM     25  C   UNL     1      44.216   2.942  10.318  0.00  0.00    +0.000 C 
BRANCH  25  26
ATOM     26  C   UNL     1      44.465   3.594   8.955  0.00  0.00    +0.000 C 
BRANCH  26  27
ATOM     27  C   UNL     1      45.592   2.914   8.216  0.00  0.00    +0.000 A 
ATOM     28  C   UNL     1      46.373   3.618   7.289  0.00  0.00    +0.000 A 
ATOM     29  C   UNL     1      47.389   2.969   6.584  0.00  0.00    +0.000 A 
ATOM     30  C   UNL     1      47.632   1.612   6.794  0.00  0.00    +0.000 A 
ATOM     31  C   UNL     1      46.856   0.902   7.708  0.00  0.00    +0.000 A 
ATOM     32  C   UNL     1      45.841   1.549   8.415  0.00  0.00    +0.000 A 
ENDBRANCH  26  27
ENDBRANCH  25  26
ENDBRANCH  24  25
ENDBRANCH  21  24
ENDBRANCH  17  18
ENDBRANCH   3  17
TORSDOF 7
ENDMDL
MODEL 4
REMARK VINA RESULT:    -7.475      4.168      8.713
REMARK INTER + INTRA:         -11.527
REMARK INTER:                  -9.548
REMARK INTRA:                  -1.978
REMARK UNBOUND:                -0.992
REMARK  Name = 
REMARK  9 active torsions:
REMARK  status: ('A' for Active; 'I' for Inactive)
REMARK    1  A    between atoms: C_1  and  C_2
REMARK    2  A    between atoms: C_8  and  C_9
REMARK    3  A    between atoms: C_11  and  C_12
REMARK    4  A    between atoms: N_14  and  C_15
REMARK    5  A    between atoms: C_15  and  C_16
REMARK    6  A    between atoms: C_19  and  O_20
REMARK    7  A    between atoms: O_20  and  C_21
REMARK    8  A    between atoms: C_21  and  C_22
REMARK    9  A    between atoms: C_22  and  C_23
REMARK                            x       y       z     vdW  Elec       q    Type
REMARK                         _______ _______ _______ _____ _____    ______ ____
ROOT
ATOM      1  C   UNL     1      46.737   7.795  12.528  0.00  0.00    +0.000 C 
ATOM      2  O   UNL     1      47.778   7.651  11.896  0.00  0.00    +0.000 OA
ATOM      3  N   UNL     1      46.698   8.577  13.665  0.00  0.00    +0.000 N 
ATOM      4  H   UNL     1      45.938   8.419  14.312  0.00  0.00    +0.000 HD
ENDROOT
BRANCH   1  15
ATOM      5  C   UNL     1      44.267   9.161  11.056  0.00  0.00    +0.000 C 
ATOM      6  C   UNL     1      44.424   7.759  11.525  0.00  0.00    +0.000 A 
ATOM      7  N   UNL     1      43.395   6.871  11.354  0.00  0.00    +0.000 N 
ATOM      8  C   UNL     1      43.744   5.651  11.838  0.00  0.00    +0.000 A 
ATOM      9  N   UNL     1      42.907   4.603  11.810  0.00  0.00    +0.000 NA
ATOM     10  C   UNL     1      43.456   3.518  12.355  0.00  0.00    +0.000 A 
ATOM     11  N   UNL     1      44.685   3.414  12.885  0.00  0.00    +0.000 NA
ATOM     12  C   UNL     1      45.508   4.509  12.906  0.00  0.00    +0.000 A 
ATOM     13  C   UNL     1      46.839   4.272  13.542  0.00  0.00    +0.000 C 
ATOM     14  C   UNL     1      45.039   5.720  12.346  0.00  0.00    +0.000 A 
ATOM     15  C   UNL     1      45.489   7.094  12.151  0.00  0.00    +0.000 A 
ATOM     16  H   UNL     1      42.494   7.066  10.941  0.00  0.00    +0.000 HD
ENDBRANCH   1  15
BRANCH   3  17
ATOM     17  C   UNL     1      47.896   9.219  14.176  0.00  0.00    +0.000 C 
BRANCH  17  18
ATOM     18  C   UNL     1      48.463   8.504  15.384  0.00  0.00    +0.000 A 
ATOM     19  C   UNL     1      49.107   7.262  15.264  0.00  0.00    +0.000 A 
ATOM     20  C   UNL     1      49.628   6.603  16.393  0.00  0.00    +0.000 A 
ATOM     21  C   UNL     1      49.510   7.175  17.659  0.00  0.00    +0.000 A 
ATOM     22  C   UNL     1      48.856   8.400  17.787  0.00  0.00    +0.000 A 
ATOM     23  C   UNL     1      48.348   9.066  16.664  0.00  0.00    +0.000 A 
BRANCH  21  24
ATOM     24  O   UNL     1      49.930   6.607  18.835  0.00  0.00    +0.000 OA
BRANCH  24  25
ATOM     25  C   UNL     1      48.893   6.223  19.743  0.00  0.00    +0.000 C 
BRANCH  25  26
ATOM     26  C   UNL     1      49.024   4.728  20.050  0.00  0.00    +0.000 C 
BRANCH  26  27
ATOM     27  C   UNL     1      48.908   3.896  18.796  0.00  0.00    +0.000 A 
ATOM     28  C   UNL     1      50.015   3.203  18.288  0.00  0.00    +0.000 A 
ATOM     29  C   UNL     1      49.904   2.465  17.106  0.00  0.00    +0.000 A 
ATOM     30  C   UNL     1      48.692   2.418  16.420  0.00  0.00    +0.000 A 
ATOM     31  C   UNL     1      47.588   3.110  16.913  0.00  0.00    +0.000 A 
ATOM     32  C   UNL     1      47.695   3.846  18.094  0.00  0.00    +0.000 A 
ENDBRANCH  26  27
ENDBRANCH  25  26
ENDBRANCH  24  25
ENDBRANCH  21  24
ENDBRANCH  17  18
ENDBRANCH   3  17
TORSDOF 7
ENDMDL
MODEL 5
REMARK VINA RESULT:    -7.058      4.887      7.530
REMARK INTER + INTRA:         -10.938
REMARK INTER:                  -9.892
REMARK INTRA:                  -1.046
REMARK UNBOUND:                -0.992
REMARK  Name = 
REMARK  9 active torsions:
REMARK  status: ('A' for Active; 'I' for Inactive)
REMARK    1  A    between atoms: C_1  and  C_2
REMARK    2  A    between atoms: C_8  and  C_9
REMARK    3  A    between atoms: C_11  and  C_12
REMARK    4  A    between atoms: N_14  and  C_15
REMARK    5  A    between atoms: C_15  and  C_16
REMARK    6  A    between atoms: C_19  and  O_20
REMARK    7  A    between atoms: O_20  and  C_21
REMARK    8  A    between atoms: C_21  and  C_22
REMARK    9  A    between atoms: C_22  and  C_23
REMARK                            x       y       z     vdW  Elec       q    Type
REMARK                         _______ _______ _______ _____ _____    ______ ____
ROOT
ATOM      1  C   UNL     1      50.823   8.752  12.244  0.00  0.00    +0.000 C 
ATOM      2  O   UNL     1      51.565   8.428  13.166  0.00  0.00    +0.000 OA
ATOM      3  N   UNL     1      49.504   8.345  12.216  0.00  0.00    +0.000 N 
ATOM      4  H   UNL     1      49.033   8.357  11.323  0.00  0.00    +0.000 HD
ENDROOT
BRANCH   1  15
ATOM      5  C   UNL     1      49.934  11.732  11.568  0.00  0.00    +0.000 C 
ATOM      6  C   UNL     1      50.861  10.836  10.826  0.00  0.00    +0.000 A 
ATOM      7  N   UNL     1      51.440  11.277   9.666  0.00  0.00    +0.000 N 
ATOM      8  C   UNL     1      52.255  10.316   9.156  0.00  0.00    +0.000 A 
ATOM      9  N   UNL     1      52.931  10.486   8.011  0.00  0.00    +0.000 NA
ATOM     10  C   UNL     1      53.649   9.407   7.697  0.00  0.00    +0.000 A 
ATOM     11  N   UNL     1      53.731   8.262   8.392  0.00  0.00    +0.000 NA
ATOM     12  C   UNL     1      53.016   8.121   9.552  0.00  0.00    +0.000 A 
ATOM     13  C   UNL     1      53.174   6.794  10.220  0.00  0.00    +0.000 C 
ATOM     14  C   UNL     1      52.222   9.205   9.995  0.00  0.00    +0.000 A 
ATOM     15  C   UNL     1      51.311   9.533  11.085  0.00  0.00    +0.000 A 
ATOM     16  H   UNL     1      51.296  12.173   9.223  0.00  0.00    +0.000 HD
ENDBRANCH   1  15
BRANCH   3  17
ATOM     17  C   UNL     1      48.962   7.486  13.253  0.00  0.00    +0.000 C 
BRANCH  17  18
ATOM     18  C   UNL     1      47.807   6.642  12.757  0.00  0.00    +0.000 A 
ATOM     19  C   UNL     1      47.181   6.908  11.529  0.00  0.00    +0.000 A 
ATOM     20  C   UNL     1      46.106   6.120  11.077  0.00  0.00    +0.000 A 
ATOM     21  C   UNL     1      45.639   5.057  11.849  0.00  0.00    +0.000 A 
ATOM     22  C   UNL     1      46.245   4.799  13.079  0.00  0.00    +0.000 A 
ATOM     23  C   UNL     1      47.324   5.573  13.526  0.00  0.00    +0.000 A 
BRANCH  21  24
ATOM     24  O   UNL     1      44.570   4.255  11.541  0.00  0.00    +0.000 OA
BRANCH  24  25
ATOM     25  C   UNL     1      44.215   4.199  10.156  0.00  0.00    +0.000 C 
BRANCH  25  26
ATOM     26  C   UNL     1      44.353   2.756   9.662  0.00  0.00    +0.000 C 
BRANCH  26  27
ATOM     27  C   UNL     1      45.411   2.638   8.591  0.00  0.00    +0.000 A 
ATOM     28  C   UNL     1      46.056   1.418   8.347  0.00  0.00    +0.000 A 
ATOM     29  C   UNL     1      47.059   1.330   7.379  0.00  0.00    +0.000 A 
ATOM     30  C   UNL     1      47.431   2.459   6.651  0.00  0.00    +0.000 A 
ATOM     31  C   UNL     1      46.801   3.678   6.891  0.00  0.00    +0.000 A 
ATOM     32  C   UNL     1      45.797   3.769   7.856  0.00  0.00    +0.000 A 
ENDBRANCH  26  27
ENDBRANCH  25  26
ENDBRANCH  24  25
ENDBRANCH  21  24
ENDBRANCH  17  18
ENDBRANCH   3  17
TORSDOF 7
ENDMDL
MODEL 6
REMARK VINA RESULT:    -6.958      4.492      8.679
REMARK INTER + INTRA:         -10.797
REMARK INTER:                  -9.362
REMARK INTRA:                  -1.435
REMARK UNBOUND:                -0.992
REMARK  Name = 
REMARK  9 active torsions:
REMARK  status: ('A' for Active; 'I' for Inactive)
REMARK    1  A    between atoms: C_1  and  C_2
REMARK    2  A    between atoms: C_8  and  C_9
REMARK    3  A    between atoms: C_11  and  C_12
REMARK    4  A    between atoms: N_14  and  C_15
REMARK    5  A    between atoms: C_15  and  C_16
REMARK    6  A    between atoms: C_19  and  O_20
REMARK    7  A    between atoms: O_20  and  C_21
REMARK    8  A    between atoms: C_21  and  C_22
REMARK    9  A    between atoms: C_22  and  C_23
REMARK                            x       y       z     vdW  Elec       q    Type
REMARK                         _______ _______ _______ _____ _____    ______ ____
ROOT
ATOM      1  C   UNL     1      46.698   8.199  12.350  0.00  0.00    +0.000 C 
ATOM      2  O   UNL     1      46.701   9.287  12.917  0.00  0.00    +0.000 OA
ATOM      3  N   UNL     1      47.869   7.639  11.880  0.00  0.00    +0.000 N 
ATOM      4  H   UNL     1      47.792   6.930  11.165  0.00  0.00    +0.000 HD
ENDROOT
BRANCH   1  15
ATOM      5  C   UNL     1      44.205   9.392  10.771  0.00  0.00    +0.000 C 
ATOM      6  C   UNL     1      44.369   8.053  11.397  0.00  0.00    +0.000 A 
ATOM      7  N   UNL     1      43.336   7.155  11.346  0.00  0.00    +0.000 N 
ATOM      8  C   UNL     1      43.692   5.997  11.963  0.00  0.00    +0.000 A 
ATOM      9  N   UNL     1      42.854   4.956  12.070  0.00  0.00    +0.000 NA
ATOM     10  C   UNL     1      43.411   3.939  12.727  0.00  0.00    +0.000 A 
ATOM     11  N   UNL     1      44.648   3.894  13.246  0.00  0.00    +0.000 NA
ATOM     12  C   UNL     1      45.472   4.982  13.126  0.00  0.00    +0.000 A 
ATOM     13  C   UNL     1      46.814   4.816  13.763  0.00  0.00    +0.000 C 
ATOM     14  C   UNL     1      44.996   6.122  12.437  0.00  0.00    +0.000 A 
ATOM     15  C   UNL     1      45.444   7.462  12.077  0.00  0.00    +0.000 A 
ATOM     16  H   UNL     1      42.428   7.303  10.929  0.00  0.00    +0.000 HD
ENDBRANCH   1  15
BRANCH   3  17
ATOM     17  C   UNL     1      49.137   8.336  12.004  0.00  0.00    +0.000 C 
BRANCH  17  18
ATOM     18  C   UNL     1      49.856   8.000  13.293  0.00  0.00    +0.000 A 
ATOM     19  C   UNL     1      51.180   8.408  13.521  0.00  0.00    +0.000 A 
ATOM     20  C   UNL     1      51.842   8.088  14.721  0.00  0.00    +0.000 A 
ATOM     21  C   UNL     1      51.189   7.352  15.710  0.00  0.00    +0.000 A 
ATOM     22  C   UNL     1      49.880   6.929  15.483  0.00  0.00    +0.000 A 
ATOM     23  C   UNL     1      49.214   7.257  14.295  0.00  0.00    +0.000 A 
BRANCH  21  24
ATOM     24  O   UNL     1      51.744   6.936  16.894  0.00  0.00    +0.000 OA
BRANCH  24  25
ATOM     25  C   UNL     1      51.813   5.520  17.083  0.00  0.00    +0.000 C 
BRANCH  25  26
ATOM     26  C   UNL     1      51.016   5.144  18.336  0.00  0.00    +0.000 C 
BRANCH  26  27
ATOM     27  C   UNL     1      49.713   4.471  17.979  0.00  0.00    +0.000 A 
ATOM     28  C   UNL     1      49.698   3.214  17.360  0.00  0.00    +0.000 A 
ATOM     29  C   UNL     1      48.486   2.617  17.001  0.00  0.00    +0.000 A 
ATOM     30  C   UNL     1      47.282   3.272  17.252  0.00  0.00    +0.000 A 
ATOM     31  C   UNL     1      47.286   4.525  17.860  0.00  0.00    +0.000 A 
ATOM     32  C   UNL     1      48.495   5.122  18.222  0.00  0.00    +0.000 A 
ENDBRANCH  26  27
ENDBRANCH  25  26
ENDBRANCH  24  25
ENDBRANCH  21  24
ENDBRANCH  17  18
ENDBRANCH   3  17
TORSDOF 7
ENDMDL
MODEL 7
REMARK VINA RESULT:    -6.906      3.950      9.093
REMARK INTER + INTRA:         -10.724
REMARK INTER:                  -9.337
REMARK INTRA:                  -1.387
REMARK UNBOUND:                -0.992
REMARK  Name = 
REMARK  9 active torsions:
REMARK  status: ('A' for Active; 'I' for Inactive)
REMARK    1  A    between atoms: C_1  and  C_2
REMARK    2  A    between atoms: C_8  and  C_9
REMARK    3  A    between atoms: C_11  and  C_12
REMARK    4  A    between atoms: N_14  and  C_15
REMARK    5  A    between atoms: C_15  and  C_16
REMARK    6  A    between atoms: C_19  and  O_20
REMARK    7  A    between atoms: O_20  and  C_21
REMARK    8  A    between atoms: C_21  and  C_22
REMARK    9  A    between atoms: C_22  and  C_23
REMARK                            x       y       z     vdW  Elec       q    Type
REMARK                         _______ _______ _______ _____ _____    ______ ____
ROOT
ATOM      1  C   UNL     1      46.929   4.186  14.461  0.00  0.00    +0.000 C 
ATOM      2  O   UNL     1      47.282   3.108  13.995  0.00  0.00    +0.000 OA
ATOM      3  N   UNL     1      46.907   4.397  15.825  0.00  0.00    +0.000 N 
ATOM      4  H   UNL     1      46.329   5.151  16.170  0.00  0.00    +0.000 HD
ENDROOT
BRANCH   1  15
ATOM      5  C   UNL     1      48.455   6.946  14.035  0.00  0.00    +0.000 C 
ATOM      6  C   UNL     1      47.154   6.495  13.475  0.00  0.00    +0.000 A 
ATOM      7  N   UNL     1      46.439   7.339  12.666  0.00  0.00    +0.000 N 
ATOM      8  C   UNL     1      45.294   6.734  12.255  0.00  0.00    +0.000 A 
ATOM      9  N   UNL     1      44.403   7.350  11.465  0.00  0.00    +0.000 NA
ATOM     10  C   UNL     1      43.352   6.573  11.206  0.00  0.00    +0.000 A 
ATOM     11  N   UNL     1      43.145   5.323  11.647  0.00  0.00    +0.000 NA
ATOM     12  C   UNL     1      44.072   4.729  12.462  0.00  0.00    +0.000 A 
ATOM     13  C   UNL     1      43.717   3.347  12.902  0.00  0.00    +0.000 C 
ATOM     14  C   UNL     1      45.240   5.453  12.799  0.00  0.00    +0.000 A 
ATOM     15  C   UNL     1      46.447   5.290  13.602  0.00  0.00    +0.000 A 
ATOM     16  H   UNL     1      46.693   8.280  12.403  0.00  0.00    +0.000 HD
ENDBRANCH   1  15
BRANCH   3  17
ATOM     17  C   UNL     1      47.259   3.338  16.754  0.00  0.00    +0.000 C 
BRANCH  17  18
ATOM     18  C   UNL     1      48.738   3.324  17.077  0.00  0.00    +0.000 A 
ATOM     19  C   UNL     1      49.495   2.145  16.985  0.00  0.00    +0.000 A 
ATOM     20  C   UNL     1      50.869   2.140  17.291  0.00  0.00    +0.000 A 
ATOM     21  C   UNL     1      51.505   3.313  17.696  0.00  0.00    +0.000 A 
ATOM     22  C   UNL     1      50.754   4.484  17.806  0.00  0.00    +0.000 A 
ATOM     23  C   UNL     1      49.389   4.495  17.490  0.00  0.00    +0.000 A 
BRANCH  21  24
ATOM     24  O   UNL     1      52.820   3.421  18.068  0.00  0.00    +0.000 OA
BRANCH  24  25
ATOM     25  C   UNL     1      53.341   4.753  18.125  0.00  0.00    +0.000 C 
BRANCH  25  26
ATOM     26  C   UNL     1      54.450   4.901  17.078  0.00  0.00    +0.000 C 
BRANCH  26  27
ATOM     27  C   UNL     1      54.113   5.969  16.066  0.00  0.00    +0.000 A 
ATOM     28  C   UNL     1      54.973   6.240  14.994  0.00  0.00    +0.000 A 
ATOM     29  C   UNL     1      54.669   7.256  14.084  0.00  0.00    +0.000 A 
ATOM     30  C   UNL     1      53.508   8.011  14.239  0.00  0.00    +0.000 A 
ATOM     31  C   UNL     1      52.650   7.753  15.306  0.00  0.00    +0.000 A 
ATOM     32  C   UNL     1      52.950   6.738  16.216  0.00  0.00    +0.000 A 
ENDBRANCH  26  27
ENDBRANCH  25  26
ENDBRANCH  24  25
ENDBRANCH  21  24
ENDBRANCH  17  18
ENDBRANCH   3  17
TORSDOF 7
ENDMDL
MODEL 8
REMARK VINA RESULT:    -6.746      4.122      9.669
REMARK INTER + INTRA:         -10.498
REMARK INTER:                  -8.863
REMARK INTRA:                  -1.636
REMARK UNBOUND:                -0.992
REMARK  Name = 
REMARK  9 active torsions:
REMARK  status: ('A' for Active; 'I' for Inactive)
REMARK    1  A    between atoms: C_1  and  C_2
REMARK    2  A    between atoms: C_8  and  C_9
REMARK    3  A    between atoms: C_11  and  C_12
REMARK    4  A    between atoms: N_14  and  C_15
REMARK    5  A    between atoms: C_15  and  C_16
REMARK    6  A    between atoms: C_19  and  O_20
REMARK    7  A    between atoms: O_20  and  C_21
REMARK    8  A    between atoms: C_21  and  C_22
REMARK    9  A    between atoms: C_22  and  C_23
REMARK                            x       y       z     vdW  Elec       q    Type
REMARK                         _______ _______ _______ _____ _____    ______ ____
ROOT
ATOM      1  C   UNL     1      46.871   7.847  12.658  0.00  0.00    +0.000 C 
ATOM      2  O   UNL     1      47.812   8.026  11.891  0.00  0.00    +0.000 OA
ATOM      3  N   UNL     1      46.951   8.230  13.982  0.00  0.00    +0.000 N 
ATOM      4  H   UNL     1      46.312   7.794  14.631  0.00  0.00    +0.000 HD
ENDROOT
BRANCH   1  15
ATOM      5  C   UNL     1      44.462   9.240  11.115  0.00  0.00    +0.000 C 
ATOM      6  C   UNL     1      44.595   7.833  11.575  0.00  0.00    +0.000 A 
ATOM      7  N   UNL     1      43.568   6.952  11.359  0.00  0.00    +0.000 N 
ATOM      8  C   UNL     1      43.894   5.725  11.844  0.00  0.00    +0.000 A 
ATOM      9  N   UNL     1      43.053   4.683  11.776  0.00  0.00    +0.000 NA
ATOM     10  C   UNL     1      43.577   3.589  12.329  0.00  0.00    +0.000 A 
ATOM     11  N   UNL     1      44.786   3.474  12.900  0.00  0.00    +0.000 NA
ATOM     12  C   UNL     1      45.613   4.564  12.961  0.00  0.00    +0.000 A 
ATOM     13  C   UNL     1      46.920   4.313  13.640  0.00  0.00    +0.000 C 
ATOM     14  C   UNL     1      45.171   5.783  12.397  0.00  0.00    +0.000 A 
ATOM     15  C   UNL     1      45.634   7.156  12.231  0.00  0.00    +0.000 A 
ATOM     16  H   UNL     1      42.683   7.156  10.918  0.00  0.00    +0.000 HD
ENDBRANCH   1  15
BRANCH   3  17
ATOM     17  C   UNL     1      48.164   8.818  14.521  0.00  0.00    +0.000 C 
BRANCH  17  18
ATOM     18  C   UNL     1      49.001   7.814  15.286  0.00  0.00    +0.000 A 
ATOM     19  C   UNL     1      50.401   7.906  15.324  0.00  0.00    +0.000 A 
ATOM     20  C   UNL     1      51.171   6.966  16.034  0.00  0.00    +0.000 A 
ATOM     21  C   UNL     1      50.551   5.919  16.715  0.00  0.00    +0.000 A 
ATOM     22  C   UNL     1      49.162   5.812  16.667  0.00  0.00    +0.000 A 
ATOM     23  C   UNL     1      48.391   6.753  15.971  0.00  0.00    +0.000 A 
BRANCH  21  24
ATOM     24  O   UNL     1      51.195   4.917  17.396  0.00  0.00    +0.000 OA
BRANCH  24  25
ATOM     25  C   UNL     1      50.426   4.264  18.411  0.00  0.00    +0.000 C 
BRANCH  25  26
ATOM     26  C   UNL     1      50.782   4.868  19.773  0.00  0.00    +0.000 C 
BRANCH  26  27
ATOM     27  C   UNL     1      49.594   5.560  20.397  0.00  0.00    +0.000 A 
ATOM     28  C   UNL     1      49.329   6.911  20.137  0.00  0.00    +0.000 A 
ATOM     29  C   UNL     1      48.247   7.549  20.749  0.00  0.00    +0.000 A 
ATOM     30  C   UNL     1      47.426   6.848  21.629  0.00  0.00    +0.000 A 
ATOM     31  C   UNL     1      47.685   5.506  21.899  0.00  0.00    +0.000 A 
ATOM     32  C   UNL     1      48.763   4.864  21.288  0.00  0.00    +0.000 A 
ENDBRANCH  26  27
ENDBRANCH  25  26
ENDBRANCH  24  25
ENDBRANCH  21  24
ENDBRANCH  17  18
ENDBRANCH   3  17
TORSDOF 7
ENDMDL
MODEL 9
REMARK VINA RESULT:    -6.634      3.742      9.642
REMARK INTER + INTRA:         -10.340
REMARK INTER:                  -8.665
REMARK INTRA:                  -1.675
REMARK UNBOUND:                -0.992
REMARK  Name = 
REMARK  9 active torsions:
REMARK  status: ('A' for Active; 'I' for Inactive)
REMARK    1  A    between atoms: C_1  and  C_2
REMARK    2  A    between atoms: C_8  and  C_9
REMARK    3  A    between atoms: C_11  and  C_12
REMARK    4  A    between atoms: N_14  and  C_15
REMARK    5  A    between atoms: C_15  and  C_16
REMARK    6  A    between atoms: C_19  and  O_20
REMARK    7  A    between atoms: O_20  and  C_21
REMARK    8  A    between atoms: C_21  and  C_22
REMARK    9  A    between atoms: C_22  and  C_23
REMARK                            x       y       z     vdW  Elec       q    Type
REMARK                         _______ _______ _______ _____ _____    ______ ____
ROOT
ATOM      1  C   UNL     1      46.891   4.310  14.361  0.00  0.00    +0.000 C 
ATOM      2  O   UNL     1      47.232   3.199  13.968  0.00  0.00    +0.000 OA
ATOM      3  N   UNL     1      47.002   4.659  15.693  0.00  0.00    +0.000 N 
ATOM      4  H   UNL     1      46.436   5.428  16.021  0.00  0.00    +0.000 HD
ENDROOT
BRANCH   1  15
ATOM      5  C   UNL     1      48.139   7.166  13.714  0.00  0.00    +0.000 C 
ATOM      6  C   UNL     1      46.869   6.562  13.229  0.00  0.00    +0.000 A 
ATOM      7  N   UNL     1      46.055   7.283  12.396  0.00  0.00    +0.000 N 
ATOM      8  C   UNL     1      44.960   6.551  12.063  0.00  0.00    +0.000 A 
ATOM      9  N   UNL     1      43.992   7.032  11.269  0.00  0.00    +0.000 NA
ATOM     10  C   UNL     1      43.011   6.147  11.095  0.00  0.00    +0.000 A 
ATOM     11  N   UNL     1      42.935   4.913  11.619  0.00  0.00    +0.000 NA
ATOM     12  C   UNL     1      43.938   4.460  12.435  0.00  0.00    +0.000 A 
ATOM     13  C   UNL     1      43.726   3.082  12.971  0.00  0.00    +0.000 C 
ATOM     14  C   UNL     1      45.042   5.308  12.686  0.00  0.00    +0.000 A 
ATOM     15  C   UNL     1      46.282   5.308  13.454  0.00  0.00    +0.000 A 
ATOM     16  H   UNL     1      46.212   8.225  12.067  0.00  0.00    +0.000 HD
ENDBRANCH   1  15
BRANCH   3  17
ATOM     17  C   UNL     1      47.487   3.709  16.679  0.00  0.00    +0.000 C 
BRANCH  17  18
ATOM     18  C   UNL     1      47.907   4.382  17.968  0.00  0.00    +0.000 A 
ATOM     19  C   UNL     1      49.133   4.082  18.585  0.00  0.00    +0.000 A 
ATOM     20  C   UNL     1      49.513   4.709  19.786  0.00  0.00    +0.000 A 
ATOM     21  C   UNL     1      48.672   5.644  20.389  0.00  0.00    +0.000 A 
ATOM     22  C   UNL     1      47.446   5.933  19.791  0.00  0.00    +0.000 A 
ATOM     23  C   UNL     1      47.069   5.320  18.588  0.00  0.00    +0.000 A 
BRANCH  21  24
ATOM     24  O   UNL     1      48.909   6.280  21.581  0.00  0.00    +0.000 OA
BRANCH  24  25
ATOM     25  C   UNL     1      48.722   7.699  21.575  0.00  0.00    +0.000 C 
BRANCH  25  26
ATOM     26  C   UNL     1      49.843   8.347  20.757  0.00  0.00    +0.000 C 
BRANCH  26  27
ATOM     27  C   UNL     1      49.366   8.740  19.380  0.00  0.00    +0.000 A 
ATOM     28  C   UNL     1      48.272   9.601  19.216  0.00  0.00    +0.000 A 
ATOM     29  C   UNL     1      47.816   9.928  17.936  0.00  0.00    +0.000 A 
ATOM     30  C   UNL     1      48.444   9.395  16.812  0.00  0.00    +0.000 A 
ATOM     31  C   UNL     1      49.527   8.533  16.965  0.00  0.00    +0.000 A 
ATOM     32  C   UNL     1      49.986   8.206  18.242  0.00  0.00    +0.000 A 
ENDBRANCH  26  27
ENDBRANCH  25  26
ENDBRANCH  24  25
ENDBRANCH  21  24
ENDBRANCH  17  18
ENDBRANCH   3  17
TORSDOF 7
ENDMDL
