MODEL 1
REMARK VINA RESULT:    -7.799      0.000      0.000
REMARK INTER + INTRA:         -12.030
REMARK INTER:                 -10.991
REMARK INTRA:                  -1.039
REMARK UNBOUND:                -1.039
REMARK  Name = 
REMARK  8 active torsions:
REMARK  status: ('A' for Active; 'I' for Inactive)
REMARK    1  A    between atoms: C_1  and  N_2
REMARK    2  A    between atoms: N_2  and  C_3
REMARK    3  A    between atoms: N_2  and  C_24
REMARK    4  A    between atoms: C_3  and  C_4
REMARK    5  A    between atoms: C_7  and  C_8
REMARK    6  A    between atoms: C_8  and  N_9
REMARK    7  A    between atoms: C_10  and  C_12
REMARK    8  A    between atoms: C_24  and  C_25
REMARK                            x       y       z     vdW  Elec       q    Type
REMARK                         _______ _______ _______ _____ _____    ______ ____
ROOT
ATOM      1  C   UNL     1      45.942   4.444  12.694  0.00  0.00    +0.000 A 
ATOM      2  C   UNL     1      46.186   5.638  11.995  0.00  0.00    +0.000 A 
ATOM      3  C   UNL     1      47.039   6.614  12.516  0.00  0.00    +0.000 A 
ATOM      4  C   UNL     1      47.656   6.424  13.759  0.00  0.00    +0.000 A 
ATOM      5  C   UNL     1      47.376   5.255  14.479  0.00  0.00    +0.000 A 
ATOM      6  C   UNL     1      46.543   4.266  13.946  0.00  0.00    +0.000 A 
ENDROOT
BRANCH   1   7
ATOM      7  C   UNL     1      45.084   3.354  12.075  0.00  0.00    +0.000 C 
BRANCH   7   9
ATOM      8  C   UNL     1      42.928   4.253  11.380  0.00  0.00    +0.000 C 
ATOM      9  N   UNL     1      44.259   3.812  10.937  0.00  0.00    +0.000 NA
BRANCH   9  10
ATOM     10  C   UNL     1      44.132   2.728   9.940  0.00  0.00    +0.000 C 
BRANCH  10  11
ATOM     11  C   UNL     1      45.178   2.804   8.854  0.00  0.00    +0.000 A 
ATOM     12  C   UNL     1      45.892   1.673   8.444  0.00  0.00    +0.000 A 
ATOM     13  C   UNL     1      46.910   1.802   7.503  0.00  0.00    +0.000 A 
ATOM     14  C   UNL     1      47.177   3.062   6.994  0.00  0.00    +0.000 A 
ATOM     15  N   UNL     1      46.500   4.176   7.350  0.00  0.00    +0.000 NA
ATOM     16  C   UNL     1      45.522   4.020   8.270  0.00  0.00    +0.000 A 
ENDBRANCH  10  11
ENDBRANCH   9  10
ENDBRANCH   7   9
ENDBRANCH   1   7
BRANCH   4  17
ATOM     17  C   UNL     1      48.586   7.461  14.331  0.00  0.00    +0.000 C 
BRANCH  17  18
ATOM     18  N   UNL     1      48.566   7.444  15.770  0.00  0.00    +0.000 N 
ATOM     19  C   UNL     1      49.603   6.910  16.489  0.00  0.00    +0.000 C 
ATOM     20  O   UNL     1      50.605   6.448  15.950  0.00  0.00    +0.000 OA
ATOM     21  H   UNL     1      47.663   7.564  16.217  0.00  0.00    +0.000 HD
BRANCH  19  22
ATOM     22  C   UNL     1      49.481   6.981  17.951  0.00  0.00    +0.000 A 
ATOM     23  C   UNL     1      49.726   8.180  18.606  0.00  0.00    +0.000 A 
ATOM     24  S   UNL     1      49.498   8.093  20.295  0.00  0.00    +0.000 S 
ATOM     25  C   UNL     1      49.115   6.438  20.215  0.00  0.00    +0.000 A 
ATOM     26  N   UNL     1      48.845   5.725  21.341  0.00  0.00    +0.000 NA
ATOM     27  C   UNL     1      48.597   4.475  21.134  0.00  0.00    +0.000 A 
ATOM     28  N   UNL     1      48.587   3.871  19.903  0.00  0.00    +0.000 N 
ATOM     29  C   UNL     1      48.831   4.555  18.733  0.00  0.00    +0.000 A 
ATOM     30  O   UNL     1      48.768   4.001  17.644  0.00  0.00    +0.000 OA
ATOM     31  C   UNL     1      49.131   5.964  18.916  0.00  0.00    +0.000 A 
ATOM     32  H   UNL     1      48.375   2.889  19.808  0.00  0.00    +0.000 HD
ENDBRANCH  19  22
ENDBRANCH  17  18
ENDBRANCH   4  17
TORSDOF 7
ENDMDL
MODEL 2
REMARK VINA RESULT:    -7.595      2.132      2.411
REMARK INTER + INTRA:         -11.742
REMARK INTER:                 -10.619
REMARK INTRA:                  -1.122
REMARK UNBOUND:                -1.039
REMARK  Name = 
REMARK  8 active torsions:
REMARK  status: ('A' for Active; 'I' for Inactive)
REMARK    1  A    between atoms: C_1  and  N_2
REMARK    2  A    between atoms: N_2  and  C_3
REMARK    3  A    between atoms: N_2  and  C_24
REMARK    4  A    between atoms: C_3  and  C_4
REMARK    5  A    between atoms: C_7  and  C_8
REMARK    6  A    between atoms: C_8  and  N_9
REMARK    7  A    between atoms: C_10  and  C_12
REMARK    8  A    between atoms: C_24  and  C_25
REMARK                            x       y       z     vdW  Elec       q    Type
REMARK                         _______ _______ _______ _____ _____    ______ ____
ROOT
ATOM      1  C   UNL     1      46.014   4.759  12.683  0.00  0.00    +0.000 A 
ATOM      2  C   UNL     1      46.282   5.831  11.816  0.00  0.00    +0.000 A 
ATOM      3  C   UNL     1      47.222   6.809  12.149  0.00  0.00    +0.000 A 
ATOM      4  C   UNL     1      47.907   6.744  13.370  0.00  0.00    +0.000 A 
ATOM      5  C   UNL     1      47.606   5.701  14.258  0.00  0.00    +0.000 A 
ATOM      6  C   UNL     1      46.684   4.709  13.912  0.00  0.00    +0.000 A 
ENDROOT
BRANCH   1   7
ATOM      7  C   UNL     1      45.056   3.657  12.268  0.00  0.00    +0.000 C 
BRANCH   7   9
ATOM      8  C   UNL     1      42.900   4.419  11.428  0.00  0.00    +0.000 C 
ATOM      9  N   UNL     1      44.254   3.978  11.068  0.00  0.00    +0.000 NA
BRANCH   9  10
ATOM     10  C   UNL     1      44.187   2.798  10.179  0.00  0.00    +0.000 C 
BRANCH  10  11
ATOM     11  C   UNL     1      45.152   2.882   9.019  0.00  0.00    +0.000 A 
ATOM     12  C   UNL     1      45.814   1.749   8.534  0.00  0.00    +0.000 A 
ATOM     13  C   UNL     1      46.762   1.884   7.523  0.00  0.00    +0.000 A 
ATOM     14  C   UNL     1      47.011   3.150   7.022  0.00  0.00    +0.000 A 
ATOM     15  N   UNL     1      46.381   4.266   7.450  0.00  0.00    +0.000 NA
ATOM     16  C   UNL     1      45.471   4.105   8.437  0.00  0.00    +0.000 A 
ENDBRANCH  10  11
ENDBRANCH   9  10
ENDBRANCH   7   9
ENDBRANCH   1   7
BRANCH   4  17
ATOM     17  C   UNL     1      48.931   7.784  13.742  0.00  0.00    +0.000 C 
BRANCH  17  18
ATOM     18  N   UNL     1      50.067   7.188  14.395  0.00  0.00    +0.000 N 
ATOM     19  C   UNL     1      50.268   7.330  15.743  0.00  0.00    +0.000 C 
ATOM     20  O   UNL     1      49.482   7.943  16.462  0.00  0.00    +0.000 OA
ATOM     21  H   UNL     1      50.847   6.921  13.804  0.00  0.00    +0.000 HD
BRANCH  19  22
ATOM     22  C   UNL     1      51.444   6.649  16.298  0.00  0.00    +0.000 A 
ATOM     23  C   UNL     1      52.702   7.218  16.155  0.00  0.00    +0.000 A 
ATOM     24  S   UNL     1      53.947   6.315  16.896  0.00  0.00    +0.000 S 
ATOM     25  C   UNL     1      52.855   5.108  17.389  0.00  0.00    +0.000 A 
ATOM     26  N   UNL     1      53.285   4.002  18.055  0.00  0.00    +0.000 NA
ATOM     27  C   UNL     1      52.352   3.158  18.343  0.00  0.00    +0.000 A 
ATOM     28  N   UNL     1      51.027   3.317  18.033  0.00  0.00    +0.000 N 
ATOM     29  C   UNL     1      50.540   4.428  17.380  0.00  0.00    +0.000 A 
ATOM     30  O   UNL     1      49.345   4.567  17.159  0.00  0.00    +0.000 OA
ATOM     31  C   UNL     1      51.556   5.402  17.020  0.00  0.00    +0.000 A 
ATOM     32  H   UNL     1      50.344   2.622  18.296  0.00  0.00    +0.000 HD
ENDBRANCH  19  22
ENDBRANCH  17  18
ENDBRANCH   4  17
TORSDOF 7
ENDMDL
MODEL 3
REMARK VINA RESULT:    -7.451      3.347      8.932
REMARK INTER + INTRA:         -11.539
REMARK INTER:                  -9.853
REMARK INTRA:                  -1.687
REMARK UNBOUND:                -1.039
REMARK  Name = 
REMARK  8 active torsions:
REMARK  status: ('A' for Active; 'I' for Inactive)
REMARK    1  A    between atoms: C_1  and  N_2
REMARK    2  A    between atoms: N_2  and  C_3
REMARK    3  A    between atoms: N_2  and  C_24
REMARK    4  A    between atoms: C_3  and  C_4
REMARK    5  A    between atoms: C_7  and  C_8
REMARK    6  A    between atoms: C_8  and  N_9
REMARK    7  A    between atoms: C_10  and  C_12
REMARK    8  A    between atoms: C_24  and  C_25
REMARK                            x       y       z     vdW  Elec       q    Type
REMARK                         _______ _______ _______ _____ _____    ______ ____
ROOT
ATOM      1  C   UNL     1      48.884   8.075  16.062  0.00  0.00    +0.000 A 
ATOM      2  C   UNL     1      48.218   9.133  15.423  0.00  0.00    +0.000 A 
ATOM      3  C   UNL     1      47.815   9.028  14.089  0.00  0.00    +0.000 A 
ATOM      4  C   UNL     1      48.086   7.864  13.359  0.00  0.00    +0.000 A 
ATOM      5  C   UNL     1      48.794   6.826  13.981  0.00  0.00    +0.000 A 
ATOM      6  C   UNL     1      49.173   6.921  15.323  0.00  0.00    +0.000 A 
ENDROOT
BRANCH   1   7
ATOM      7  C   UNL     1      49.236   8.169  17.537  0.00  0.00    +0.000 C 
BRANCH   7   9
ATOM      8  C   UNL     1      47.752   8.517  19.438  0.00  0.00    +0.000 C 
ATOM      9  N   UNL     1      48.232   7.558  18.434  0.00  0.00    +0.000 NA
BRANCH   9  10
ATOM     10  C   UNL     1      48.810   6.370  19.100  0.00  0.00    +0.000 C 
BRANCH  10  11
ATOM     11  C   UNL     1      48.502   5.082  18.373  0.00  0.00    +0.000 A 
ATOM     12  C   UNL     1      49.513   4.184  18.014  0.00  0.00    +0.000 A 
ATOM     13  C   UNL     1      49.197   3.052  17.267  0.00  0.00    +0.000 A 
ATOM     14  C   UNL     1      47.875   2.850  16.910  0.00  0.00    +0.000 A 
ATOM     15  N   UNL     1      46.868   3.683  17.251  0.00  0.00    +0.000 NA
ATOM     16  C   UNL     1      47.205   4.777  17.970  0.00  0.00    +0.000 A 
ENDBRANCH  10  11
ENDBRANCH   9  10
ENDBRANCH   7   9
ENDBRANCH   1   7
BRANCH   4  17
ATOM     17  C   UNL     1      47.651   7.729  11.923  0.00  0.00    +0.000 C 
BRANCH  17  18
ATOM     18  N   UNL     1      46.936   6.499  11.707  0.00  0.00    +0.000 N 
ATOM     19  C   UNL     1      45.574   6.433  11.849  0.00  0.00    +0.000 C 
ATOM     20  O   UNL     1      44.897   7.417  12.137  0.00  0.00    +0.000 OA
ATOM     21  H   UNL     1      47.479   5.642  11.738  0.00  0.00    +0.000 HD
BRANCH  19  22
ATOM     22  C   UNL     1      44.956   5.131  11.570  0.00  0.00    +0.000 A 
ATOM     23  C   UNL     1      44.245   4.477  12.567  0.00  0.00    +0.000 A 
ATOM     24  S   UNL     1      43.559   3.000  12.058  0.00  0.00    +0.000 S 
ATOM     25  C   UNL     1      44.232   3.158  10.503  0.00  0.00    +0.000 A 
ATOM     26  N   UNL     1      44.056   2.192   9.561  0.00  0.00    +0.000 NA
ATOM     27  C   UNL     1      44.644   2.432   8.437  0.00  0.00    +0.000 A 
ATOM     28  N   UNL     1      45.388   3.551   8.164  0.00  0.00    +0.000 N 
ATOM     29  C   UNL     1      45.575   4.565   9.077  0.00  0.00    +0.000 A 
ATOM     30  O   UNL     1      46.203   5.575   8.790  0.00  0.00    +0.000 OA
ATOM     31  C   UNL     1      44.945   4.334  10.364  0.00  0.00    +0.000 A 
ATOM     32  H   UNL     1      45.814   3.683   7.259  0.00  0.00    +0.000 HD
ENDBRANCH  19  22
ENDBRANCH  17  18
ENDBRANCH   4  17
TORSDOF 7
ENDMDL
MODEL 4
REMARK VINA RESULT:    -6.846      4.859      7.239
REMARK INTER + INTRA:         -10.686
REMARK INTER:                  -9.480
REMARK INTRA:                  -1.206
REMARK UNBOUND:                -1.039
REMARK  Name = 
REMARK  8 active torsions:
REMARK  status: ('A' for Active; 'I' for Inactive)
REMARK    1  A    between atoms: C_1  and  N_2
REMARK    2  A    between atoms: N_2  and  C_3
REMARK    3  A    between atoms: N_2  and  C_24
REMARK    4  A    between atoms: C_3  and  C_4
REMARK    5  A    between atoms: C_7  and  C_8
REMARK    6  A    between atoms: C_8  and  N_9
REMARK    7  A    between atoms: C_10  and  C_12
REMARK    8  A    between atoms: C_24  and  C_25
REMARK                            x       y       z     vdW  Elec       q    Type
REMARK                         _______ _______ _______ _____ _____    ______ ____
ROOT
ATOM      1  C   UNL     1      46.197   5.614  12.423  0.00  0.00    +0.000 A 
ATOM      2  C   UNL     1      46.666   6.486  11.426  0.00  0.00    +0.000 A 
ATOM      3  C   UNL     1      47.859   7.193  11.591  0.00  0.00    +0.000 A 
ATOM      4  C   UNL     1      48.605   7.055  12.769  0.00  0.00    +0.000 A 
ATOM      5  C   UNL     1      48.115   6.222  13.784  0.00  0.00    +0.000 A 
ATOM      6  C   UNL     1      46.934   5.495  13.607  0.00  0.00    +0.000 A 
ENDROOT
BRANCH   1   7
ATOM      7  C   UNL     1      44.946   4.786  12.191  0.00  0.00    +0.000 C 
BRANCH   7   9
ATOM      8  C   UNL     1      43.019   6.039  11.384  0.00  0.00    +0.000 C 
ATOM      9  N   UNL     1      44.163   5.197  11.007  0.00  0.00    +0.000 NA
BRANCH   9  10
ATOM     10  C   UNL     1      43.696   4.001  10.273  0.00  0.00    +0.000 C 
BRANCH  10  11
ATOM     11  C   UNL     1      44.756   3.417   9.369  0.00  0.00    +0.000 A 
ATOM     12  C   UNL     1      45.462   4.210   8.458  0.00  0.00    +0.000 A 
ATOM     13  C   UNL     1      46.365   3.617   7.581  0.00  0.00    +0.000 A 
ATOM     14  C   UNL     1      46.542   2.245   7.649  0.00  0.00    +0.000 A 
ATOM     15  N   UNL     1      45.894   1.446   8.524  0.00  0.00    +0.000 NA
ATOM     16  C   UNL     1      45.017   2.049   9.359  0.00  0.00    +0.000 A 
ENDBRANCH  10  11
ENDBRANCH   9  10
ENDBRANCH   7   9
ENDBRANCH   1   7
BRANCH   4  17
ATOM     17  C   UNL     1      49.899   7.801  12.961  0.00  0.00    +0.000 C 
BRANCH  17  18
ATOM     18  N   UNL     1      50.458   8.209  11.699  0.00  0.00    +0.000 N 
ATOM     19  C   UNL     1      51.799   8.458  11.562  0.00  0.00    +0.000 C 
ATOM     20  O   UNL     1      52.589   8.321  12.492  0.00  0.00    +0.000 OA
ATOM     21  H   UNL     1      49.813   8.583  11.011  0.00  0.00    +0.000 HD
BRANCH  19  22
ATOM     22  C   UNL     1      52.254   8.836  10.218  0.00  0.00    +0.000 A 
ATOM     23  C   UNL     1      52.133  10.152   9.793  0.00  0.00    +0.000 A 
ATOM     24  S   UNL     1      52.750  10.421   8.225  0.00  0.00    +0.000 S 
ATOM     25  C   UNL     1      53.153   8.779   8.040  0.00  0.00    +0.000 A 
ATOM     26  N   UNL     1      53.698   8.316   6.882  0.00  0.00    +0.000 NA
ATOM     27  C   UNL     1      53.927   7.046   6.873  0.00  0.00    +0.000 A 
ATOM     28  N   UNL     1      53.668   6.194   7.915  0.00  0.00    +0.000 N 
ATOM     29  C   UNL     1      53.140   6.619   9.114  0.00  0.00    +0.000 A 
ATOM     30  O   UNL     1      52.964   5.845  10.045  0.00  0.00    +0.000 OA
ATOM     31  C   UNL     1      52.849   8.041   9.168  0.00  0.00    +0.000 A 
ATOM     32  H   UNL     1      53.881   5.210   7.848  0.00  0.00    +0.000 HD
ENDBRANCH  19  22
ENDBRANCH  17  18
ENDBRANCH   4  17
TORSDOF 7
ENDMDL
MODEL 5
REMARK VINA RESULT:    -6.722      3.888      5.873
REMARK INTER + INTRA:         -10.512
REMARK INTER:                  -9.186
REMARK INTRA:                  -1.326
REMARK UNBOUND:                -1.039
REMARK  Name = 
REMARK  8 active torsions:
REMARK  status: ('A' for Active; 'I' for Inactive)
REMARK    1  A    between atoms: C_1  and  N_2
REMARK    2  A    between atoms: N_2  and  C_3
REMARK    3  A    between atoms: N_2  and  C_24
REMARK    4  A    between atoms: C_3  and  C_4
REMARK    5  A    between atoms: C_7  and  C_8
REMARK    6  A    between atoms: C_8  and  N_9
REMARK    7  A    between atoms: C_10  and  C_12
REMARK    8  A    between atoms: C_24  and  C_25
REMARK                            x       y       z     vdW  Elec       q    Type
REMARK                         _______ _______ _______ _____ _____    ______ ____
ROOT
ATOM      1  C   UNL     1      46.374   4.780  13.149  0.00  0.00    +0.000 A 
ATOM      2  C   UNL     1      46.930   4.553  14.418  0.00  0.00    +0.000 A 
ATOM      3  C   UNL     1      47.845   5.451  14.973  0.00  0.00    +0.000 A 
ATOM      4  C   UNL     1      48.238   6.591  14.260  0.00  0.00    +0.000 A 
ATOM      5  C   UNL     1      47.720   6.794  12.973  0.00  0.00    +0.000 A 
ATOM      6  C   UNL     1      46.784   5.909  12.429  0.00  0.00    +0.000 A 
ENDROOT
BRANCH   1   7
ATOM      7  C   UNL     1      45.313   3.843  12.597  0.00  0.00    +0.000 C 
BRANCH   7   9
ATOM      8  C   UNL     1      43.149   4.921  12.897  0.00  0.00    +0.000 C 
ATOM      9  N   UNL     1      44.187   4.534  11.933  0.00  0.00    +0.000 NA
BRANCH   9  10
ATOM     10  C   UNL     1      43.612   3.664  10.885  0.00  0.00    +0.000 C 
BRANCH  10  11
ATOM     11  C   UNL     1      44.525   3.498   9.692  0.00  0.00    +0.000 A 
ATOM     12  C   UNL     1      44.937   2.235   9.255  0.00  0.00    +0.000 A 
ATOM     13  C   UNL     1      45.849   2.131   8.209  0.00  0.00    +0.000 A 
ATOM     14  C   UNL     1      46.315   3.297   7.625  0.00  0.00    +0.000 A 
ATOM     15  N   UNL     1      45.929   4.535   8.006  0.00  0.00    +0.000 NA
ATOM     16  C   UNL     1      45.048   4.605   9.029  0.00  0.00    +0.000 A 
ENDBRANCH  10  11
ENDBRANCH   9  10
ENDBRANCH   7   9
ENDBRANCH   1   7
BRANCH   4  17
ATOM     17  C   UNL     1      49.216   7.574  14.846  0.00  0.00    +0.000 C 
BRANCH  17  18
ATOM     18  N   UNL     1      50.427   7.634  14.069  0.00  0.00    +0.000 N 
ATOM     19  C   UNL     1      50.971   8.833  13.690  0.00  0.00    +0.000 C 
ATOM     20  O   UNL     1      50.474   9.909  14.014  0.00  0.00    +0.000 OA
ATOM     21  H   UNL     1      50.695   6.790  13.574  0.00  0.00    +0.000 HD
BRANCH  19  22
ATOM     22  C   UNL     1      52.224   8.765  12.929  0.00  0.00    +0.000 A 
ATOM     23  C   UNL     1      53.391   9.284  13.473  0.00  0.00    +0.000 A 
ATOM     24  S   UNL     1      54.759   9.081  12.472  0.00  0.00    +0.000 S 
ATOM     25  C   UNL     1      53.829   8.339  11.256  0.00  0.00    +0.000 A 
ATOM     26  N   UNL     1      54.394   7.945  10.083  0.00  0.00    +0.000 NA
ATOM     27  C   UNL     1      53.566   7.422   9.242  0.00  0.00    +0.000 A 
ATOM     28  N   UNL     1      52.224   7.250   9.467  0.00  0.00    +0.000 N 
ATOM     29  C   UNL     1      51.611   7.612  10.645  0.00  0.00    +0.000 A 
ATOM     30  O   UNL     1      50.421   7.403  10.837  0.00  0.00    +0.000 OA
ATOM     31  C   UNL     1      52.500   8.221  11.619  0.00  0.00    +0.000 A 
ATOM     32  H   UNL     1      51.631   6.824   8.770  0.00  0.00    +0.000 HD
ENDBRANCH  19  22
ENDBRANCH  17  18
ENDBRANCH   4  17
TORSDOF 7
ENDMDL
MODEL 6
REMARK VINA RESULT:    -6.693      1.902      2.511
REMARK INTER + INTRA:         -10.471
REMARK INTER:                  -9.523
REMARK INTRA:                  -0.948
REMARK UNBOUND:                -1.039
REMARK  Name = 
REMARK  8 active torsions:
REMARK  status: ('A' for Active; 'I' for Inactive)
REMARK    1  A    between atoms: C_1  and  N_2
REMARK    2  A    between atoms: N_2  and  C_3
REMARK    3  A    between atoms: N_2  and  C_24
REMARK    4  A    between atoms: C_3  and  C_4
REMARK    5  A    between atoms: C_7  and  C_8
REMARK    6  A    between atoms: C_8  and  N_9
REMARK    7  A    between atoms: C_10  and  C_12
REMARK    8  A    between atoms: C_24  and  C_25
REMARK                            x       y       z     vdW  Elec       q    Type
REMARK                         _______ _______ _______ _____ _____    ______ ____
ROOT
ATOM      1  C   UNL     1      46.019   4.484  12.783  0.00  0.00    +0.000 A 
ATOM      2  C   UNL     1      46.645   4.267  14.021  0.00  0.00    +0.000 A 
ATOM      3  C   UNL     1      47.439   5.256  14.609  0.00  0.00    +0.000 A 
ATOM      4  C   UNL     1      47.636   6.482  13.960  0.00  0.00    +0.000 A 
ATOM      5  C   UNL     1      47.050   6.681  12.703  0.00  0.00    +0.000 A 
ATOM      6  C   UNL     1      46.235   5.702  12.127  0.00  0.00    +0.000 A 
ENDROOT
BRANCH   1   7
ATOM      7  C   UNL     1      45.088   3.436  12.200  0.00  0.00    +0.000 C 
BRANCH   7   9
ATOM      8  C   UNL     1      43.000   4.422  11.422  0.00  0.00    +0.000 C 
ATOM      9  N   UNL     1      44.317   3.902  11.028  0.00  0.00    +0.000 NA
BRANCH   9  10
ATOM     10  C   UNL     1      44.159   2.796  10.059  0.00  0.00    +0.000 C 
BRANCH  10  11
ATOM     11  C   UNL     1      45.165   2.853   8.934  0.00  0.00    +0.000 A 
ATOM     12  C   UNL     1      45.845   1.710   8.500  0.00  0.00    +0.000 A 
ATOM     13  C   UNL     1      46.829   1.821   7.522  0.00  0.00    +0.000 A 
ATOM     14  C   UNL     1      47.096   3.075   7.000  0.00  0.00    +0.000 A 
ATOM     15  N   UNL     1      46.451   4.201   7.378  0.00  0.00    +0.000 NA
ATOM     16  C   UNL     1      45.505   4.062   8.335  0.00  0.00    +0.000 A 
ENDBRANCH  10  11
ENDBRANCH   9  10
ENDBRANCH   7   9
ENDBRANCH   1   7
BRANCH   4  17
ATOM     17  C   UNL     1      48.480   7.562  14.583  0.00  0.00    +0.000 C 
BRANCH  17  18
ATOM     18  N   UNL     1      48.661   7.336  15.993  0.00  0.00    +0.000 N 
ATOM     19  C   UNL     1      48.390   8.317  16.912  0.00  0.00    +0.000 C 
ATOM     20  O   UNL     1      47.957   9.419  16.585  0.00  0.00    +0.000 OA
ATOM     21  H   UNL     1      49.256   6.559  16.260  0.00  0.00    +0.000 HD
BRANCH  19  22
ATOM     22  C   UNL     1      48.582   7.956  18.322  0.00  0.00    +0.000 A 
ATOM     23  C   UNL     1      47.598   7.239  18.990  0.00  0.00    +0.000 A 
ATOM     24  S   UNL     1      48.004   6.868  20.606  0.00  0.00    +0.000 S 
ATOM     25  C   UNL     1      49.485   7.697  20.483  0.00  0.00    +0.000 A 
ATOM     26  N   UNL     1      50.322   7.798  21.550  0.00  0.00    +0.000 NA
ATOM     27  C   UNL     1      51.397   8.477  21.321  0.00  0.00    +0.000 A 
ATOM     28  N   UNL     1      51.715   9.060  20.122  0.00  0.00    +0.000 N 
ATOM     29  C   UNL     1      50.911   8.966  19.008  0.00  0.00    +0.000 A 
ATOM     30  O   UNL     1      51.243   9.455  17.937  0.00  0.00    +0.000 OA
ATOM     31  C   UNL     1      49.681   8.224  19.220  0.00  0.00    +0.000 A 
ATOM     32  H   UNL     1      52.578   9.571  20.006  0.00  0.00    +0.000 HD
ENDBRANCH  19  22
ENDBRANCH  17  18
ENDBRANCH   4  17
TORSDOF 7
ENDMDL
MODEL 7
REMARK VINA RESULT:    -6.668      3.360      8.162
REMARK INTER + INTRA:         -10.436
REMARK INTER:                  -8.589
REMARK INTRA:                  -1.847
REMARK UNBOUND:                -1.039
REMARK  Name = 
REMARK  8 active torsions:
REMARK  status: ('A' for Active; 'I' for Inactive)
REMARK    1  A    between atoms: C_1  and  N_2
REMARK    2  A    between atoms: N_2  and  C_3
REMARK    3  A    between atoms: N_2  and  C_24
REMARK    4  A    between atoms: C_3  and  C_4
REMARK    5  A    between atoms: C_7  and  C_8
REMARK    6  A    between atoms: C_8  and  N_9
REMARK    7  A    between atoms: C_10  and  C_12
REMARK    8  A    between atoms: C_24  and  C_25
REMARK                            x       y       z     vdW  Elec       q    Type
REMARK                         _______ _______ _______ _____ _____    ______ ____
ROOT
ATOM      1  C   UNL     1      49.494   7.767  18.366  0.00  0.00    +0.000 A 
ATOM      2  C   UNL     1      48.498   8.757  18.371  0.00  0.00    +0.000 A 
ATOM      3  C   UNL     1      48.036   9.318  17.178  0.00  0.00    +0.000 A 
ATOM      4  C   UNL     1      48.576   8.912  15.950  0.00  0.00    +0.000 A 
ATOM      5  C   UNL     1      49.604   7.959  15.948  0.00  0.00    +0.000 A 
ATOM      6  C   UNL     1      50.046   7.378  17.140  0.00  0.00    +0.000 A 
ENDROOT
BRANCH   1   7
ATOM      7  C   UNL     1      49.921   7.102  19.663  0.00  0.00    +0.000 C 
BRANCH   7   9
ATOM      8  C   UNL     1      48.744   6.050  21.519  0.00  0.00    +0.000 C 
ATOM      9  N   UNL     1      49.048   5.985  20.083  0.00  0.00    +0.000 NA
BRANCH   9  10
ATOM     10  C   UNL     1      49.690   4.695  19.755  0.00  0.00    +0.000 C 
BRANCH  10  11
ATOM     11  C   UNL     1      49.117   4.052  18.514  0.00  0.00    +0.000 A 
ATOM     12  C   UNL     1      47.789   4.260  18.128  0.00  0.00    +0.000 A 
ATOM     13  C   UNL     1      47.274   3.577  17.029  0.00  0.00    +0.000 A 
ATOM     14  C   UNL     1      48.110   2.713  16.343  0.00  0.00    +0.000 A 
ATOM     15  N   UNL     1      49.403   2.497  16.672  0.00  0.00    +0.000 NA
ATOM     16  C   UNL     1      49.872   3.168  17.748  0.00  0.00    +0.000 A 
ENDBRANCH  10  11
ENDBRANCH   9  10
ENDBRANCH   7   9
ENDBRANCH   1   7
BRANCH   4  17
ATOM     17  C   UNL     1      48.084   9.499  14.654  0.00  0.00    +0.000 C 
BRANCH  17  18
ATOM     18  N   UNL     1      47.027   8.702  14.087  0.00  0.00    +0.000 N 
ATOM     19  C   UNL     1      47.252   7.885  13.009  0.00  0.00    +0.000 C 
ATOM     20  O   UNL     1      48.361   7.771  12.494  0.00  0.00    +0.000 OA
ATOM     21  H   UNL     1      46.077   8.977  14.310  0.00  0.00    +0.000 HD
BRANCH  19  22
ATOM     22  C   UNL     1      46.104   7.098  12.543  0.00  0.00    +0.000 A 
ATOM     23  C   UNL     1      45.038   7.735  11.921  0.00  0.00    +0.000 A 
ATOM     24  S   UNL     1      43.812   6.665  11.405  0.00  0.00    +0.000 S 
ATOM     25  C   UNL     1      44.639   5.321  12.040  0.00  0.00    +0.000 A 
ATOM     26  N   UNL     1      44.107   4.071  11.968  0.00  0.00    +0.000 NA
ATOM     27  C   UNL     1      44.831   3.152  12.514  0.00  0.00    +0.000 A 
ATOM     28  N   UNL     1      46.042   3.364  13.121  0.00  0.00    +0.000 N 
ATOM     29  C   UNL     1      46.632   4.606  13.198  0.00  0.00    +0.000 A 
ATOM     30  O   UNL     1      47.735   4.759  13.703  0.00  0.00    +0.000 OA
ATOM     31  C   UNL     1      45.847   5.678  12.612  0.00  0.00    +0.000 A 
ATOM     32  H   UNL     1      46.564   2.599  13.520  0.00  0.00    +0.000 HD
ENDBRANCH  19  22
ENDBRANCH  17  18
ENDBRANCH   4  17
TORSDOF 7
ENDMDL
MODEL 8
REMARK VINA RESULT:    -6.517      2.141      2.944
REMARK INTER + INTRA:         -10.223
REMARK INTER:                  -9.656
REMARK INTRA:                  -0.567
REMARK UNBOUND:                -1.039
REMARK  Name = 
REMARK  8 active torsions:
REMARK  status: ('A' for Active; 'I' for Inactive)
REMARK    1  A    between atoms: C_1  and  N_2
REMARK    2  A    between atoms: N_2  and  C_3
REMARK    3  A    between atoms: N_2  and  C_24
REMARK    4  A    between atoms: C_3  and  C_4
REMARK    5  A    between atoms: C_7  and  C_8
REMARK    6  A    between atoms: C_8  and  N_9
REMARK    7  A    between atoms: C_10  and  C_12
REMARK    8  A    between atoms: C_24  and  C_25
REMARK                            x       y       z     vdW  Elec       q    Type
REMARK                         _______ _______ _______ _____ _____    ______ ____
ROOT
ATOM      1  C   UNL     1      46.448   6.678  11.849  0.00  0.00    +0.000 A 
ATOM      2  C   UNL     1      47.694   6.392  12.430  0.00  0.00    +0.000 A 
ATOM      3  C   UNL     1      48.221   7.201  13.439  0.00  0.00    +0.000 A 
ATOM      4  C   UNL     1      47.517   8.329  13.880  0.00  0.00    +0.000 A 
ATOM      5  C   UNL     1      46.295   8.643  13.268  0.00  0.00    +0.000 A 
ATOM      6  C   UNL     1      45.757   7.818  12.276  0.00  0.00    +0.000 A 
ENDROOT
BRANCH   1   7
ATOM      7  C   UNL     1      45.848   5.740  10.816  0.00  0.00    +0.000 C 
BRANCH   7   9
ATOM      8  C   UNL     1      44.774   4.139  12.307  0.00  0.00    +0.000 C 
ATOM      9  N   UNL     1      44.571   5.123  11.235  0.00  0.00    +0.000 NA
BRANCH   9  10
ATOM     10  C   UNL     1      43.917   4.484  10.073  0.00  0.00    +0.000 C 
BRANCH  10  11
ATOM     11  C   UNL     1      44.879   3.686   9.224  0.00  0.00    +0.000 A 
ATOM     12  C   UNL     1      45.570   4.268   8.156  0.00  0.00    +0.000 A 
ATOM     13  C   UNL     1      46.377   3.477   7.343  0.00  0.00    +0.000 A 
ATOM     14  C   UNL     1      46.475   2.126   7.631  0.00  0.00    +0.000 A 
ATOM     15  N   UNL     1      45.839   1.529   8.662  0.00  0.00    +0.000 NA
ATOM     16  C   UNL     1      45.056   2.321   9.430  0.00  0.00    +0.000 A 
ENDBRANCH  10  11
ENDBRANCH   9  10
ENDBRANCH   7   9
ENDBRANCH   1   7
BRANCH   4  17
ATOM     17  C   UNL     1      48.064   9.207  14.974  0.00  0.00    +0.000 C 
BRANCH  17  18
ATOM     18  N   UNL     1      47.830   8.632  16.272  0.00  0.00    +0.000 N 
ATOM     19  C   UNL     1      48.817   7.954  16.939  0.00  0.00    +0.000 C 
ATOM     20  O   UNL     1      49.949   7.828  16.481  0.00  0.00    +0.000 OA
ATOM     21  H   UNL     1      46.862   8.489  16.541  0.00  0.00    +0.000 HD
BRANCH  19  22
ATOM     22  C   UNL     1      48.466   7.443  18.270  0.00  0.00    +0.000 A 
ATOM     23  C   UNL     1      48.653   6.098  18.563  0.00  0.00    +0.000 A 
ATOM     24  S   UNL     1      48.233   5.685  20.165  0.00  0.00    +0.000 S 
ATOM     25  C   UNL     1      47.739   7.277  20.506  0.00  0.00    +0.000 A 
ATOM     26  N   UNL     1      47.225   7.607  21.721  0.00  0.00    +0.000 NA
ATOM     27  C   UNL     1      46.868   8.843  21.831  0.00  0.00    +0.000 A 
ATOM     28  N   UNL     1      46.981   9.783  20.839  0.00  0.00    +0.000 N 
ATOM     29  C   UNL     1      47.515   9.502  19.601  0.00  0.00    +0.000 A 
ATOM     30  O   UNL     1      47.649  10.372  18.751  0.00  0.00    +0.000 OA
ATOM     31  C   UNL     1      47.918   8.118  19.424  0.00  0.00    +0.000 A 
ATOM     32  H   UNL     1      46.691  10.737  20.992  0.00  0.00    +0.000 HD
ENDBRANCH  19  22
ENDBRANCH  17  18
ENDBRANCH   4  17
TORSDOF 7
ENDMDL
MODEL 9
REMARK VINA RESULT:    -6.446      1.713      2.332
REMARK INTER + INTRA:         -10.122
REMARK INTER:                  -9.575
REMARK INTRA:                  -0.547
REMARK UNBOUND:                -1.039
REMARK  Name = 
REMARK  8 active torsions:
REMARK  status: ('A' for Active; 'I' for Inactive)
REMARK    1  A    between atoms: C_1  and  N_2
REMARK    2  A    between atoms: N_2  and  C_3
REMARK    3  A    between atoms: N_2  and  C_24
REMARK    4  A    between atoms: C_3  and  C_4
REMARK    5  A    between atoms: C_7  and  C_8
REMARK    6  A    between atoms: C_8  and  N_9
REMARK    7  A    between atoms: C_10  and  C_12
REMARK    8  A    between atoms: C_24  and  C_25
REMARK                            x       y       z     vdW  Elec       q    Type
REMARK                         _______ _______ _______ _____ _____    ______ ____
ROOT
ATOM      1  C   UNL     1      46.265   7.106  11.622  0.00  0.00    +0.000 A 
ATOM      2  C   UNL     1      47.657   6.926  11.587  0.00  0.00    +0.000 A 
ATOM      3  C   UNL     1      48.488   7.566  12.510  0.00  0.00    +0.000 A 
ATOM      4  C   UNL     1      47.944   8.415  13.482  0.00  0.00    +0.000 A 
ATOM      5  C   UNL     1      46.559   8.633  13.488  0.00  0.00    +0.000 A 
ATOM      6  C   UNL     1      45.725   7.972  12.581  0.00  0.00    +0.000 A 
ENDROOT
BRANCH   1   7
ATOM      7  C   UNL     1      45.367   6.335  10.670  0.00  0.00    +0.000 C 
BRANCH   7   9
ATOM      8  C   UNL     1      45.467   4.380  12.122  0.00  0.00    +0.000 C 
ATOM      9  N   UNL     1      44.599   5.249  11.315  0.00  0.00    +0.000 NA
BRANCH   9  10
ATOM     10  C   UNL     1      43.894   4.453  10.288  0.00  0.00    +0.000 C 
BRANCH  10  11
ATOM     11  C   UNL     1      44.837   3.685   9.391  0.00  0.00    +0.000 A 
ATOM     12  C   UNL     1      45.536   4.312   8.355  0.00  0.00    +0.000 A 
ATOM     13  C   UNL     1      46.326   3.552   7.496  0.00  0.00    +0.000 A 
ATOM     14  C   UNL     1      46.398   2.186   7.708  0.00  0.00    +0.000 A 
ATOM     15  N   UNL     1      45.753   1.544   8.707  0.00  0.00    +0.000 NA
ATOM     16  C   UNL     1      44.989   2.307   9.520  0.00  0.00    +0.000 A 
ENDBRANCH  10  11
ENDBRANCH   9  10
ENDBRANCH   7   9
ENDBRANCH   1   7
BRANCH   4  17
ATOM     17  C   UNL     1      48.823   9.105  14.491  0.00  0.00    +0.000 C 
BRANCH  17  18
ATOM     18  N   UNL     1      49.057   8.268  15.639  0.00  0.00    +0.000 N 
ATOM     19  C   UNL     1      48.466   8.535  16.846  0.00  0.00    +0.000 C 
ATOM     20  O   UNL     1      47.692   9.476  17.003  0.00  0.00    +0.000 OA
ATOM     21  H   UNL     1      49.876   7.670  15.610  0.00  0.00    +0.000 HD
BRANCH  19  22
ATOM     22  C   UNL     1      48.757   7.591  17.932  0.00  0.00    +0.000 A 
ATOM     23  C   UNL     1      49.085   8.070  19.193  0.00  0.00    +0.000 A 
ATOM     24  S   UNL     1      49.349   6.837  20.344  0.00  0.00    +0.000 S 
ATOM     25  C   UNL     1      49.084   5.621  19.184  0.00  0.00    +0.000 A 
ATOM     26  N   UNL     1      49.196   4.305  19.509  0.00  0.00    +0.000 NA
ATOM     27  C   UNL     1      48.994   3.494  18.525  0.00  0.00    +0.000 A 
ATOM     28  N   UNL     1      48.683   3.876  17.246  0.00  0.00    +0.000 N 
ATOM     29  C   UNL     1      48.536   5.193  16.874  0.00  0.00    +0.000 A 
ATOM     30  O   UNL     1      48.211   5.503  15.736  0.00  0.00    +0.000 OA
ATOM     31  C   UNL     1      48.770   6.146  17.945  0.00  0.00    +0.000 A 
ATOM     32  H   UNL     1      48.527   3.190  16.522  0.00  0.00    +0.000 HD
ENDBRANCH  19  22
ENDBRANCH  17  18
ENDBRANCH   4  17
TORSDOF 7
ENDMDL
