MODEL 1
REMARK VINA RESULT:    -8.366      0.000      0.000
REMARK INTER + INTRA:         -12.101
REMARK INTER:                 -11.301
REMARK INTRA:                  -0.800
REMARK UNBOUND:                -0.800
REMARK  Name = 
REMARK  6 active torsions:
REMARK  status: ('A' for Active; 'I' for Inactive)
REMARK    1  A    between atoms: C_2  and  C_4
REMARK    2  A    between atoms: C_7  and  O_8
REMARK    3  A    between atoms: O_8  and  C_9
REMARK    4  A    between atoms: C_9  and  C_10
REMARK    5  A    between atoms: C_10  and  C_11
REMARK    6  A    between atoms: C_15  and  C_16
REMARK                            x       y       z     vdW  Elec       q    Type
REMARK                         _______ _______ _______ _____ _____    ______ ____
ROOT
ATOM      1  C   UNL     1      43.453   4.920  12.399  0.00  0.00    +0.000 C 
ENDROOT
BRANCH   1   2
ATOM      2  C   UNL     1      44.830   5.405  12.771  0.00  0.00    +0.000 A 
ATOM      3  C   UNL     1      45.717   4.568  13.451  0.00  0.00    +0.000 A 
ATOM      4  C   UNL     1      46.990   5.016  13.783  0.00  0.00    +0.000 A 
ATOM      5  C   UNL     1      47.390   6.304  13.430  0.00  0.00    +0.000 A 
ATOM      6  C   UNL     1      46.562   7.160  12.687  0.00  0.00    +0.000 A 
ATOM      7  C   UNL     1      45.258   6.693  12.406  0.00  0.00    +0.000 A 
BRANCH   6   8
ATOM      8  C   UNL     1      47.026   8.501  12.227  0.00  0.00    +0.000 A 
ATOM      9  C   UNL     1      46.102   9.572  12.201  0.00  0.00    +0.000 A 
ATOM     10  C   UNL     1      46.464  10.861  11.805  0.00  0.00    +0.000 A 
ATOM     11  C   UNL     1      47.774  11.126  11.442  0.00  0.00    +0.000 A 
ATOM     12  C   UNL     1      48.710  10.103  11.438  0.00  0.00    +0.000 A 
ATOM     13  C   UNL     1      48.341   8.797  11.798  0.00  0.00    +0.000 A 
ATOM     14 CL   UNL     1      49.602   7.617  11.596  0.00  0.00    +0.000 Cl
ENDBRANCH   6   8
ENDBRANCH   1   2
BRANCH   1  15
ATOM     15  C   UNL     1      43.437   3.880  11.276  0.00  0.00    +0.000 C 
BRANCH  15  16
ATOM     16  O   UNL     1      43.707   4.557  10.039  0.00  0.00    +0.000 OA
BRANCH  16  20
ATOM     17  C   UNL     1      46.403   2.506   7.787  0.00  0.00    +0.000 A 
ATOM     18  C   UNL     1      46.263   3.880   7.634  0.00  0.00    +0.000 A 
ATOM     19  N   UNL     1      45.379   4.617   8.361  0.00  0.00    +0.000 NA
ATOM     20  C   UNL     1      44.639   3.916   9.249  0.00  0.00    +0.000 A 
ATOM     21  C   UNL     1      44.781   2.538   9.401  0.00  0.00    +0.000 A 
ATOM     22  N   UNL     1      45.658   1.791   8.678  0.00  0.00    +0.000 NA
BRANCH  17  24
ATOM     23  N   UNL     1      48.471   2.473   6.500  0.00  0.00    +0.000 N 
ATOM     24  C   UNL     1      47.391   1.767   6.954  0.00  0.00    +0.000 C 
ATOM     25  O   UNL     1      47.255   0.575   6.696  0.00  0.00    +0.000 OA
ATOM     26  H   UNL     1      49.189   1.980   5.989  0.00  0.00    +0.000 HD
ATOM     27  H   UNL     1      48.638   3.420   6.821  0.00  0.00    +0.000 HD
ENDBRANCH  17  24
ENDBRANCH  16  20
ENDBRANCH  15  16
ENDBRANCH   1  15
TORSDOF 6
ENDMDL
MODEL 2
REMARK VINA RESULT:    -8.364      1.092      1.468
REMARK INTER + INTRA:         -12.098
REMARK INTER:                 -11.306
REMARK INTRA:                  -0.792
REMARK UNBOUND:                -0.800
REMARK  Name = 
REMARK  6 active torsions:
REMARK  status: ('A' for Active; 'I' for Inactive)
REMARK    1  A    between atoms: C_2  and  C_4
REMARK    2  A    between atoms: C_7  and  O_8
REMARK    3  A    between atoms: O_8  and  C_9
REMARK    4  A    between atoms: C_9  and  C_10
REMARK    5  A    between atoms: C_10  and  C_11
REMARK    6  A    between atoms: C_15  and  C_16
REMARK                            x       y       z     vdW  Elec       q    Type
REMARK                         _______ _______ _______ _____ _____    ______ ____
ROOT
ATOM      1  C   UNL     1      43.448   4.954  12.292  0.00  0.00    +0.000 C 
ENDROOT
BRANCH   1   2
ATOM      2  C   UNL     1      44.874   5.262  12.667  0.00  0.00    +0.000 A 
ATOM      3  C   UNL     1      45.662   4.304  13.309  0.00  0.00    +0.000 A 
ATOM      4  C   UNL     1      46.980   4.589  13.645  0.00  0.00    +0.000 A 
ATOM      5  C   UNL     1      47.526   5.834  13.332  0.00  0.00    +0.000 A 
ATOM      6  C   UNL     1      46.799   6.806  12.627  0.00  0.00    +0.000 A 
ATOM      7  C   UNL     1      45.448   6.504  12.342  0.00  0.00    +0.000 A 
BRANCH   6   8
ATOM      8  C   UNL     1      47.413   8.099  12.209  0.00  0.00    +0.000 A 
ATOM      9  C   UNL     1      48.785   8.124  11.864  0.00  0.00    +0.000 A 
ATOM     10  C   UNL     1      49.428   9.290  11.442  0.00  0.00    +0.000 A 
ATOM     11  C   UNL     1      48.709  10.468  11.327  0.00  0.00    +0.000 A 
ATOM     12  C   UNL     1      47.365  10.494  11.668  0.00  0.00    +0.000 A 
ATOM     13  C   UNL     1      46.724   9.333  12.131  0.00  0.00    +0.000 A 
ATOM     14 CL   UNL     1      45.084   9.581  12.649  0.00  0.00    +0.000 Cl
ENDBRANCH   6   8
ENDBRANCH   1   2
BRANCH   1  15
ATOM     15  C   UNL     1      43.305   3.972  11.127  0.00  0.00    +0.000 C 
BRANCH  15  16
ATOM     16  O   UNL     1      43.707   4.647   9.924  0.00  0.00    +0.000 OA
BRANCH  16  20
ATOM     17  C   UNL     1      46.380   2.426   7.810  0.00  0.00    +0.000 A 
ATOM     18  C   UNL     1      46.284   3.797   7.599  0.00  0.00    +0.000 A 
ATOM     19  N   UNL     1      45.410   4.588   8.278  0.00  0.00    +0.000 NA
ATOM     20  C   UNL     1      44.633   3.947   9.179  0.00  0.00    +0.000 A 
ATOM     21  C   UNL     1      44.731   2.573   9.391  0.00  0.00    +0.000 A 
ATOM     22  N   UNL     1      45.598   1.771   8.715  0.00  0.00    +0.000 NA
BRANCH  17  24
ATOM     23  N   UNL     1      48.438   2.293   6.514  0.00  0.00    +0.000 N 
ATOM     24  C   UNL     1      47.359   1.625   7.028  0.00  0.00    +0.000 C 
ATOM     25  O   UNL     1      47.220   0.417   6.860  0.00  0.00    +0.000 OA
ATOM     26  H   UNL     1      49.150   1.761   6.036  0.00  0.00    +0.000 HD
ATOM     27  H   UNL     1      48.608   3.261   6.761  0.00  0.00    +0.000 HD
ENDBRANCH  17  24
ENDBRANCH  16  20
ENDBRANCH  15  16
ENDBRANCH   1  15
TORSDOF 6
ENDMDL
MODEL 3
REMARK VINA RESULT:    -8.294      1.963      3.962
REMARK INTER + INTRA:         -12.003
REMARK INTER:                 -11.211
REMARK INTRA:                  -0.792
REMARK UNBOUND:                -0.800
REMARK  Name = 
REMARK  6 active torsions:
REMARK  status: ('A' for Active; 'I' for Inactive)
REMARK    1  A    between atoms: C_2  and  C_4
REMARK    2  A    between atoms: C_7  and  O_8
REMARK    3  A    between atoms: O_8  and  C_9
REMARK    4  A    between atoms: C_9  and  C_10
REMARK    5  A    between atoms: C_10  and  C_11
REMARK    6  A    between atoms: C_15  and  C_16
REMARK                            x       y       z     vdW  Elec       q    Type
REMARK                         _______ _______ _______ _____ _____    ______ ____
ROOT
ATOM      1  C   UNL     1      43.780   5.361  12.180  0.00  0.00    +0.000 C 
ENDROOT
BRANCH   1   2
ATOM      2  C   UNL     1      45.224   5.631  12.513  0.00  0.00    +0.000 A 
ATOM      3  C   UNL     1      46.008   6.429  11.679  0.00  0.00    +0.000 A 
ATOM      4  C   UNL     1      47.337   6.683  11.996  0.00  0.00    +0.000 A 
ATOM      5  C   UNL     1      47.892   6.148  13.157  0.00  0.00    +0.000 A 
ATOM      6  C   UNL     1      47.129   5.395  14.065  0.00  0.00    +0.000 A 
ATOM      7  C   UNL     1      45.796   5.116  13.690  0.00  0.00    +0.000 A 
BRANCH   6   8
ATOM      8  C   UNL     1      47.697   4.904  15.353  0.00  0.00    +0.000 A 
ATOM      9  C   UNL     1      47.462   3.562  15.736  0.00  0.00    +0.000 A 
ATOM     10  C   UNL     1      47.978   3.020  16.915  0.00  0.00    +0.000 A 
ATOM     11  C   UNL     1      48.770   3.801  17.741  0.00  0.00    +0.000 A 
ATOM     12  C   UNL     1      49.014   5.126  17.413  0.00  0.00    +0.000 A 
ATOM     13  C   UNL     1      48.464   5.686  16.248  0.00  0.00    +0.000 A 
ATOM     14 CL   UNL     1      48.752   7.391  16.070  0.00  0.00    +0.000 Cl
ENDBRANCH   6   8
ENDBRANCH   1   2
BRANCH   1  15
ATOM     15  C   UNL     1      43.564   4.163  11.253  0.00  0.00    +0.000 C 
BRANCH  15  16
ATOM     16  O   UNL     1      43.672   4.625   9.897  0.00  0.00    +0.000 OA
BRANCH  16  20
ATOM     17  C   UNL     1      46.402   2.474   7.784  0.00  0.00    +0.000 A 
ATOM     18  C   UNL     1      46.323   3.853   7.628  0.00  0.00    +0.000 A 
ATOM     19  N   UNL     1      45.431   4.622   8.310  0.00  0.00    +0.000 NA
ATOM     20  C   UNL     1      44.619   3.949   9.156  0.00  0.00    +0.000 A 
ATOM     21  C   UNL     1      44.700   2.567   9.311  0.00  0.00    +0.000 A 
ATOM     22  N   UNL     1      45.584   1.787   8.632  0.00  0.00    +0.000 NA
BRANCH  17  24
ATOM     23  N   UNL     1      48.440   2.402   6.451  0.00  0.00    +0.000 N 
ATOM     24  C   UNL     1      47.403   1.699   7.002  0.00  0.00    +0.000 C 
ATOM     25  O   UNL     1      47.316   0.482   6.867  0.00  0.00    +0.000 OA
ATOM     26  H   UNL     1      49.168   1.891   5.973  0.00  0.00    +0.000 HD
ATOM     27  H   UNL     1      48.571   3.382   6.672  0.00  0.00    +0.000 HD
ENDBRANCH  17  24
ENDBRANCH  16  20
ENDBRANCH  15  16
ENDBRANCH   1  15
TORSDOF 6
ENDMDL
MODEL 4
REMARK VINA RESULT:    -7.502      4.511      7.557
REMARK INTER + INTRA:         -10.934
REMARK INTER:                  -9.822
REMARK INTRA:                  -1.111
REMARK UNBOUND:                -0.800
REMARK  Name = 
REMARK  6 active torsions:
REMARK  status: ('A' for Active; 'I' for Inactive)
REMARK    1  A    between atoms: C_2  and  C_4
REMARK    2  A    between atoms: C_7  and  O_8
REMARK    3  A    between atoms: O_8  and  C_9
REMARK    4  A    between atoms: C_9  and  C_10
REMARK    5  A    between atoms: C_10  and  C_11
REMARK    6  A    between atoms: C_15  and  C_16
REMARK                            x       y       z     vdW  Elec       q    Type
REMARK                         _______ _______ _______ _____ _____    ______ ____
ROOT
ATOM      1  C   UNL     1      48.799   8.309  12.314  0.00  0.00    +0.000 C 
ENDROOT
BRANCH   1   2
ATOM      2  C   UNL     1      47.349   7.994  12.054  0.00  0.00    +0.000 A 
ATOM      3  C   UNL     1      46.357   8.936  12.330  0.00  0.00    +0.000 A 
ATOM      4  C   UNL     1      45.021   8.644  12.079  0.00  0.00    +0.000 A 
ATOM      5  C   UNL     1      44.667   7.408  11.540  0.00  0.00    +0.000 A 
ATOM      6  C   UNL     1      45.630   6.452  11.182  0.00  0.00    +0.000 A 
ATOM      7  C   UNL     1      46.974   6.760  11.493  0.00  0.00    +0.000 A 
BRANCH   6   8
ATOM      8  C   UNL     1      45.258   5.170  10.518  0.00  0.00    +0.000 A 
ATOM      9  C   UNL     1      45.562   4.997   9.147  0.00  0.00    +0.000 A 
ATOM     10  C   UNL     1      45.265   3.817   8.459  0.00  0.00    +0.000 A 
ATOM     11  C   UNL     1      44.676   2.760   9.131  0.00  0.00    +0.000 A 
ATOM     12  C   UNL     1      44.347   2.890  10.472  0.00  0.00    +0.000 A 
ATOM     13  C   UNL     1      44.607   4.089  11.158  0.00  0.00    +0.000 A 
ATOM     14 CL   UNL     1      43.999   4.127  12.785  0.00  0.00    +0.000 Cl
ENDBRANCH   6   8
ENDBRANCH   1   2
BRANCH   1  15
ATOM     15  C   UNL     1      49.529   7.256  13.152  0.00  0.00    +0.000 C 
BRANCH  15  16
ATOM     16  O   UNL     1      49.342   7.584  14.538  0.00  0.00    +0.000 OA
BRANCH  16  20
ATOM     17  C   UNL     1      48.049   4.550  16.918  0.00  0.00    +0.000 A 
ATOM     18  C   UNL     1      47.592   4.659  15.610  0.00  0.00    +0.000 A 
ATOM     19  N   UNL     1      47.992   5.651  14.769  0.00  0.00    +0.000 NA
ATOM     20  C   UNL     1      48.870   6.533  15.297  0.00  0.00    +0.000 A 
ATOM     21  C   UNL     1      49.328   6.423  16.608  0.00  0.00    +0.000 A 
ATOM     22  N   UNL     1      48.932   5.437  17.459  0.00  0.00    +0.000 NA
BRANCH  17  24
ATOM     23  N   UNL     1      48.292   3.161  18.905  0.00  0.00    +0.000 N 
ATOM     24  C   UNL     1      47.565   3.437  17.779  0.00  0.00    +0.000 C 
ATOM     25  O   UNL     1      46.551   2.802  17.505  0.00  0.00    +0.000 OA
ATOM     26  H   UNL     1      47.948   2.455  19.539  0.00  0.00    +0.000 HD
ATOM     27  H   UNL     1      49.053   3.769  19.187  0.00  0.00    +0.000 HD
ENDBRANCH  17  24
ENDBRANCH  16  20
ENDBRANCH  15  16
ENDBRANCH   1  15
TORSDOF 6
ENDMDL
MODEL 5
REMARK VINA RESULT:    -7.338      1.852      2.891
REMARK INTER + INTRA:         -10.712
REMARK INTER:                  -9.971
REMARK INTRA:                  -0.741
REMARK UNBOUND:                -0.800
REMARK  Name = 
REMARK  6 active torsions:
REMARK  status: ('A' for Active; 'I' for Inactive)
REMARK    1  A    between atoms: C_2  and  C_4
REMARK    2  A    between atoms: C_7  and  O_8
REMARK    3  A    between atoms: O_8  and  C_9
REMARK    4  A    between atoms: C_9  and  C_10
REMARK    5  A    between atoms: C_10  and  C_11
REMARK    6  A    between atoms: C_15  and  C_16
REMARK                            x       y       z     vdW  Elec       q    Type
REMARK                         _______ _______ _______ _____ _____    ______ ____
ROOT
ATOM      1  C   UNL     1      45.024   5.000  11.800  0.00  0.00    +0.000 C 
ENDROOT
BRANCH   1   2
ATOM      2  C   UNL     1      45.630   6.281  12.309  0.00  0.00    +0.000 A 
ATOM      3  C   UNL     1      44.936   7.488  12.198  0.00  0.00    +0.000 A 
ATOM      4  C   UNL     1      45.494   8.666  12.678  0.00  0.00    +0.000 A 
ATOM      5  C   UNL     1      46.750   8.647  13.283  0.00  0.00    +0.000 A 
ATOM      6  C   UNL     1      47.460   7.452  13.481  0.00  0.00    +0.000 A 
ATOM      7  C   UNL     1      46.886   6.279  12.940  0.00  0.00    +0.000 A 
BRANCH   6   8
ATOM      8  C   UNL     1      48.758   7.419  14.213  0.00  0.00    +0.000 A 
ATOM      9  C   UNL     1      48.816   6.779  15.474  0.00  0.00    +0.000 A 
ATOM     10  C   UNL     1      49.999   6.687  16.210  0.00  0.00    +0.000 A 
ATOM     11  C   UNL     1      51.172   7.212  15.695  0.00  0.00    +0.000 A 
ATOM     12  C   UNL     1      51.159   7.862  14.470  0.00  0.00    +0.000 A 
ATOM     13  C   UNL     1      49.964   7.992  13.744  0.00  0.00    +0.000 A 
ATOM     14 CL   UNL     1      50.104   8.957  12.306  0.00  0.00    +0.000 Cl
ENDBRANCH   6   8
ENDBRANCH   1   2
BRANCH   1  15
ATOM     15  C   UNL     1      43.943   5.197  10.734  0.00  0.00    +0.000 C 
BRANCH  15  16
ATOM     16  O   UNL     1      43.717   3.932  10.091  0.00  0.00    +0.000 OA
BRANCH  16  20
ATOM     17  C   UNL     1      46.601   2.730   7.487  0.00  0.00    +0.000 A 
ATOM     18  C   UNL     1      46.261   4.074   7.585  0.00  0.00    +0.000 A 
ATOM     19  N   UNL     1      45.306   4.533   8.439  0.00  0.00    +0.000 NA
ATOM     20  C   UNL     1      44.705   3.585   9.192  0.00  0.00    +0.000 A 
ATOM     21  C   UNL     1      45.047   2.238   9.093  0.00  0.00    +0.000 A 
ATOM     22  N   UNL     1      45.997   1.767   8.241  0.00  0.00    +0.000 NA
BRANCH  17  24
ATOM     23  N   UNL     1      47.728   2.982   5.342  0.00  0.00    +0.000 N 
ATOM     24  C   UNL     1      47.656   2.304   6.528  0.00  0.00    +0.000 C 
ATOM     25  O   UNL     1      48.439   1.395   6.789  0.00  0.00    +0.000 OA
ATOM     26  H   UNL     1      48.476   2.756   4.702  0.00  0.00    +0.000 HD
ATOM     27  H   UNL     1      47.161   3.808   5.188  0.00  0.00    +0.000 HD
ENDBRANCH  17  24
ENDBRANCH  16  20
ENDBRANCH  15  16
ENDBRANCH   1  15
TORSDOF 6
ENDMDL
MODEL 6
REMARK VINA RESULT:    -6.789      5.379      8.470
REMARK INTER + INTRA:          -9.971
REMARK INTER:                  -9.095
REMARK INTRA:                  -0.875
REMARK UNBOUND:                -0.800
REMARK  Name = 
REMARK  6 active torsions:
REMARK  status: ('A' for Active; 'I' for Inactive)
REMARK    1  A    between atoms: C_2  and  C_4
REMARK    2  A    between atoms: C_7  and  O_8
REMARK    3  A    between atoms: O_8  and  C_9
REMARK    4  A    between atoms: C_9  and  C_10
REMARK    5  A    between atoms: C_10  and  C_11
REMARK    6  A    between atoms: C_15  and  C_16
REMARK                            x       y       z     vdW  Elec       q    Type
REMARK                         _______ _______ _______ _____ _____    ______ ____
ROOT
ATOM      1  C   UNL     1      48.720   7.767  12.967  0.00  0.00    +0.000 C 
ENDROOT
BRANCH   1   2
ATOM      2  C   UNL     1      47.319   7.630  12.431  0.00  0.00    +0.000 A 
ATOM      3  C   UNL     1      46.410   8.685  12.540  0.00  0.00    +0.000 A 
ATOM      4  C   UNL     1      45.122   8.557  12.036  0.00  0.00    +0.000 A 
ATOM      5  C   UNL     1      44.733   7.375  11.408  0.00  0.00    +0.000 A 
ATOM      6  C   UNL     1      45.627   6.310  11.211  0.00  0.00    +0.000 A 
ATOM      7  C   UNL     1      46.914   6.453  11.777  0.00  0.00    +0.000 A 
BRANCH   6   8
ATOM      8  C   UNL     1      45.239   5.085  10.456  0.00  0.00    +0.000 A 
ATOM      9  C   UNL     1      45.620   4.969   9.098  0.00  0.00    +0.000 A 
ATOM     10  C   UNL     1      45.314   3.844   8.330  0.00  0.00    +0.000 A 
ATOM     11  C   UNL     1      44.635   2.783   8.905  0.00  0.00    +0.000 A 
ATOM     12  C   UNL     1      44.228   2.859  10.229  0.00  0.00    +0.000 A 
ATOM     13  C   UNL     1      44.499   4.005  10.994  0.00  0.00    +0.000 A 
ATOM     14 CL   UNL     1      43.793   3.988  12.581  0.00  0.00    +0.000 Cl
ENDBRANCH   6   8
ENDBRANCH   1   2
BRANCH   1  15
ATOM     15  C   UNL     1      48.834   7.578  14.481  0.00  0.00    +0.000 C 
BRANCH  15  16
ATOM     16  O   UNL     1      48.805   6.169  14.757  0.00  0.00    +0.000 OA
BRANCH  16  20
ATOM     17  C   UNL     1      48.424   5.466  18.745  0.00  0.00    +0.000 A 
ATOM     18  C   UNL     1      48.282   4.426  17.833  0.00  0.00    +0.000 A 
ATOM     19  N   UNL     1      48.401   4.603  16.489  0.00  0.00    +0.000 NA
ATOM     20  C   UNL     1      48.668   5.869  16.096  0.00  0.00    +0.000 A 
ATOM     21  C   UNL     1      48.810   6.910  17.012  0.00  0.00    +0.000 A 
ATOM     22  N   UNL     1      48.690   6.746  18.357  0.00  0.00    +0.000 NA
BRANCH  17  24
ATOM     23  N   UNL     1      49.087   4.230  20.737  0.00  0.00    +0.000 N 
ATOM     24  C   UNL     1      48.279   5.195  20.201  0.00  0.00    +0.000 C 
ATOM     25  O   UNL     1      47.482   5.816  20.897  0.00  0.00    +0.000 OA
ATOM     26  H   UNL     1      49.055   4.073  21.733  0.00  0.00    +0.000 HD
ATOM     27  H   UNL     1      49.825   3.812  20.182  0.00  0.00    +0.000 HD
ENDBRANCH  17  24
ENDBRANCH  16  20
ENDBRANCH  15  16
ENDBRANCH   1  15
TORSDOF 6
ENDMDL
MODEL 7
REMARK VINA RESULT:    -6.753      5.681      8.001
REMARK INTER + INTRA:          -9.922
REMARK INTER:                  -9.152
REMARK INTRA:                  -0.770
REMARK UNBOUND:                -0.800
REMARK  Name = 
REMARK  6 active torsions:
REMARK  status: ('A' for Active; 'I' for Inactive)
REMARK    1  A    between atoms: C_2  and  C_4
REMARK    2  A    between atoms: C_7  and  O_8
REMARK    3  A    between atoms: O_8  and  C_9
REMARK    4  A    between atoms: C_9  and  C_10
REMARK    5  A    between atoms: C_10  and  C_11
REMARK    6  A    between atoms: C_15  and  C_16
REMARK                            x       y       z     vdW  Elec       q    Type
REMARK                         _______ _______ _______ _____ _____    ______ ____
ROOT
ATOM      1  C   UNL     1      48.434   6.677  14.840  0.00  0.00    +0.000 C 
ENDROOT
BRANCH   1   2
ATOM      2  C   UNL     1      47.401   7.053  13.811  0.00  0.00    +0.000 A 
ATOM      3  C   UNL     1      47.040   8.389  13.622  0.00  0.00    +0.000 A 
ATOM      4  C   UNL     1      46.094   8.732  12.664  0.00  0.00    +0.000 A 
ATOM      5  C   UNL     1      45.507   7.742  11.878  0.00  0.00    +0.000 A 
ATOM      6  C   UNL     1      45.883   6.393  11.980  0.00  0.00    +0.000 A 
ATOM      7  C   UNL     1      46.812   6.071  12.995  0.00  0.00    +0.000 A 
BRANCH   6   8
ATOM      8  C   UNL     1      45.325   5.349  11.074  0.00  0.00    +0.000 A 
ATOM      9  C   UNL     1      45.730   5.332   9.718  0.00  0.00    +0.000 A 
ATOM     10  C   UNL     1      45.269   4.374   8.813  0.00  0.00    +0.000 A 
ATOM     11  C   UNL     1      44.404   3.382   9.243  0.00  0.00    +0.000 A 
ATOM     12  C   UNL     1      43.969   3.368  10.560  0.00  0.00    +0.000 A 
ATOM     13  C   UNL     1      44.398   4.353  11.464  0.00  0.00    +0.000 A 
ATOM     14 CL   UNL     1      43.643   4.267  13.026  0.00  0.00    +0.000 Cl
ENDBRANCH   6   8
ENDBRANCH   1   2
BRANCH   1  15
ATOM     15  C   UNL     1      48.049   5.473  15.703  0.00  0.00    +0.000 C 
BRANCH  15  16
ATOM     16  O   UNL     1      48.843   5.511  16.900  0.00  0.00    +0.000 OA
BRANCH  16  20
ATOM     17  C   UNL     1      51.336   2.349  17.473  0.00  0.00    +0.000 A 
ATOM     18  C   UNL     1      50.077   2.157  16.914  0.00  0.00    +0.000 A 
ATOM     19  N   UNL     1      49.203   3.178  16.698  0.00  0.00    +0.000 NA
ATOM     20  C   UNL     1      49.645   4.401  17.067  0.00  0.00    +0.000 A 
ATOM     21  C   UNL     1      50.907   4.592  17.627  0.00  0.00    +0.000 A 
ATOM     22  N   UNL     1      51.787   3.579  17.851  0.00  0.00    +0.000 NA
BRANCH  17  24
ATOM     23  N   UNL     1      51.676   0.050  18.205  0.00  0.00    +0.000 N 
ATOM     24  C   UNL     1      52.236   1.183  17.680  0.00  0.00    +0.000 C 
ATOM     25  O   UNL     1      53.426   1.223  17.381  0.00  0.00    +0.000 OA
ATOM     26  H   UNL     1      52.250  -0.775  18.293  0.00  0.00    +0.000 HD
ATOM     27  H   UNL     1      50.672  -0.015  18.331  0.00  0.00    +0.000 HD
ENDBRANCH  17  24
ENDBRANCH  16  20
ENDBRANCH  15  16
ENDBRANCH   1  15
TORSDOF 6
ENDMDL
MODEL 8
REMARK VINA RESULT:    -6.467      5.356      7.186
REMARK INTER + INTRA:          -9.536
REMARK INTER:                  -8.765
REMARK INTRA:                  -0.771
REMARK UNBOUND:                -0.800
REMARK  Name = 
REMARK  6 active torsions:
REMARK  status: ('A' for Active; 'I' for Inactive)
REMARK    1  A    between atoms: C_2  and  C_4
REMARK    2  A    between atoms: C_7  and  O_8
REMARK    3  A    between atoms: O_8  and  C_9
REMARK    4  A    between atoms: C_9  and  C_10
REMARK    5  A    between atoms: C_10  and  C_11
REMARK    6  A    between atoms: C_15  and  C_16
REMARK                            x       y       z     vdW  Elec       q    Type
REMARK                         _______ _______ _______ _____ _____    ______ ____
ROOT
ATOM      1  C   UNL     1      48.283   3.084  16.693  0.00  0.00    +0.000 C 
ENDROOT
BRANCH   1   2
ATOM      2  C   UNL     1      49.043   3.936  17.676  0.00  0.00    +0.000 A 
ATOM      3  C   UNL     1      50.425   3.799  17.816  0.00  0.00    +0.000 A 
ATOM      4  C   UNL     1      51.123   4.593  18.717  0.00  0.00    +0.000 A 
ATOM      5  C   UNL     1      50.444   5.541  19.482  0.00  0.00    +0.000 A 
ATOM      6  C   UNL     1      49.066   5.766  19.331  0.00  0.00    +0.000 A 
ATOM      7  C   UNL     1      48.378   4.910  18.442  0.00  0.00    +0.000 A 
BRANCH   6   8
ATOM      8  C   UNL     1      48.358   6.844  20.080  0.00  0.00    +0.000 A 
ATOM      9  C   UNL     1      48.015   6.624  21.435  0.00  0.00    +0.000 A 
ATOM     10  C   UNL     1      47.371   7.592  22.209  0.00  0.00    +0.000 A 
ATOM     11  C   UNL     1      47.072   8.826  21.657  0.00  0.00    +0.000 A 
ATOM     12  C   UNL     1      47.377   9.081  20.328  0.00  0.00    +0.000 A 
ATOM     13  C   UNL     1      47.988   8.097  19.534  0.00  0.00    +0.000 A 
ATOM     14 CL   UNL     1      48.164   8.535  17.862  0.00  0.00    +0.000 Cl
ENDBRANCH   6   8
ENDBRANCH   1   2
BRANCH   1  15
ATOM     15  C   UNL     1      47.247   3.852  15.869  0.00  0.00    +0.000 C 
BRANCH  15  16
ATOM     16  O   UNL     1      47.547   3.651  14.479  0.00  0.00    +0.000 OA
BRANCH  16  20
ATOM     17  C   UNL     1      44.518   4.846  12.041  0.00  0.00    +0.000 A 
ATOM     18  C   UNL     1      44.922   3.516  12.057  0.00  0.00    +0.000 A 
ATOM     19  N   UNL     1      45.928   3.061  12.853  0.00  0.00    +0.000 NA
ATOM     20  C   UNL     1      46.513   3.996  13.634  0.00  0.00    +0.000 A 
ATOM     21  C   UNL     1      46.106   5.329  13.617  0.00  0.00    +0.000 A 
ATOM     22  N   UNL     1      45.105   5.797  12.823  0.00  0.00    +0.000 NA
BRANCH  17  24
ATOM     23  N   UNL     1      42.526   6.189  11.638  0.00  0.00    +0.000 N 
ATOM     24  C   UNL     1      43.411   5.270  11.142  0.00  0.00    +0.000 C 
ATOM     25  O   UNL     1      43.300   4.831  10.002  0.00  0.00    +0.000 OA
ATOM     26  H   UNL     1      41.805   6.542  11.025  0.00  0.00    +0.000 HD
ATOM     27  H   UNL     1      42.696   6.637  12.531  0.00  0.00    +0.000 HD
ENDBRANCH  17  24
ENDBRANCH  16  20
ENDBRANCH  15  16
ENDBRANCH   1  15
TORSDOF 6
ENDMDL
MODEL 9
REMARK VINA RESULT:    -6.414      4.189      6.754
REMARK INTER + INTRA:          -9.463
REMARK INTER:                  -8.341
REMARK INTRA:                  -1.122
REMARK UNBOUND:                -0.800
REMARK  Name = 
REMARK  6 active torsions:
REMARK  status: ('A' for Active; 'I' for Inactive)
REMARK    1  A    between atoms: C_2  and  C_4
REMARK    2  A    between atoms: C_7  and  O_8
REMARK    3  A    between atoms: O_8  and  C_9
REMARK    4  A    between atoms: C_9  and  C_10
REMARK    5  A    between atoms: C_10  and  C_11
REMARK    6  A    between atoms: C_15  and  C_16
REMARK                            x       y       z     vdW  Elec       q    Type
REMARK                         _______ _______ _______ _____ _____    ______ ____
ROOT
ATOM      1  C   UNL     1      48.420   9.028  14.696  0.00  0.00    +0.000 C 
ENDROOT
BRANCH   1   2
ATOM      2  C   UNL     1      48.559   8.313  16.014  0.00  0.00    +0.000 A 
ATOM      3  C   UNL     1      48.169   8.932  17.203  0.00  0.00    +0.000 A 
ATOM      4  C   UNL     1      48.290   8.265  18.416  0.00  0.00    +0.000 A 
ATOM      5  C   UNL     1      48.793   6.965  18.449  0.00  0.00    +0.000 A 
ATOM      6  C   UNL     1      49.135   6.272  17.276  0.00  0.00    +0.000 A 
ATOM      7  C   UNL     1      49.046   6.995  16.065  0.00  0.00    +0.000 A 
BRANCH   6   8
ATOM      8  C   UNL     1      49.583   4.850  17.304  0.00  0.00    +0.000 A 
ATOM      9  C   UNL     1      50.964   4.570  17.437  0.00  0.00    +0.000 A 
ATOM     10  C   UNL     1      51.460   3.266  17.493  0.00  0.00    +0.000 A 
ATOM     11  C   UNL     1      50.583   2.195  17.443  0.00  0.00    +0.000 A 
ATOM     12  C   UNL     1      49.223   2.421  17.299  0.00  0.00    +0.000 A 
ATOM     13  C   UNL     1      48.723   3.731  17.202  0.00  0.00    +0.000 A 
ATOM     14 CL   UNL     1      47.018   3.823  16.879  0.00  0.00    +0.000 Cl
ENDBRANCH   6   8
ENDBRANCH   1   2
BRANCH   1  15
ATOM     15  C   UNL     1      47.287   8.499  13.812  0.00  0.00    +0.000 C 
BRANCH  15  16
ATOM     16  O   UNL     1      47.838   7.509  12.929  0.00  0.00    +0.000 OA
BRANCH  16  20
ATOM     17  C   UNL     1      45.339   4.361  12.313  0.00  0.00    +0.000 A 
ATOM     18  C   UNL     1      45.474   5.349  11.344  0.00  0.00    +0.000 A 
ATOM     19  N   UNL     1      46.296   6.422  11.496  0.00  0.00    +0.000 NA
ATOM     20  C   UNL     1      46.978   6.465  12.663  0.00  0.00    +0.000 A 
ATOM     21  C   UNL     1      46.841   5.474  13.633  0.00  0.00    +0.000 A 
ATOM     22  N   UNL     1      46.020   4.398  13.494  0.00  0.00    +0.000 NA
BRANCH  17  24
ATOM     23  N   UNL     1      44.492   2.602  10.855  0.00  0.00    +0.000 N 
ATOM     24  C   UNL     1      44.418   3.216  12.076  0.00  0.00    +0.000 C 
ATOM     25  O   UNL     1      43.636   2.826  12.938  0.00  0.00    +0.000 OA
ATOM     26  H   UNL     1      43.925   1.782  10.694  0.00  0.00    +0.000 HD
ATOM     27  H   UNL     1      45.224   2.850  10.199  0.00  0.00    +0.000 HD
ENDBRANCH  17  24
ENDBRANCH  16  20
ENDBRANCH  15  16
ENDBRANCH   1  15
TORSDOF 6
ENDMDL
