MODEL 1
REMARK VINA RESULT:    -7.912      0.000      0.000
REMARK INTER + INTRA:         -10.368
REMARK INTER:                  -9.762
REMARK INTRA:                  -0.606
REMARK UNBOUND:                -0.606
REMARK  Name = 
REMARK  5 active torsions:
REMARK  status: ('A' for Active; 'I' for Inactive)
REMARK    1  A    between atoms: C_1  and  C_2
REMARK    2  A    between atoms: C_5  and  N_6
REMARK    3  A    between atoms: N_6  and  C_7
REMARK    4  A    between atoms: C_7  and  C_8
REMARK    5  A    between atoms: C_13  and  N_14
REMARK                            x       y       z     vdW  Elec       q    Type
REMARK                         _______ _______ _______ _____ _____    ______ ____
ROOT
ATOM      1  C   UNL     1      44.632   4.676  11.839  0.00  0.00    +0.000 A 
ATOM      2  C   UNL     1      45.428   3.761  12.531  0.00  0.00    +0.000 A 
ATOM      3  C   UNL     1      46.427   4.227  13.374  0.00  0.00    +0.000 A 
ATOM      4  F   UNL     1      47.211   3.347  14.014  0.00  0.00    +0.000 F 
ATOM      5  C   UNL     1      46.657   5.591  13.546  0.00  0.00    +0.000 A 
ATOM      6  C   UNL     1      45.881   6.545  12.877  0.00  0.00    +0.000 A 
ATOM      7  C   UNL     1      44.857   6.055  12.042  0.00  0.00    +0.000 A 
ENDROOT
BRANCH   6   8
ATOM      8  N   UNL     1      46.161   7.894  12.984  0.00  0.00    +0.000 N 
ATOM      9  C   UNL     1      45.188   8.928  12.605  0.00  0.00    +0.000 C 
ATOM     10  C   UNL     1      45.909  10.084  11.868  0.00  0.00    +0.000 C 
ATOM     11  N   UNL     1      47.061  10.650  12.605  0.00  0.00    +0.000 NA
ATOM     12  C   UNL     1      47.994   9.551  12.940  0.00  0.00    +0.000 C 
ATOM     13  C   UNL     1      47.330   8.396  13.726  0.00  0.00    +0.000 C 
ATOM     14  H   UNL     1      46.712  11.042  13.480  0.00  0.00    +0.000 HD
ENDBRANCH   6   8
BRANCH   1  15
ATOM     15  C   UNL     1      43.552   4.206  10.886  0.00  0.00    +0.000 C 
BRANCH  15  16
ATOM     16  N   UNL     1      43.865   4.664   9.541  0.00  0.00    +0.000 N 
ATOM     17  H   UNL     1      43.033   4.724   8.959  0.00  0.00    +0.000 HD
BRANCH  16  22
ATOM     18  C   UNL     1      47.618   1.480   6.814  0.00  0.00    +0.000 C 
ATOM     19  C   UNL     1      46.656   2.346   7.562  0.00  0.00    +0.000 A 
ATOM     20  C   UNL     1      46.624   3.727   7.402  0.00  0.00    +0.000 A 
ATOM     21  N   UNL     1      45.738   4.539   8.039  0.00  0.00    +0.000 NA
ATOM     22  C   UNL     1      44.860   3.936   8.871  0.00  0.00    +0.000 A 
ATOM     23  C   UNL     1      44.905   2.545   9.022  0.00  0.00    +0.000 A 
ATOM     24  N   UNL     1      45.787   1.730   8.393  0.00  0.00    +0.000 NA
ENDBRANCH  16  22
ENDBRANCH  15  16
ENDBRANCH   1  15
TORSDOF 4
ENDMDL
MODEL 2
REMARK VINA RESULT:    -7.806      2.261      3.416
REMARK INTER + INTRA:         -10.237
REMARK INTER:                  -9.601
REMARK INTRA:                  -0.636
REMARK UNBOUND:                -0.606
REMARK  Name = 
REMARK  5 active torsions:
REMARK  status: ('A' for Active; 'I' for Inactive)
REMARK    1  A    between atoms: C_1  and  C_2
REMARK    2  A    between atoms: C_5  and  N_6
REMARK    3  A    between atoms: N_6  and  C_7
REMARK    4  A    between atoms: C_7  and  C_8
REMARK    5  A    between atoms: C_13  and  N_14
REMARK                            x       y       z     vdW  Elec       q    Type
REMARK                         _______ _______ _______ _____ _____    ______ ____
ROOT
ATOM      1  C   UNL     1      44.515   5.530  11.591  0.00  0.00    +0.000 A 
ATOM      2  C   UNL     1      44.446   6.901  11.341  0.00  0.00    +0.000 A 
ATOM      3  C   UNL     1      45.310   7.761  12.005  0.00  0.00    +0.000 A 
ATOM      4  F   UNL     1      45.220   9.081  11.786  0.00  0.00    +0.000 F 
ATOM      5  C   UNL     1      46.248   7.286  12.919  0.00  0.00    +0.000 A 
ATOM      6  C   UNL     1      46.359   5.919  13.198  0.00  0.00    +0.000 A 
ATOM      7  C   UNL     1      45.488   5.058  12.500  0.00  0.00    +0.000 A 
ENDROOT
BRANCH   6   8
ATOM      8  N   UNL     1      47.232   5.456  14.164  0.00  0.00    +0.000 N 
ATOM      9  C   UNL     1      47.209   4.065  14.639  0.00  0.00    +0.000 C 
ATOM     10  C   UNL     1      47.421   4.031  16.173  0.00  0.00    +0.000 C 
ATOM     11  N   UNL     1      48.625   4.755  16.637  0.00  0.00    +0.000 NA
ATOM     12  C   UNL     1      48.567   6.143  16.127  0.00  0.00    +0.000 C 
ATOM     13  C   UNL     1      48.411   6.229  14.591  0.00  0.00    +0.000 C 
ATOM     14  H   UNL     1      49.441   4.304  16.226  0.00  0.00    +0.000 HD
ENDBRANCH   6   8
BRANCH   1  15
ATOM     15  C   UNL     1      43.569   4.563  10.910  0.00  0.00    +0.000 C 
BRANCH  15  16
ATOM     16  N   UNL     1      43.698   4.701   9.467  0.00  0.00    +0.000 N 
ATOM     17  H   UNL     1      42.813   4.541   8.991  0.00  0.00    +0.000 HD
BRANCH  16  22
ATOM     18  C   UNL     1      47.492   1.306   7.071  0.00  0.00    +0.000 C 
ATOM     19  C   UNL     1      46.519   2.231   7.728  0.00  0.00    +0.000 A 
ATOM     20  C   UNL     1      46.472   3.589   7.433  0.00  0.00    +0.000 A 
ATOM     21  N   UNL     1      45.576   4.450   7.986  0.00  0.00    +0.000 NA
ATOM     22  C   UNL     1      44.703   3.921   8.872  0.00  0.00    +0.000 A 
ATOM     23  C   UNL     1      44.762   2.552   9.160  0.00  0.00    +0.000 A 
ATOM     24  N   UNL     1      45.655   1.690   8.615  0.00  0.00    +0.000 NA
ENDBRANCH  16  22
ENDBRANCH  15  16
ENDBRANCH   1  15
TORSDOF 4
ENDMDL
MODEL 3
REMARK VINA RESULT:    -7.076      2.417      3.143
REMARK INTER + INTRA:          -9.337
REMARK INTER:                  -8.789
REMARK INTRA:                  -0.547
REMARK UNBOUND:                -0.606
REMARK  Name = 
REMARK  5 active torsions:
REMARK  status: ('A' for Active; 'I' for Inactive)
REMARK    1  A    between atoms: C_1  and  C_2
REMARK    2  A    between atoms: C_5  and  N_6
REMARK    3  A    between atoms: N_6  and  C_7
REMARK    4  A    between atoms: C_7  and  C_8
REMARK    5  A    between atoms: C_13  and  N_14
REMARK                            x       y       z     vdW  Elec       q    Type
REMARK                         _______ _______ _______ _____ _____    ______ ____
ROOT
ATOM      1  C   UNL     1      45.158   6.288  11.544  0.00  0.00    +0.000 A 
ATOM      2  C   UNL     1      44.503   7.520  11.534  0.00  0.00    +0.000 A 
ATOM      3  C   UNL     1      45.201   8.667  11.889  0.00  0.00    +0.000 A 
ATOM      4  F   UNL     1      44.561   9.845  11.910  0.00  0.00    +0.000 F 
ATOM      5  C   UNL     1      46.544   8.616  12.256  0.00  0.00    +0.000 A 
ATOM      6  C   UNL     1      47.245   7.404  12.275  0.00  0.00    +0.000 A 
ATOM      7  C   UNL     1      46.526   6.253  11.892  0.00  0.00    +0.000 A 
ENDROOT
BRANCH   6   8
ATOM      8  N   UNL     1      48.552   7.342  12.717  0.00  0.00    +0.000 N 
ATOM      9  C   UNL     1      48.904   6.843  14.054  0.00  0.00    +0.000 C 
ATOM     10  C   UNL     1      50.026   7.719  14.664  0.00  0.00    +0.000 C 
ATOM     11  N   UNL     1      51.216   7.873  13.798  0.00  0.00    +0.000 NA
ATOM     12  C   UNL     1      50.779   8.387  12.480  0.00  0.00    +0.000 C 
ATOM     13  C   UNL     1      49.697   7.512  11.806  0.00  0.00    +0.000 C 
ATOM     14  H   UNL     1      51.622   6.949  13.654  0.00  0.00    +0.000 HD
ENDBRANCH   6   8
BRANCH   1  15
ATOM     15  C   UNL     1      44.423   5.010  11.193  0.00  0.00    +0.000 C 
BRANCH  15  16
ATOM     16  N   UNL     1      44.184   4.972   9.758  0.00  0.00    +0.000 N 
ATOM     17  H   UNL     1      43.214   4.760   9.542  0.00  0.00    +0.000 HD
BRANCH  16  22
ATOM     18  C   UNL     1      47.315   1.315   6.844  0.00  0.00    +0.000 C 
ATOM     19  C   UNL     1      46.523   2.306   7.635  0.00  0.00    +0.000 A 
ATOM     20  C   UNL     1      46.553   3.668   7.358  0.00  0.00    +0.000 A 
ATOM     21  N   UNL     1      45.817   4.591   8.034  0.00  0.00    +0.000 NA
ATOM     22  C   UNL     1      45.029   4.122   9.027  0.00  0.00    +0.000 A 
ATOM     23  C   UNL     1      45.009   2.748   9.294  0.00  0.00    +0.000 A 
ATOM     24  N   UNL     1      45.743   1.823   8.627  0.00  0.00    +0.000 NA
ENDBRANCH  16  22
ENDBRANCH  15  16
ENDBRANCH   1  15
TORSDOF 4
ENDMDL
MODEL 4
REMARK VINA RESULT:    -7.033      2.760      4.084
REMARK INTER + INTRA:          -9.284
REMARK INTER:                  -8.851
REMARK INTRA:                  -0.433
REMARK UNBOUND:                -0.606
REMARK  Name = 
REMARK  5 active torsions:
REMARK  status: ('A' for Active; 'I' for Inactive)
REMARK    1  A    between atoms: C_1  and  C_2
REMARK    2  A    between atoms: C_5  and  N_6
REMARK    3  A    between atoms: N_6  and  C_7
REMARK    4  A    between atoms: C_7  and  C_8
REMARK    5  A    between atoms: C_13  and  N_14
REMARK                            x       y       z     vdW  Elec       q    Type
REMARK                         _______ _______ _______ _____ _____    ______ ____
ROOT
ATOM      1  C   UNL     1      45.741   4.288  12.420  0.00  0.00    +0.000 A 
ATOM      2  C   UNL     1      45.890   5.549  11.839  0.00  0.00    +0.000 A 
ATOM      3  C   UNL     1      46.642   6.516  12.492  0.00  0.00    +0.000 A 
ATOM      4  F   UNL     1      46.758   7.736  11.948  0.00  0.00    +0.000 F 
ATOM      5  C   UNL     1      47.253   6.258  13.718  0.00  0.00    +0.000 A 
ATOM      6  C   UNL     1      47.136   5.007  14.336  0.00  0.00    +0.000 A 
ATOM      7  C   UNL     1      46.386   4.030  13.649  0.00  0.00    +0.000 A 
ENDROOT
BRANCH   6   8
ATOM      8  N   UNL     1      47.672   4.776  15.588  0.00  0.00    +0.000 N 
ATOM      9  C   UNL     1      48.426   5.805  16.318  0.00  0.00    +0.000 C 
ATOM     10  C   UNL     1      49.648   5.163  17.020  0.00  0.00    +0.000 C 
ATOM     11  N   UNL     1      49.317   4.004  17.878  0.00  0.00    +0.000 NA
ATOM     12  C   UNL     1      48.571   3.014  17.069  0.00  0.00    +0.000 C 
ATOM     13  C   UNL     1      47.308   3.598  16.392  0.00  0.00    +0.000 C 
ATOM     14  H   UNL     1      48.700   4.330  18.621  0.00  0.00    +0.000 HD
ENDBRANCH   6   8
BRANCH   1  15
ATOM     15  C   UNL     1      44.903   3.216  11.753  0.00  0.00    +0.000 C 
BRANCH  15  16
ATOM     16  N   UNL     1      44.394   3.722  10.487  0.00  0.00    +0.000 N 
ATOM     17  H   UNL     1      43.406   3.517  10.367  0.00  0.00    +0.000 HD
BRANCH  16  22
ATOM     18  C   UNL     1      47.418   2.408   5.927  0.00  0.00    +0.000 C 
ATOM     19  C   UNL     1      46.580   2.731   7.122  0.00  0.00    +0.000 A 
ATOM     20  C   UNL     1      46.198   1.761   8.043  0.00  0.00    +0.000 A 
ATOM     21  N   UNL     1      45.467   2.029   9.158  0.00  0.00    +0.000 NA
ATOM     22  C   UNL     1      45.104   3.317   9.345  0.00  0.00    +0.000 A 
ATOM     23  C   UNL     1      45.495   4.282   8.409  0.00  0.00    +0.000 A 
ATOM     24  N   UNL     1      46.221   4.022   7.294  0.00  0.00    +0.000 NA
ENDBRANCH  16  22
ENDBRANCH  15  16
ENDBRANCH   1  15
TORSDOF 4
ENDMDL
MODEL 5
REMARK VINA RESULT:    -7.007      2.534      6.802
REMARK INTER + INTRA:          -9.252
REMARK INTER:                  -8.756
REMARK INTRA:                  -0.496
REMARK UNBOUND:                -0.606
REMARK  Name = 
REMARK  5 active torsions:
REMARK  status: ('A' for Active; 'I' for Inactive)
REMARK    1  A    between atoms: C_1  and  C_2
REMARK    2  A    between atoms: C_5  and  N_6
REMARK    3  A    between atoms: N_6  and  C_7
REMARK    4  A    between atoms: C_7  and  C_8
REMARK    5  A    between atoms: C_13  and  N_14
REMARK                            x       y       z     vdW  Elec       q    Type
REMARK                         _______ _______ _______ _____ _____    ______ ____
ROOT
ATOM      1  C   UNL     1      45.418   6.203  11.825  0.00  0.00    +0.000 A 
ATOM      2  C   UNL     1      44.065   6.322  12.146  0.00  0.00    +0.000 A 
ATOM      3  C   UNL     1      43.129   5.571  11.447  0.00  0.00    +0.000 A 
ATOM      4  F   UNL     1      41.827   5.710  11.734  0.00  0.00    +0.000 F 
ATOM      5  C   UNL     1      43.511   4.699  10.429  0.00  0.00    +0.000 A 
ATOM      6  C   UNL     1      44.857   4.542  10.076  0.00  0.00    +0.000 A 
ATOM      7  C   UNL     1      45.794   5.296  10.810  0.00  0.00    +0.000 A 
ENDROOT
BRANCH   6   8
ATOM      8  N   UNL     1      45.227   3.740   9.014  0.00  0.00    +0.000 N 
ATOM      9  C   UNL     1      44.805   2.336   8.908  0.00  0.00    +0.000 C 
ATOM     10  C   UNL     1      45.980   1.472   8.387  0.00  0.00    +0.000 C 
ATOM     11  N   UNL     1      46.586   1.964   7.131  0.00  0.00    +0.000 NA
ATOM     12  C   UNL     1      46.992   3.375   7.323  0.00  0.00    +0.000 C 
ATOM     13  C   UNL     1      45.836   4.290   7.791  0.00  0.00    +0.000 C 
ATOM     14  H   UNL     1      45.870   1.940   6.405  0.00  0.00    +0.000 HD
ENDBRANCH   6   8
BRANCH   1  15
ATOM     15  C   UNL     1      46.466   7.028  12.544  0.00  0.00    +0.000 C 
BRANCH  15  16
ATOM     16  N   UNL     1      47.640   6.205  12.791  0.00  0.00    +0.000 N 
ATOM     17  H   UNL     1      47.811   5.552  12.030  0.00  0.00    +0.000 HD
BRANCH  16  22
ATOM     18  C   UNL     1      47.737   3.149  17.515  0.00  0.00    +0.000 C 
ATOM     19  C   UNL     1      47.683   3.991  16.281  0.00  0.00    +0.000 A 
ATOM     20  C   UNL     1      48.212   5.277  16.238  0.00  0.00    +0.000 A 
ATOM     21  N   UNL     1      48.211   6.054  15.122  0.00  0.00    +0.000 NA
ATOM     22  C   UNL     1      47.651   5.518  14.016  0.00  0.00    +0.000 A 
ATOM     23  C   UNL     1      47.122   4.223  14.074  0.00  0.00    +0.000 A 
ATOM     24  N   UNL     1      47.116   3.444  15.184  0.00  0.00    +0.000 NA
ENDBRANCH  16  22
ENDBRANCH  15  16
ENDBRANCH   1  15
TORSDOF 4
ENDMDL
MODEL 6
REMARK VINA RESULT:    -6.854      4.048      7.135
REMARK INTER + INTRA:          -9.062
REMARK INTER:                  -8.483
REMARK INTRA:                  -0.579
REMARK UNBOUND:                -0.606
REMARK  Name = 
REMARK  5 active torsions:
REMARK  status: ('A' for Active; 'I' for Inactive)
REMARK    1  A    between atoms: C_1  and  C_2
REMARK    2  A    between atoms: C_5  and  N_6
REMARK    3  A    between atoms: N_6  and  C_7
REMARK    4  A    between atoms: C_7  and  C_8
REMARK    5  A    between atoms: C_13  and  N_14
REMARK                            x       y       z     vdW  Elec       q    Type
REMARK                         _______ _______ _______ _____ _____    ______ ____
ROOT
ATOM      1  C   UNL     1      47.897   6.394  14.229  0.00  0.00    +0.000 A 
ATOM      2  C   UNL     1      48.554   7.258  13.351  0.00  0.00    +0.000 A 
ATOM      3  C   UNL     1      48.139   7.334  12.029  0.00  0.00    +0.000 A 
ATOM      4  F   UNL     1      48.792   8.141  11.180  0.00  0.00    +0.000 F 
ATOM      5  C   UNL     1      47.078   6.565  11.555  0.00  0.00    +0.000 A 
ATOM      6  C   UNL     1      46.385   5.689  12.399  0.00  0.00    +0.000 A 
ATOM      7  C   UNL     1      46.807   5.640  13.743  0.00  0.00    +0.000 A 
ENDROOT
BRANCH   6   8
ATOM      8  N   UNL     1      45.387   4.867  11.910  0.00  0.00    +0.000 N 
ATOM      9  C   UNL     1      44.552   5.247  10.762  0.00  0.00    +0.000 C 
ATOM     10  C   UNL     1      43.083   4.830  11.020  0.00  0.00    +0.000 C 
ATOM     11  N   UNL     1      42.910   3.406  11.385  0.00  0.00    +0.000 NA
ATOM     12  C   UNL     1      43.773   3.108  12.549  0.00  0.00    +0.000 C 
ATOM     13  C   UNL     1      45.262   3.457  12.318  0.00  0.00    +0.000 C 
ATOM     14  H   UNL     1      43.235   2.840  10.601  0.00  0.00    +0.000 HD
ENDBRANCH   6   8
BRANCH   1  15
ATOM     15  C   UNL     1      48.341   6.260  15.671  0.00  0.00    +0.000 C 
BRANCH  15  16
ATOM     16  N   UNL     1      47.816   5.020  16.223  0.00  0.00    +0.000 N 
ATOM     17  H   UNL     1      47.177   5.190  16.995  0.00  0.00    +0.000 HD
BRANCH  16  22
ATOM     18  C   UNL     1      51.626   1.062  17.441  0.00  0.00    +0.000 C 
ATOM     19  C   UNL     1      50.605   2.118  17.163  0.00  0.00    +0.000 A 
ATOM     20  C   UNL     1      50.769   3.435  17.578  0.00  0.00    +0.000 A 
ATOM     21  N   UNL     1      49.877   4.426  17.310  0.00  0.00    +0.000 NA
ATOM     22  C   UNL     1      48.780   4.073  16.605  0.00  0.00    +0.000 A 
ATOM     23  C   UNL     1      48.627   2.743  16.194  0.00  0.00    +0.000 A 
ATOM     24  N   UNL     1      49.511   1.750  16.461  0.00  0.00    +0.000 NA
ENDBRANCH  16  22
ENDBRANCH  15  16
ENDBRANCH   1  15
TORSDOF 4
ENDMDL
MODEL 7
REMARK VINA RESULT:    -6.601      1.945      2.647
REMARK INTER + INTRA:          -8.751
REMARK INTER:                  -8.139
REMARK INTRA:                  -0.612
REMARK UNBOUND:                -0.606
REMARK  Name = 
REMARK  5 active torsions:
REMARK  status: ('A' for Active; 'I' for Inactive)
REMARK    1  A    between atoms: C_1  and  C_2
REMARK    2  A    between atoms: C_5  and  N_6
REMARK    3  A    between atoms: N_6  and  C_7
REMARK    4  A    between atoms: C_7  and  C_8
REMARK    5  A    between atoms: C_13  and  N_14
REMARK                            x       y       z     vdW  Elec       q    Type
REMARK                         _______ _______ _______ _____ _____    ______ ____
ROOT
ATOM      1  C   UNL     1      44.939   5.881  12.027  0.00  0.00    +0.000 A 
ATOM      2  C   UNL     1      46.174   5.874  12.679  0.00  0.00    +0.000 A 
ATOM      3  C   UNL     1      46.841   7.074  12.888  0.00  0.00    +0.000 A 
ATOM      4  F   UNL     1      48.042   7.062  13.485  0.00  0.00    +0.000 F 
ATOM      5  C   UNL     1      46.306   8.287  12.462  0.00  0.00    +0.000 A 
ATOM      6  C   UNL     1      45.068   8.344  11.809  0.00  0.00    +0.000 A 
ATOM      7  C   UNL     1      44.395   7.119  11.624  0.00  0.00    +0.000 A 
ENDROOT
BRANCH   6   8
ATOM      8  N   UNL     1      44.576   9.536  11.315  0.00  0.00    +0.000 N 
ATOM      9  C   UNL     1      43.261   9.631  10.665  0.00  0.00    +0.000 C 
ATOM     10  C   UNL     1      43.349  10.568   9.434  0.00  0.00    +0.000 C 
ATOM     11  N   UNL     1      43.922  11.901   9.725  0.00  0.00    +0.000 NA
ATOM     12  C   UNL     1      45.243  11.718  10.366  0.00  0.00    +0.000 C 
ATOM     13  C   UNL     1      45.196  10.833  11.633  0.00  0.00    +0.000 C 
ATOM     14  H   UNL     1      43.310  12.366  10.395  0.00  0.00    +0.000 HD
ENDBRANCH   6   8
BRANCH   1  15
ATOM     15  C   UNL     1      44.195   4.589  11.753  0.00  0.00    +0.000 C 
BRANCH  15  16
ATOM     16  N   UNL     1      43.761   4.571  10.365  0.00  0.00    +0.000 N 
ATOM     17  H   UNL     1      42.788   4.287  10.276  0.00  0.00    +0.000 HD
BRANCH  16  22
ATOM     18  C   UNL     1      47.195   1.791   6.880  0.00  0.00    +0.000 C 
ATOM     19  C   UNL     1      46.246   2.508   7.785  0.00  0.00    +0.000 A 
ATOM     20  C   UNL     1      45.468   1.839   8.724  0.00  0.00    +0.000 A 
ATOM     21  N   UNL     1      44.623   2.465   9.586  0.00  0.00    +0.000 NA
ATOM     22  C   UNL     1      44.557   3.812   9.492  0.00  0.00    +0.000 A 
ATOM     23  C   UNL     1      45.345   4.472   8.542  0.00  0.00    +0.000 A 
ATOM     24  N   UNL     1      46.187   3.854   7.677  0.00  0.00    +0.000 NA
ENDBRANCH  16  22
ENDBRANCH  15  16
ENDBRANCH   1  15
TORSDOF 4
ENDMDL
MODEL 8
REMARK VINA RESULT:    -6.307      3.944      7.443
REMARK INTER + INTRA:          -8.388
REMARK INTER:                  -7.898
REMARK INTRA:                  -0.489
REMARK UNBOUND:                -0.606
REMARK  Name = 
REMARK  5 active torsions:
REMARK  status: ('A' for Active; 'I' for Inactive)
REMARK    1  A    between atoms: C_1  and  C_2
REMARK    2  A    between atoms: C_5  and  N_6
REMARK    3  A    between atoms: N_6  and  C_7
REMARK    4  A    between atoms: C_7  and  C_8
REMARK    5  A    between atoms: C_13  and  N_14
REMARK                            x       y       z     vdW  Elec       q    Type
REMARK                         _______ _______ _______ _____ _____    ______ ____
ROOT
ATOM      1  C   UNL     1      46.779   4.935  14.037  0.00  0.00    +0.000 A 
ATOM      2  C   UNL     1      47.393   6.177  13.866  0.00  0.00    +0.000 A 
ATOM      3  C   UNL     1      47.254   6.847  12.658  0.00  0.00    +0.000 A 
ATOM      4  F   UNL     1      47.871   8.024  12.485  0.00  0.00    +0.000 F 
ATOM      5  C   UNL     1      46.514   6.307  11.608  0.00  0.00    +0.000 A 
ATOM      6  C   UNL     1      45.876   5.067  11.735  0.00  0.00    +0.000 A 
ATOM      7  C   UNL     1      46.010   4.411  12.975  0.00  0.00    +0.000 A 
ENDROOT
BRANCH   6   8
ATOM      8  N   UNL     1      45.211   4.495  10.667  0.00  0.00    +0.000 N 
ATOM      9  C   UNL     1      44.165   3.478  10.851  0.00  0.00    +0.000 C 
ATOM     10  C   UNL     1      44.313   2.373   9.775  0.00  0.00    +0.000 C 
ATOM     11  N   UNL     1      44.357   2.879   8.385  0.00  0.00    +0.000 NA
ATOM     12  C   UNL     1      45.437   3.886   8.283  0.00  0.00    +0.000 C 
ATOM     13  C   UNL     1      45.301   5.041   9.303  0.00  0.00    +0.000 C 
ATOM     14  H   UNL     1      43.472   3.348   8.194  0.00  0.00    +0.000 HD
ENDBRANCH   6   8
BRANCH   1  15
ATOM     15  C   UNL     1      46.933   4.159  15.329  0.00  0.00    +0.000 C 
BRANCH  15  16
ATOM     16  N   UNL     1      47.538   5.018  16.336  0.00  0.00    +0.000 N 
ATOM     17  H   UNL     1      47.610   5.981  16.018  0.00  0.00    +0.000 HD
BRANCH  16  22
ATOM     18  C   UNL     1      52.457   2.981  18.155  0.00  0.00    +0.000 C 
ATOM     19  C   UNL     1      51.149   3.550  17.710  0.00  0.00    +0.000 A 
ATOM     20  C   UNL     1      51.004   4.886  17.353  0.00  0.00    +0.000 A 
ATOM     21  N   UNL     1      49.837   5.425  16.910  0.00  0.00    +0.000 NA
ATOM     22  C   UNL     1      48.779   4.588  16.831  0.00  0.00    +0.000 A 
ATOM     23  C   UNL     1      48.940   3.245  17.193  0.00  0.00    +0.000 A 
ATOM     24  N   UNL     1      50.099   2.702  17.639  0.00  0.00    +0.000 NA
ENDBRANCH  16  22
ENDBRANCH  15  16
ENDBRANCH   1  15
TORSDOF 4
ENDMDL
MODEL 9
REMARK VINA RESULT:    -6.089      3.316      7.175
REMARK INTER + INTRA:          -8.119
REMARK INTER:                  -7.587
REMARK INTRA:                  -0.532
REMARK UNBOUND:                -0.606
REMARK  Name = 
REMARK  5 active torsions:
REMARK  status: ('A' for Active; 'I' for Inactive)
REMARK    1  A    between atoms: C_1  and  C_2
REMARK    2  A    between atoms: C_5  and  N_6
REMARK    3  A    between atoms: N_6  and  C_7
REMARK    4  A    between atoms: C_7  and  C_8
REMARK    5  A    between atoms: C_13  and  N_14
REMARK                            x       y       z     vdW  Elec       q    Type
REMARK                         _______ _______ _______ _____ _____    ______ ____
ROOT
ATOM      1  C   UNL     1      46.965   7.254  12.815  0.00  0.00    +0.000 A 
ATOM      2  C   UNL     1      46.411   8.492  12.484  0.00  0.00    +0.000 A 
ATOM      3  C   UNL     1      45.198   8.539  11.811  0.00  0.00    +0.000 A 
ATOM      4  F   UNL     1      44.683   9.728  11.466  0.00  0.00    +0.000 F 
ATOM      5  C   UNL     1      44.518   7.375  11.456  0.00  0.00    +0.000 A 
ATOM      6  C   UNL     1      45.032   6.111  11.771  0.00  0.00    +0.000 A 
ATOM      7  C   UNL     1      46.254   6.083  12.473  0.00  0.00    +0.000 A 
ENDROOT
BRANCH   6   8
ATOM      8  N   UNL     1      44.400   4.958  11.348  0.00  0.00    +0.000 N 
ATOM      9  C   UNL     1      43.320   4.329  12.121  0.00  0.00    +0.000 C 
ATOM     10  C   UNL     1      43.484   2.789  12.097  0.00  0.00    +0.000 C 
ATOM     11  N   UNL     1      43.604   2.212  10.739  0.00  0.00    +0.000 NA
ATOM     12  C   UNL     1      44.715   2.889  10.034  0.00  0.00    +0.000 C 
ATOM     13  C   UNL     1      44.566   4.428   9.984  0.00  0.00    +0.000 C 
ATOM     14  H   UNL     1      42.742   2.415  10.234  0.00  0.00    +0.000 HD
ENDBRANCH   6   8
BRANCH   1  15
ATOM     15  C   UNL     1      48.302   7.161  13.522  0.00  0.00    +0.000 C 
BRANCH  15  16
ATOM     16  N   UNL     1      48.100   7.313  14.955  0.00  0.00    +0.000 N 
ATOM     17  H   UNL     1      48.519   8.170  15.307  0.00  0.00    +0.000 HD
BRANCH  16  22
ATOM     18  C   UNL     1      49.662   2.741  17.838  0.00  0.00    +0.000 C 
ATOM     19  C   UNL     1      49.236   3.976  17.113  0.00  0.00    +0.000 A 
ATOM     20  C   UNL     1      49.913   5.184  17.245  0.00  0.00    +0.000 A 
ATOM     21  N   UNL     1      49.574   6.316  16.572  0.00  0.00    +0.000 NA
ATOM     22  C   UNL     1      48.510   6.226  15.743  0.00  0.00    +0.000 A 
ATOM     23  C   UNL     1      47.838   5.004  15.620  0.00  0.00    +0.000 A 
ATOM     24  N   UNL     1      48.169   3.873  16.291  0.00  0.00    +0.000 NA
ENDBRANCH  16  22
ENDBRANCH  15  16
ENDBRANCH   1  15
TORSDOF 4
ENDMDL
