MODEL 1
REMARK VINA RESULT:    -8.234      0.000      0.000
REMARK INTER + INTRA:         -12.790
REMARK INTER:                 -11.845
REMARK INTRA:                  -0.946
REMARK UNBOUND:                -0.946
REMARK  Name = 
REMARK  8 active torsions:
REMARK  status: ('A' for Active; 'I' for Inactive)
REMARK    1  A    between atoms: N_1  and  C_2
REMARK    2  A    between atoms: C_2  and  C_3
REMARK    3  A    between atoms: C_2  and  C_18
REMARK    4  A    between atoms: C_3  and  C_4
REMARK    5  A    between atoms: C_7  and  C_8
REMARK    6  A    between atoms: C_8  and  N_9
REMARK    7  A    between atoms: N_9  and  C_10
REMARK    8  A    between atoms: N_20  and  C_21
REMARK                            x       y       z     vdW  Elec       q    Type
REMARK                         _______ _______ _______ _____ _____    ______ ____
ROOT
ATOM      1  C   UNL     1      48.534   6.569  15.935  0.00  0.00    +0.000 C 
ENDROOT
BRANCH   1   2
ATOM      2  C   UNL     1      49.928   6.027  16.315  0.00  0.00    +0.000 C 
ATOM      3  O   UNL     1      50.943   6.455  15.768  0.00  0.00    +0.000 OA
ATOM      4  N   UNL     1      49.911   5.015  17.261  0.00  0.00    +0.000 N 
ATOM      5  H   UNL     1      49.001   4.645  17.537  0.00  0.00    +0.000 HD
BRANCH   4   6
ATOM      6  C   UNL     1      51.054   4.474  17.851  0.00  0.00    +0.000 A 
ATOM      7  C   UNL     1      51.959   5.181  18.620  0.00  0.00    +0.000 A 
ATOM      8  S   UNL     1      53.234   4.218  19.223  0.00  0.00    +0.000 S 
ATOM      9  C   UNL     1      52.604   2.828  18.472  0.00  0.00    +0.000 A 
ATOM     10  N   UNL     1      53.229   1.626  18.585  0.00  0.00    +0.000 NA
ATOM     11  C   UNL     1      52.644   0.667  17.947  0.00  0.00    +0.000 A 
ATOM     12  N   UNL     1      51.493   0.800  17.209  0.00  0.00    +0.000 N 
ATOM     13  C   UNL     1      50.827   1.999  17.064  0.00  0.00    +0.000 A 
ATOM     14  O   UNL     1      49.814   2.105  16.379  0.00  0.00    +0.000 OA
ATOM     15  C   UNL     1      51.443   3.100  17.773  0.00  0.00    +0.000 A 
ATOM     16  H   UNL     1      51.101   0.008  16.724  0.00  0.00    +0.000 HD
ENDBRANCH   4   6
ENDBRANCH   1   2
BRANCH   1  17
ATOM     17  N   UNL     1      48.163   7.694  16.829  0.00  0.00    +0.000 NA
ATOM     18  H   UNL     1      47.303   7.436  17.320  0.00  0.00    +0.000 HD
ATOM     19  H   UNL     1      47.905   8.497  16.249  0.00  0.00    +0.000 HD
ENDBRANCH   1  17
BRANCH   1  20
ATOM     20  C   UNL     1      48.570   6.952  14.439  0.00  0.00    +0.000 C 
BRANCH  20  21
ATOM     21  C   UNL     1      47.543   6.272  13.573  0.00  0.00    +0.000 A 
ATOM     22  C   UNL     1      46.858   5.140  14.030  0.00  0.00    +0.000 A 
ATOM     23  C   UNL     1      45.894   4.527  13.227  0.00  0.00    +0.000 A 
ATOM     24  C   UNL     1      45.591   5.040  11.960  0.00  0.00    +0.000 A 
ATOM     25  C   UNL     1      46.271   6.181  11.512  0.00  0.00    +0.000 A 
ATOM     26  C   UNL     1      47.242   6.788  12.307  0.00  0.00    +0.000 A 
BRANCH  24  27
ATOM     27  C   UNL     1      44.579   4.363  11.070  0.00  0.00    +0.000 C 
BRANCH  27  28
ATOM     28  N   UNL     1      44.642   4.854   9.693  0.00  0.00    +0.000 NA
ATOM     29  H   UNL     1      45.349   5.587   9.634  0.00  0.00    +0.000 HD
BRANCH  28  30
ATOM     30  C   UNL     1      44.934   3.790   8.722  0.00  0.00    +0.000 C 
ATOM     31  C   UNL     1      45.228   2.433   9.390  0.00  0.00    +0.000 C 
ATOM     32  C   UNL     1      45.659   1.375   8.379  0.00  0.00    +0.000 C 
ATOM     33  C   UNL     1      46.856   1.842   7.562  0.00  0.00    +0.000 C 
ATOM     34  C   UNL     1      46.555   3.162   6.862  0.00  0.00    +0.000 C 
ATOM     35  C   UNL     1      46.128   4.240   7.860  0.00  0.00    +0.000 C 
ENDBRANCH  28  30
ENDBRANCH  27  28
ENDBRANCH  24  27
ENDBRANCH  20  21
ENDBRANCH   1  20
TORSDOF 8
ENDMDL
MODEL 2
REMARK VINA RESULT:    -8.174      2.753      3.100
REMARK INTER + INTRA:         -12.703
REMARK INTER:                 -11.566
REMARK INTRA:                  -1.137
REMARK UNBOUND:                -0.946
REMARK  Name = 
REMARK  8 active torsions:
REMARK  status: ('A' for Active; 'I' for Inactive)
REMARK    1  A    between atoms: N_1  and  C_2
REMARK    2  A    between atoms: C_2  and  C_3
REMARK    3  A    between atoms: C_2  and  C_18
REMARK    4  A    between atoms: C_3  and  C_4
REMARK    5  A    between atoms: C_7  and  C_8
REMARK    6  A    between atoms: C_8  and  N_9
REMARK    7  A    between atoms: N_9  and  C_10
REMARK    8  A    between atoms: N_20  and  C_21
REMARK                            x       y       z     vdW  Elec       q    Type
REMARK                         _______ _______ _______ _____ _____    ______ ____
ROOT
ATOM      1  C   UNL     1      48.775   7.485  13.555  0.00  0.00    +0.000 C 
ENDROOT
BRANCH   1   2
ATOM      2  C   UNL     1      49.322   7.241  14.977  0.00  0.00    +0.000 C 
ATOM      3  O   UNL     1      50.494   6.913  15.155  0.00  0.00    +0.000 OA
ATOM      4  N   UNL     1      48.381   7.373  15.984  0.00  0.00    +0.000 N 
ATOM      5  H   UNL     1      47.408   7.507  15.704  0.00  0.00    +0.000 HD
BRANCH   4   6
ATOM      6  C   UNL     1      48.679   7.332  17.347  0.00  0.00    +0.000 A 
ATOM      7  C   UNL     1      49.112   8.410  18.096  0.00  0.00    +0.000 A 
ATOM      8  S   UNL     1      49.359   8.035  19.744  0.00  0.00    +0.000 S 
ATOM      9  C   UNL     1      48.888   6.419  19.497  0.00  0.00    +0.000 A 
ATOM     10  N   UNL     1      48.876   5.527  20.523  0.00  0.00    +0.000 NA
ATOM     11  C   UNL     1      48.514   4.336  20.179  0.00  0.00    +0.000 A 
ATOM     12  N   UNL     1      48.162   3.956  18.907  0.00  0.00    +0.000 N 
ATOM     13  C   UNL     1      48.163   4.824  17.836  0.00  0.00    +0.000 A 
ATOM     14  O   UNL     1      47.871   4.461  16.700  0.00  0.00    +0.000 OA
ATOM     15  C   UNL     1      48.553   6.175  18.177  0.00  0.00    +0.000 A 
ATOM     16  H   UNL     1      47.905   3.001  18.710  0.00  0.00    +0.000 HD
ENDBRANCH   4   6
ENDBRANCH   1   2
BRANCH   1  17
ATOM     17  N   UNL     1      49.263   6.429  12.633  0.00  0.00    +0.000 NA
ATOM     18  H   UNL     1      50.048   5.953  13.085  0.00  0.00    +0.000 HD
ATOM     19  H   UNL     1      49.668   6.880  11.809  0.00  0.00    +0.000 HD
ENDBRANCH   1  17
BRANCH   1  20
ATOM     20  C   UNL     1      47.235   7.561  13.650  0.00  0.00    +0.000 C 
BRANCH  20  21
ATOM     21  C   UNL     1      46.485   6.574  12.797  0.00  0.00    +0.000 A 
ATOM     22  C   UNL     1      46.021   5.369  13.337  0.00  0.00    +0.000 A 
ATOM     23  C   UNL     1      45.310   4.467  12.542  0.00  0.00    +0.000 A 
ATOM     24  C   UNL     1      45.041   4.759  11.199  0.00  0.00    +0.000 A 
ATOM     25  C   UNL     1      45.497   5.973  10.667  0.00  0.00    +0.000 A 
ATOM     26  C   UNL     1      46.217   6.870  11.455  0.00  0.00    +0.000 A 
BRANCH  24  27
ATOM     27  C   UNL     1      44.306   3.776  10.322  0.00  0.00    +0.000 C 
BRANCH  27  28
ATOM     28  N   UNL     1      44.324   4.175   8.915  0.00  0.00    +0.000 NA
ATOM     29  H   UNL     1      44.799   5.073   8.830  0.00  0.00    +0.000 HD
BRANCH  28  30
ATOM     30  C   UNL     1      44.969   3.177   8.049  0.00  0.00    +0.000 C 
ATOM     31  C   UNL     1      45.526   1.973   8.832  0.00  0.00    +0.000 C 
ATOM     32  C   UNL     1      46.307   1.016   7.937  0.00  0.00    +0.000 C 
ATOM     33  C   UNL     1      47.424   1.736   7.195  0.00  0.00    +0.000 C 
ATOM     34  C   UNL     1      46.874   2.901   6.382  0.00  0.00    +0.000 C 
ATOM     35  C   UNL     1      46.092   3.878   7.262  0.00  0.00    +0.000 C 
ENDBRANCH  28  30
ENDBRANCH  27  28
ENDBRANCH  24  27
ENDBRANCH  20  21
ENDBRANCH   1  20
TORSDOF 8
ENDMDL
MODEL 3
REMARK VINA RESULT:    -8.158      2.486      3.386
REMARK INTER + INTRA:         -12.680
REMARK INTER:                 -11.666
REMARK INTRA:                  -1.014
REMARK UNBOUND:                -0.946
REMARK  Name = 
REMARK  8 active torsions:
REMARK  status: ('A' for Active; 'I' for Inactive)
REMARK    1  A    between atoms: N_1  and  C_2
REMARK    2  A    between atoms: C_2  and  C_3
REMARK    3  A    between atoms: C_2  and  C_18
REMARK    4  A    between atoms: C_3  and  C_4
REMARK    5  A    between atoms: C_7  and  C_8
REMARK    6  A    between atoms: C_8  and  N_9
REMARK    7  A    between atoms: N_9  and  C_10
REMARK    8  A    between atoms: N_20  and  C_21
REMARK                            x       y       z     vdW  Elec       q    Type
REMARK                         _______ _______ _______ _____ _____    ______ ____
ROOT
ATOM      1  C   UNL     1      47.265   4.270  15.080  0.00  0.00    +0.000 C 
ENDROOT
BRANCH   1   2
ATOM      2  C   UNL     1      47.248   4.285  16.623  0.00  0.00    +0.000 C 
ATOM      3  O   UNL     1      46.717   3.376  17.258  0.00  0.00    +0.000 OA
ATOM      4  N   UNL     1      47.823   5.410  17.191  0.00  0.00    +0.000 N 
ATOM      5  H   UNL     1      48.101   6.165  16.562  0.00  0.00    +0.000 HD
BRANCH   4   6
ATOM      6  C   UNL     1      48.040   5.574  18.560  0.00  0.00    +0.000 A 
ATOM      7  C   UNL     1      47.121   6.094  19.451  0.00  0.00    +0.000 A 
ATOM      8  S   UNL     1      47.685   6.131  21.063  0.00  0.00    +0.000 S 
ATOM      9  C   UNL     1      49.175   5.446  20.608  0.00  0.00    +0.000 A 
ATOM     10  N   UNL     1      50.146   5.206  21.529  0.00  0.00    +0.000 NA
ATOM     11  C   UNL     1      51.226   4.701  21.032  0.00  0.00    +0.000 A 
ATOM     12  N   UNL     1      51.423   4.414  19.704  0.00  0.00    +0.000 N 
ATOM     13  C   UNL     1      50.469   4.642  18.735  0.00  0.00    +0.000 A 
ATOM     14  O   UNL     1      50.671   4.404  17.548  0.00  0.00    +0.000 OA
ATOM     15  C   UNL     1      49.236   5.199  19.249  0.00  0.00    +0.000 A 
ATOM     16  H   UNL     1      52.302   4.034  19.385  0.00  0.00    +0.000 HD
ENDBRANCH   4   6
ENDBRANCH   1   2
BRANCH   1  17
ATOM     17  N   UNL     1      47.685   2.933  14.589  0.00  0.00    +0.000 NA
ATOM     18  H   UNL     1      48.631   3.020  14.209  0.00  0.00    +0.000 HD
ATOM     19  H   UNL     1      47.101   2.685  13.786  0.00  0.00    +0.000 HD
ENDBRANCH   1  17
BRANCH   1  20
ATOM     20  C   UNL     1      45.865   4.698  14.589  0.00  0.00    +0.000 C 
BRANCH  20  21
ATOM     21  C   UNL     1      45.677   4.703  13.095  0.00  0.00    +0.000 A 
ATOM     22  C   UNL     1      45.020   3.646  12.454  0.00  0.00    +0.000 A 
ATOM     23  C   UNL     1      44.833   3.667  11.070  0.00  0.00    +0.000 A 
ATOM     24  C   UNL     1      45.290   4.748  10.307  0.00  0.00    +0.000 A 
ATOM     25  C   UNL     1      45.936   5.810  10.955  0.00  0.00    +0.000 A 
ATOM     26  C   UNL     1      46.134   5.786  12.336  0.00  0.00    +0.000 A 
BRANCH  24  27
ATOM     27  C   UNL     1      45.127   4.764   8.807  0.00  0.00    +0.000 C 
BRANCH  27  28
ATOM     28  N   UNL     1      44.402   3.591   8.320  0.00  0.00    +0.000 NA
ATOM     29  H   UNL     1      43.600   3.900   7.772  0.00  0.00    +0.000 HD
BRANCH  28  30
ATOM     30  C   UNL     1      45.245   2.691   7.521  0.00  0.00    +0.000 C 
ATOM     31  C   UNL     1      45.922   1.595   8.366  0.00  0.00    +0.000 C 
ATOM     32  C   UNL     1      46.896   0.755   7.546  0.00  0.00    +0.000 C 
ATOM     33  C   UNL     1      47.940   1.625   6.861  0.00  0.00    +0.000 C 
ATOM     34  C   UNL     1      47.278   2.684   5.987  0.00  0.00    +0.000 C 
ATOM     35  C   UNL     1      46.302   3.543   6.793  0.00  0.00    +0.000 C 
ENDBRANCH  28  30
ENDBRANCH  27  28
ENDBRANCH  24  27
ENDBRANCH  20  21
ENDBRANCH   1  20
TORSDOF 8
ENDMDL
MODEL 4
REMARK VINA RESULT:    -7.933      2.966      3.996
REMARK INTER + INTRA:         -12.357
REMARK INTER:                 -11.390
REMARK INTRA:                  -0.968
REMARK UNBOUND:                -0.946
REMARK  Name = 
REMARK  8 active torsions:
REMARK  status: ('A' for Active; 'I' for Inactive)
REMARK    1  A    between atoms: N_1  and  C_2
REMARK    2  A    between atoms: C_2  and  C_3
REMARK    3  A    between atoms: C_2  and  C_18
REMARK    4  A    between atoms: C_3  and  C_4
REMARK    5  A    between atoms: C_7  and  C_8
REMARK    6  A    between atoms: C_8  and  N_9
REMARK    7  A    between atoms: N_9  and  C_10
REMARK    8  A    between atoms: N_20  and  C_21
REMARK                            x       y       z     vdW  Elec       q    Type
REMARK                         _______ _______ _______ _____ _____    ______ ____
ROOT
ATOM      1  C   UNL     1      48.799   7.347  13.667  0.00  0.00    +0.000 C 
ENDROOT
BRANCH   1   2
ATOM      2  C   UNL     1      49.257   6.857  15.056  0.00  0.00    +0.000 C 
ATOM      3  O   UNL     1      50.452   6.795  15.343  0.00  0.00    +0.000 OA
ATOM      4  N   UNL     1      48.227   6.460  15.893  0.00  0.00    +0.000 N 
ATOM      5  H   UNL     1      47.287   6.421  15.495  0.00  0.00    +0.000 HD
BRANCH   4   6
ATOM      6  C   UNL     1      48.395   6.113  17.234  0.00  0.00    +0.000 A 
ATOM      7  C   UNL     1      48.654   4.836  17.695  0.00  0.00    +0.000 A 
ATOM      8  S   UNL     1      48.837   4.752  19.391  0.00  0.00    +0.000 S 
ATOM      9  C   UNL     1      48.578   6.426  19.551  0.00  0.00    +0.000 A 
ATOM     10  N   UNL     1      48.598   7.025  20.771  0.00  0.00    +0.000 NA
ATOM     11  C   UNL     1      48.368   8.296  20.735  0.00  0.00    +0.000 A 
ATOM     12  N   UNL     1      48.122   9.020  19.595  0.00  0.00    +0.000 N 
ATOM     13  C   UNL     1      48.090   8.455  18.338  0.00  0.00    +0.000 A 
ATOM     14  O   UNL     1      47.842   9.113  17.331  0.00  0.00    +0.000 OA
ATOM     15  C   UNL     1      48.353   7.032  18.328  0.00  0.00    +0.000 A 
ATOM     16  H   UNL     1      47.934  10.010  19.646  0.00  0.00    +0.000 HD
ENDBRANCH   4   6
ENDBRANCH   1   2
BRANCH   1  17
ATOM     17  N   UNL     1      49.291   6.424  12.613  0.00  0.00    +0.000 NA
ATOM     18  H   UNL     1      49.380   5.492  13.027  0.00  0.00    +0.000 HD
ATOM     19  H   UNL     1      50.246   6.695  12.365  0.00  0.00    +0.000 HD
ENDBRANCH   1  17
BRANCH   1  20
ATOM     20  C   UNL     1      47.261   7.487  13.700  0.00  0.00    +0.000 C 
BRANCH  20  21
ATOM     21  C   UNL     1      46.506   6.520  12.827  0.00  0.00    +0.000 A 
ATOM     22  C   UNL     1      45.839   5.423  13.385  0.00  0.00    +0.000 A 
ATOM     23  C   UNL     1      45.124   4.543  12.569  0.00  0.00    +0.000 A 
ATOM     24  C   UNL     1      45.056   4.750  11.187  0.00  0.00    +0.000 A 
ATOM     25  C   UNL     1      45.715   5.857  10.634  0.00  0.00    +0.000 A 
ATOM     26  C   UNL     1      46.438   6.731  11.445  0.00  0.00    +0.000 A 
BRANCH  24  27
ATOM     27  C   UNL     1      44.319   3.784  10.292  0.00  0.00    +0.000 C 
BRANCH  27  28
ATOM     28  N   UNL     1      44.350   4.200   8.890  0.00  0.00    +0.000 NA
ATOM     29  H   UNL     1      44.827   5.098   8.821  0.00  0.00    +0.000 HD
BRANCH  28  30
ATOM     30  C   UNL     1      45.000   3.211   8.017  0.00  0.00    +0.000 C 
ATOM     31  C   UNL     1      45.546   1.996   8.791  0.00  0.00    +0.000 C 
ATOM     32  C   UNL     1      46.333   1.048   7.891  0.00  0.00    +0.000 C 
ATOM     33  C   UNL     1      47.459   1.774   7.169  0.00  0.00    +0.000 C 
ATOM     34  C   UNL     1      46.920   2.951   6.366  0.00  0.00    +0.000 C 
ATOM     35  C   UNL     1      46.133   3.919   7.251  0.00  0.00    +0.000 C 
ENDBRANCH  28  30
ENDBRANCH  27  28
ENDBRANCH  24  27
ENDBRANCH  20  21
ENDBRANCH   1  20
TORSDOF 8
ENDMDL
MODEL 5
REMARK VINA RESULT:    -7.529      2.741      3.200
REMARK INTER + INTRA:         -11.776
REMARK INTER:                 -10.682
REMARK INTRA:                  -1.093
REMARK UNBOUND:                -0.946
REMARK  Name = 
REMARK  8 active torsions:
REMARK  status: ('A' for Active; 'I' for Inactive)
REMARK    1  A    between atoms: N_1  and  C_2
REMARK    2  A    between atoms: C_2  and  C_3
REMARK    3  A    between atoms: C_2  and  C_18
REMARK    4  A    between atoms: C_3  and  C_4
REMARK    5  A    between atoms: C_7  and  C_8
REMARK    6  A    between atoms: C_8  and  N_9
REMARK    7  A    between atoms: N_9  and  C_10
REMARK    8  A    between atoms: N_20  and  C_21
REMARK                            x       y       z     vdW  Elec       q    Type
REMARK                         _______ _______ _______ _____ _____    ______ ____
ROOT
ATOM      1  C   UNL     1      49.326   8.779  13.443  0.00  0.00    +0.000 C 
ENDROOT
BRANCH   1   2
ATOM      2  C   UNL     1      49.032   8.247  14.861  0.00  0.00    +0.000 C 
ATOM      3  O   UNL     1      48.214   8.807  15.589  0.00  0.00    +0.000 OA
ATOM      4  N   UNL     1      49.793   7.150  15.231  0.00  0.00    +0.000 N 
ATOM      5  H   UNL     1      50.541   6.862  14.599  0.00  0.00    +0.000 HD
BRANCH   4   6
ATOM      6  C   UNL     1      49.601   6.424  16.408  0.00  0.00    +0.000 A 
ATOM      7  C   UNL     1      50.272   6.647  17.594  0.00  0.00    +0.000 A 
ATOM      8  S   UNL     1      49.783   5.605  18.856  0.00  0.00    +0.000 S 
ATOM      9  C   UNL     1      48.656   4.830  17.845  0.00  0.00    +0.000 A 
ATOM     10  N   UNL     1      47.883   3.812  18.307  0.00  0.00    +0.000 NA
ATOM     11  C   UNL     1      47.088   3.311  17.420  0.00  0.00    +0.000 A 
ATOM     12  N   UNL     1      46.995   3.735  16.117  0.00  0.00    +0.000 N 
ATOM     13  C   UNL     1      47.761   4.761  15.603  0.00  0.00    +0.000 A 
ATOM     14  O   UNL     1      47.684   5.110  14.429  0.00  0.00    +0.000 OA
ATOM     15  C   UNL     1      48.659   5.359  16.567  0.00  0.00    +0.000 A 
ATOM     16  H   UNL     1      46.361   3.285  15.475  0.00  0.00    +0.000 HD
ENDBRANCH   4   6
ENDBRANCH   1   2
BRANCH   1  17
ATOM     17  N   UNL     1      50.045   7.749  12.652  0.00  0.00    +0.000 NA
ATOM     18  H   UNL     1      50.357   7.018  13.296  0.00  0.00    +0.000 HD
ATOM     19  H   UNL     1      50.906   8.164  12.287  0.00  0.00    +0.000 HD
ENDBRANCH   1  17
BRANCH   1  20
ATOM     20  C   UNL     1      47.984   9.217  12.816  0.00  0.00    +0.000 C 
BRANCH  20  21
ATOM     21  C   UNL     1      47.067   8.097  12.404  0.00  0.00    +0.000 A 
ATOM     22  C   UNL     1      47.468   7.159  11.446  0.00  0.00    +0.000 A 
ATOM     23  C   UNL     1      46.617   6.112  11.084  0.00  0.00    +0.000 A 
ATOM     24  C   UNL     1      45.358   5.980  11.680  0.00  0.00    +0.000 A 
ATOM     25  C   UNL     1      44.965   6.914  12.648  0.00  0.00    +0.000 A 
ATOM     26  C   UNL     1      45.809   7.966  13.004  0.00  0.00    +0.000 A 
BRANCH  24  27
ATOM     27  C   UNL     1      44.416   4.875  11.269  0.00  0.00    +0.000 C 
BRANCH  27  28
ATOM     28  N   UNL     1      43.912   5.060   9.909  0.00  0.00    +0.000 NA
ATOM     29  H   UNL     1      44.255   5.948   9.545  0.00  0.00    +0.000 HD
BRANCH  28  30
ATOM     30  C   UNL     1      44.292   3.962   9.007  0.00  0.00    +0.000 C 
ATOM     31  C   UNL     1      44.552   2.638   9.750  0.00  0.00    +0.000 C 
ATOM     32  C   UNL     1      45.073   1.549   8.818  0.00  0.00    +0.000 C 
ATOM     33  C   UNL     1      46.323   2.002   8.078  0.00  0.00    +0.000 C 
ATOM     34  C   UNL     1      46.060   3.288   7.304  0.00  0.00    +0.000 C 
ATOM     35  C   UNL     1      45.543   4.398   8.221  0.00  0.00    +0.000 C 
ENDBRANCH  28  30
ENDBRANCH  27  28
ENDBRANCH  24  27
ENDBRANCH  20  21
ENDBRANCH   1  20
TORSDOF 8
ENDMDL
MODEL 6
REMARK VINA RESULT:    -7.482      1.853      2.288
REMARK INTER + INTRA:         -11.707
REMARK INTER:                 -10.636
REMARK INTRA:                  -1.072
REMARK UNBOUND:                -0.946
REMARK  Name = 
REMARK  8 active torsions:
REMARK  status: ('A' for Active; 'I' for Inactive)
REMARK    1  A    between atoms: N_1  and  C_2
REMARK    2  A    between atoms: C_2  and  C_3
REMARK    3  A    between atoms: C_2  and  C_18
REMARK    4  A    between atoms: C_3  and  C_4
REMARK    5  A    between atoms: C_7  and  C_8
REMARK    6  A    between atoms: C_8  and  N_9
REMARK    7  A    between atoms: N_9  and  C_10
REMARK    8  A    between atoms: N_20  and  C_21
REMARK                            x       y       z     vdW  Elec       q    Type
REMARK                         _______ _______ _______ _____ _____    ______ ____
ROOT
ATOM      1  C   UNL     1      47.641   7.819  14.432  0.00  0.00    +0.000 C 
ENDROOT
BRANCH   1   2
ATOM      2  C   UNL     1      48.861   7.945  15.367  0.00  0.00    +0.000 C 
ATOM      3  O   UNL     1      48.949   8.872  16.171  0.00  0.00    +0.000 OA
ATOM      4  N   UNL     1      49.832   6.975  15.177  0.00  0.00    +0.000 N 
ATOM      5  H   UNL     1      49.716   6.343  14.384  0.00  0.00    +0.000 HD
BRANCH   4   6
ATOM      6  C   UNL     1      50.951   6.813  15.996  0.00  0.00    +0.000 A 
ATOM      7  C   UNL     1      52.062   7.634  15.991  0.00  0.00    +0.000 A 
ATOM      8  S   UNL     1      53.244   7.183  17.138  0.00  0.00    +0.000 S 
ATOM      9  C   UNL     1      52.295   5.877  17.675  0.00  0.00    +0.000 A 
ATOM     10  N   UNL     1      52.730   5.054  18.665  0.00  0.00    +0.000 NA
ATOM     11  C   UNL     1      51.909   4.099  18.952  0.00  0.00    +0.000 A 
ATOM     12  N   UNL     1      50.696   3.893  18.343  0.00  0.00    +0.000 N 
ATOM     13  C   UNL     1      50.215   4.699  17.333  0.00  0.00    +0.000 A 
ATOM     14  O   UNL     1      49.140   4.484  16.780  0.00  0.00    +0.000 OA
ATOM     15  C   UNL     1      51.099   5.791  16.985  0.00  0.00    +0.000 A 
ATOM     16  H   UNL     1      50.114   3.113  18.609  0.00  0.00    +0.000 HD
ENDBRANCH   4   6
ENDBRANCH   1   2
BRANCH   1  17
ATOM     17  N   UNL     1      46.994   9.143  14.257  0.00  0.00    +0.000 NA
ATOM     18  H   UNL     1      45.986   8.991  14.163  0.00  0.00    +0.000 HD
ATOM     19  H   UNL     1      47.287   9.531  13.357  0.00  0.00    +0.000 HD
ENDBRANCH   1  17
BRANCH   1  20
ATOM     20  C   UNL     1      48.125   7.187  13.108  0.00  0.00    +0.000 C 
BRANCH  20  21
ATOM     21  C   UNL     1      47.121   6.313  12.404  0.00  0.00    +0.000 A 
ATOM     22  C   UNL     1      46.575   5.193  13.042  0.00  0.00    +0.000 A 
ATOM     23  C   UNL     1      45.631   4.399  12.388  0.00  0.00    +0.000 A 
ATOM     24  C   UNL     1      45.209   4.717  11.091  0.00  0.00    +0.000 A 
ATOM     25  C   UNL     1      45.750   5.846  10.461  0.00  0.00    +0.000 A 
ATOM     26  C   UNL     1      46.702   6.634  11.108  0.00  0.00    +0.000 A 
BRANCH  24  27
ATOM     27  C   UNL     1      44.218   3.844  10.361  0.00  0.00    +0.000 C 
BRANCH  27  28
ATOM     28  N   UNL     1      44.144   4.169   8.937  0.00  0.00    +0.000 NA
ATOM     29  H   UNL     1      44.539   5.097   8.787  0.00  0.00    +0.000 HD
BRANCH  28  30
ATOM     30  C   UNL     1      44.832   3.183   8.091  0.00  0.00    +0.000 C 
ATOM     31  C   UNL     1      45.395   1.994   8.894  0.00  0.00    +0.000 C 
ATOM     32  C   UNL     1      46.218   1.051   8.023  0.00  0.00    +0.000 C 
ATOM     33  C   UNL     1      47.338   1.793   7.306  0.00  0.00    +0.000 C 
ATOM     34  C   UNL     1      46.784   2.943   6.475  0.00  0.00    +0.000 C 
ATOM     35  C   UNL     1      45.959   3.906   7.331  0.00  0.00    +0.000 C 
ENDBRANCH  28  30
ENDBRANCH  27  28
ENDBRANCH  24  27
ENDBRANCH  20  21
ENDBRANCH   1  20
TORSDOF 8
ENDMDL
MODEL 7
REMARK VINA RESULT:    -6.921      5.216      6.365
REMARK INTER + INTRA:         -10.901
REMARK INTER:                  -9.950
REMARK INTRA:                  -0.951
REMARK UNBOUND:                -0.946
REMARK  Name = 
REMARK  8 active torsions:
REMARK  status: ('A' for Active; 'I' for Inactive)
REMARK    1  A    between atoms: N_1  and  C_2
REMARK    2  A    between atoms: C_2  and  C_3
REMARK    3  A    between atoms: C_2  and  C_18
REMARK    4  A    between atoms: C_3  and  C_4
REMARK    5  A    between atoms: C_7  and  C_8
REMARK    6  A    between atoms: C_8  and  N_9
REMARK    7  A    between atoms: N_9  and  C_10
REMARK    8  A    between atoms: N_20  and  C_21
REMARK                            x       y       z     vdW  Elec       q    Type
REMARK                         _______ _______ _______ _____ _____    ______ ____
ROOT
ATOM      1  C   UNL     1      47.479   8.208  14.111  0.00  0.00    +0.000 C 
ENDROOT
BRANCH   1   2
ATOM      2  C   UNL     1      48.591   9.162  13.627  0.00  0.00    +0.000 C 
ATOM      3  O   UNL     1      49.453   9.573  14.402  0.00  0.00    +0.000 OA
ATOM      4  N   UNL     1      48.488   9.533  12.296  0.00  0.00    +0.000 N 
ATOM      5  H   UNL     1      47.650   9.243  11.790  0.00  0.00    +0.000 HD
BRANCH   4   6
ATOM      6  C   UNL     1      49.452  10.274  11.612  0.00  0.00    +0.000 A 
ATOM      7  C   UNL     1      49.409  11.641  11.417  0.00  0.00    +0.000 A 
ATOM      8  S   UNL     1      50.760  12.248  10.566  0.00  0.00    +0.000 S 
ATOM      9  C   UNL     1      51.440  10.694  10.441  0.00  0.00    +0.000 A 
ATOM     10  N   UNL     1      52.627  10.497   9.808  0.00  0.00    +0.000 NA
ATOM     11  C   UNL     1      53.007   9.263   9.777  0.00  0.00    +0.000 A 
ATOM     12  N   UNL     1      52.312   8.211  10.321  0.00  0.00    +0.000 N 
ATOM     13  C   UNL     1      51.105   8.362  10.969  0.00  0.00    +0.000 A 
ATOM     14  O   UNL     1      50.483   7.407  11.427  0.00  0.00    +0.000 OA
ATOM     15  C   UNL     1      50.644   9.732  11.037  0.00  0.00    +0.000 A 
ATOM     16  H   UNL     1      52.664   7.269  10.245  0.00  0.00    +0.000 HD
ENDBRANCH   4   6
ENDBRANCH   1   2
BRANCH   1  17
ATOM     17  N   UNL     1      46.163   8.649  13.584  0.00  0.00    +0.000 NA
ATOM     18  H   UNL     1      46.335   9.268  12.788  0.00  0.00    +0.000 HD
ATOM     19  H   UNL     1      45.715   9.241  14.287  0.00  0.00    +0.000 HD
ENDBRANCH   1  17
BRANCH   1  20
ATOM     20  C   UNL     1      47.869   6.775  13.683  0.00  0.00    +0.000 C 
BRANCH  20  21
ATOM     21  C   UNL     1      46.897   6.088  12.762  0.00  0.00    +0.000 A 
ATOM     22  C   UNL     1      46.114   5.020  13.216  0.00  0.00    +0.000 A 
ATOM     23  C   UNL     1      45.200   4.401  12.359  0.00  0.00    +0.000 A 
ATOM     24  C   UNL     1      45.048   4.845  11.040  0.00  0.00    +0.000 A 
ATOM     25  C   UNL     1      45.825   5.923  10.594  0.00  0.00    +0.000 A 
ATOM     26  C   UNL     1      46.745   6.535  11.444  0.00  0.00    +0.000 A 
BRANCH  24  27
ATOM     27  C   UNL     1      44.092   4.159  10.096  0.00  0.00    +0.000 C 
BRANCH  27  28
ATOM     28  N   UNL     1      44.523   2.801   9.767  0.00  0.00    +0.000 NA
ATOM     29  H   UNL     1      43.744   2.298   9.343  0.00  0.00    +0.000 HD
BRANCH  28  30
ATOM     30  C   UNL     1      45.690   2.775   8.873  0.00  0.00    +0.000 C 
ATOM     31  C   UNL     1      45.544   3.727   7.670  0.00  0.00    +0.000 C 
ATOM     32  C   UNL     1      46.700   3.589   6.685  0.00  0.00    +0.000 C 
ATOM     33  C   UNL     1      46.860   2.151   6.213  0.00  0.00    +0.000 C 
ATOM     34  C   UNL     1      47.049   1.208   7.396  0.00  0.00    +0.000 C 
ATOM     35  C   UNL     1      45.896   1.326   8.394  0.00  0.00    +0.000 C 
ENDBRANCH  28  30
ENDBRANCH  27  28
ENDBRANCH  24  27
ENDBRANCH  20  21
ENDBRANCH   1  20
TORSDOF 8
ENDMDL
MODEL 8
REMARK VINA RESULT:    -6.908      3.544      8.817
REMARK INTER + INTRA:         -10.882
REMARK INTER:                  -9.920
REMARK INTRA:                  -0.963
REMARK UNBOUND:                -0.946
REMARK  Name = 
REMARK  8 active torsions:
REMARK  status: ('A' for Active; 'I' for Inactive)
REMARK    1  A    between atoms: N_1  and  C_2
REMARK    2  A    between atoms: C_2  and  C_3
REMARK    3  A    between atoms: C_2  and  C_18
REMARK    4  A    between atoms: C_3  and  C_4
REMARK    5  A    between atoms: C_7  and  C_8
REMARK    6  A    between atoms: C_8  and  N_9
REMARK    7  A    between atoms: N_9  and  C_10
REMARK    8  A    between atoms: N_20  and  C_21
REMARK                            x       y       z     vdW  Elec       q    Type
REMARK                         _______ _______ _______ _____ _____    ______ ____
ROOT
ATOM      1  C   UNL     1      47.231   8.463  12.708  0.00  0.00    +0.000 C 
ENDROOT
BRANCH   1   2
ATOM      2  C   UNL     1      46.152   7.593  12.031  0.00  0.00    +0.000 C 
ATOM      3  O   UNL     1      44.985   7.975  11.959  0.00  0.00    +0.000 OA
ATOM      4  N   UNL     1      46.606   6.364  11.580  0.00  0.00    +0.000 N 
ATOM      5  H   UNL     1      47.561   6.098  11.824  0.00  0.00    +0.000 HD
BRANCH   4   6
ATOM      6  C   UNL     1      45.843   5.476  10.820  0.00  0.00    +0.000 A 
ATOM      7  C   UNL     1      45.798   5.452   9.439  0.00  0.00    +0.000 A 
ATOM      8  S   UNL     1      44.790   4.221   8.816  0.00  0.00    +0.000 S 
ATOM      9  C   UNL     1      44.392   3.687  10.382  0.00  0.00    +0.000 A 
ATOM     10  N   UNL     1      43.545   2.641  10.571  0.00  0.00    +0.000 NA
ATOM     11  C   UNL     1      43.324   2.363  11.814  0.00  0.00    +0.000 A 
ATOM     12  N   UNL     1      43.872   3.032  12.880  0.00  0.00    +0.000 N 
ATOM     13  C   UNL     1      44.733   4.100  12.736  0.00  0.00    +0.000 A 
ATOM     14  O   UNL     1      45.193   4.704  13.701  0.00  0.00    +0.000 OA
ATOM     15  C   UNL     1      45.018   4.441  11.359  0.00  0.00    +0.000 A 
ATOM     16  H   UNL     1      43.641   2.768  13.825  0.00  0.00    +0.000 HD
ENDBRANCH   4   6
ENDBRANCH   1   2
BRANCH   1  17
ATOM     17  N   UNL     1      46.763   8.906  14.045  0.00  0.00    +0.000 NA
ATOM     18  H   UNL     1      47.565   9.299  14.545  0.00  0.00    +0.000 HD
ATOM     19  H   UNL     1      46.496   8.079  14.585  0.00  0.00    +0.000 HD
ENDBRANCH   1  17
BRANCH   1  20
ATOM     20  C   UNL     1      48.540   7.644  12.749  0.00  0.00    +0.000 C 
BRANCH  20  21
ATOM     21  C   UNL     1      48.923   7.105  14.102  0.00  0.00    +0.000 A 
ATOM     22  C   UNL     1      50.067   7.572  14.760  0.00  0.00    +0.000 A 
ATOM     23  C   UNL     1      50.404   7.080  16.023  0.00  0.00    +0.000 A 
ATOM     24  C   UNL     1      49.600   6.123  16.652  0.00  0.00    +0.000 A 
ATOM     25  C   UNL     1      48.449   5.667  15.994  0.00  0.00    +0.000 A 
ATOM     26  C   UNL     1      48.116   6.148  14.728  0.00  0.00    +0.000 A 
BRANCH  24  27
ATOM     27  C   UNL     1      49.976   5.557  17.999  0.00  0.00    +0.000 C 
BRANCH  27  28
ATOM     28  N   UNL     1      49.802   4.105  18.054  0.00  0.00    +0.000 NA
ATOM     29  H   UNL     1      48.979   3.848  17.510  0.00  0.00    +0.000 HD
BRANCH  28  30
ATOM     30  C   UNL     1      50.981   3.373  17.567  0.00  0.00    +0.000 C 
ATOM     31  C   UNL     1      50.808   1.844  17.640  0.00  0.00    +0.000 C 
ATOM     32  C   UNL     1      52.085   1.102  17.259  0.00  0.00    +0.000 C 
ATOM     33  C   UNL     1      53.263   1.549  18.113  0.00  0.00    +0.000 C 
ATOM     34  C   UNL     1      53.468   3.056  18.011  0.00  0.00    +0.000 C 
ATOM     35  C   UNL     1      52.200   3.820  18.396  0.00  0.00    +0.000 C 
ENDBRANCH  28  30
ENDBRANCH  27  28
ENDBRANCH  24  27
ENDBRANCH  20  21
ENDBRANCH   1  20
TORSDOF 8
ENDMDL
MODEL 9
REMARK VINA RESULT:    -6.842      4.625      5.402
REMARK INTER + INTRA:         -10.788
REMARK INTER:                 -10.007
REMARK INTRA:                  -0.781
REMARK UNBOUND:                -0.946
REMARK  Name = 
REMARK  8 active torsions:
REMARK  status: ('A' for Active; 'I' for Inactive)
REMARK    1  A    between atoms: N_1  and  C_2
REMARK    2  A    between atoms: C_2  and  C_3
REMARK    3  A    between atoms: C_2  and  C_18
REMARK    4  A    between atoms: C_3  and  C_4
REMARK    5  A    between atoms: C_7  and  C_8
REMARK    6  A    between atoms: C_8  and  N_9
REMARK    7  A    between atoms: N_9  and  C_10
REMARK    8  A    between atoms: N_20  and  C_21
REMARK                            x       y       z     vdW  Elec       q    Type
REMARK                         _______ _______ _______ _____ _____    ______ ____
ROOT
ATOM      1  C   UNL     1      47.552   8.241  14.039  0.00  0.00    +0.000 C 
ENDROOT
BRANCH   1   2
ATOM      2  C   UNL     1      48.631   9.125  13.382  0.00  0.00    +0.000 C 
ATOM      3  O   UNL     1      48.533  10.351  13.386  0.00  0.00    +0.000 OA
ATOM      4  N   UNL     1      49.653   8.421  12.767  0.00  0.00    +0.000 N 
ATOM      5  H   UNL     1      49.553   7.407  12.704  0.00  0.00    +0.000 HD
BRANCH   4   6
ATOM      6  C   UNL     1      50.800   9.009  12.232  0.00  0.00    +0.000 A 
ATOM      7  C   UNL     1      50.857   9.678  11.024  0.00  0.00    +0.000 A 
ATOM      8  S   UNL     1      52.404  10.310  10.671  0.00  0.00    +0.000 S 
ATOM      9  C   UNL     1      53.037   9.706  12.130  0.00  0.00    +0.000 A 
ATOM     10  N   UNL     1      54.342   9.896  12.460  0.00  0.00    +0.000 NA
ATOM     11  C   UNL     1      54.680   9.366  13.589  0.00  0.00    +0.000 A 
ATOM     12  N   UNL     1      53.836   8.666  14.415  0.00  0.00    +0.000 N 
ATOM     13  C   UNL     1      52.507   8.446  14.120  0.00  0.00    +0.000 A 
ATOM     14  O   UNL     1      51.772   7.795  14.858  0.00  0.00    +0.000 OA
ATOM     15  C   UNL     1      52.080   9.032  12.868  0.00  0.00    +0.000 A 
ATOM     16  H   UNL     1      54.176   8.266  15.276  0.00  0.00    +0.000 HD
ENDBRANCH   4   6
ENDBRANCH   1   2
BRANCH   1  17
ATOM     17  N   UNL     1      46.204   8.648  13.568  0.00  0.00    +0.000 NA
ATOM     18  H   UNL     1      45.539   7.925  13.854  0.00  0.00    +0.000 HD
ATOM     19  H   UNL     1      46.197   8.624  12.546  0.00  0.00    +0.000 HD
ENDBRANCH   1  17
BRANCH   1  20
ATOM     20  C   UNL     1      47.897   6.768  13.729  0.00  0.00    +0.000 C 
BRANCH  20  21
ATOM     21  C   UNL     1      46.926   6.052  12.828  0.00  0.00    +0.000 A 
ATOM     22  C   UNL     1      46.179   4.966  13.300  0.00  0.00    +0.000 A 
ATOM     23  C   UNL     1      45.267   4.320  12.462  0.00  0.00    +0.000 A 
ATOM     24  C   UNL     1      45.080   4.753  11.145  0.00  0.00    +0.000 A 
ATOM     25  C   UNL     1      45.822   5.848  10.680  0.00  0.00    +0.000 A 
ATOM     26  C   UNL     1      46.741   6.488  11.511  0.00  0.00    +0.000 A 
BRANCH  24  27
ATOM     27  C   UNL     1      44.126   4.039  10.220  0.00  0.00    +0.000 C 
BRANCH  27  28
ATOM     28  N   UNL     1      44.342   4.401   8.820  0.00  0.00    +0.000 NA
ATOM     29  H   UNL     1      44.941   5.225   8.778  0.00  0.00    +0.000 HD
BRANCH  28  30
ATOM     30  C   UNL     1      44.930   3.307   8.033  0.00  0.00    +0.000 C 
ATOM     31  C   UNL     1      45.392   2.123   8.905  0.00  0.00    +0.000 C 
ATOM     32  C   UNL     1      46.119   1.058   8.090  0.00  0.00    +0.000 C 
ATOM     33  C   UNL     1      47.294   1.650   7.324  0.00  0.00    +0.000 C 
ATOM     34  C   UNL     1      46.837   2.794   6.426  0.00  0.00    +0.000 C 
ATOM     35  C   UNL     1      46.111   3.877   7.225  0.00  0.00    +0.000 C 
ENDBRANCH  28  30
ENDBRANCH  27  28
ENDBRANCH  24  27
ENDBRANCH  20  21
ENDBRANCH   1  20
TORSDOF 8
ENDMDL
