MODEL 1
REMARK VINA RESULT:    -8.115      0.000      0.000
REMARK INTER + INTRA:         -12.179
REMARK INTER:                 -11.435
REMARK INTRA:                  -0.743
REMARK UNBOUND:                -0.743
REMARK  Name = 
REMARK  9 active torsions:
REMARK  status: ('A' for Active; 'I' for Inactive)
REMARK    1  A    between atoms: C_1  and  C_2
REMARK    2  A    between atoms: C_2  and  N_3
REMARK    3  A    between atoms: C_2  and  C_26
REMARK    4  A    between atoms: N_3  and  C_4
REMARK    5  A    between atoms: C_4  and  C_5
REMARK    6  A    between atoms: C_8  and  C_9
REMARK    7  A    between atoms: C_9  and  N_10
REMARK    8  A    between atoms: N_10  and  C_11
REMARK    9  A    between atoms: C_12  and  C_14
REMARK                            x       y       z     vdW  Elec       q    Type
REMARK                         _______ _______ _______ _____ _____    ______ ____
ROOT
ATOM      1  C   UNL     1      44.284   6.787  11.845  0.00  0.00    +0.000 A 
ATOM      2  C   UNL     1      45.150   6.120  12.723  0.00  0.00    +0.000 A 
ATOM      3  C   UNL     1      46.297   6.745  13.217  0.00  0.00    +0.000 A 
ATOM      4  C   UNL     1      46.593   8.070  12.872  0.00  0.00    +0.000 A 
ATOM      5  C   UNL     1      45.774   8.713  11.931  0.00  0.00    +0.000 A 
ATOM      6  C   UNL     1      44.631   8.077  11.420  0.00  0.00    +0.000 A 
ENDROOT
BRANCH   1   7
ATOM      7  C   UNL     1      43.000   6.116  11.397  0.00  0.00    +0.000 C 
BRANCH   7   8
ATOM      8  N   UNL     1      43.279   5.152  10.333  0.00  0.00    +0.000 NA
ATOM      9  H   UNL     1      43.770   5.645   9.584  0.00  0.00    +0.000 HD
BRANCH   8  11
ATOM     10  C   UNL     1      43.349   2.873  11.407  0.00  0.00    +0.000 C 
ATOM     11  C   UNL     1      44.124   4.007  10.724  0.00  0.00    +0.000 C 
BRANCH  11  12
ATOM     12  C   UNL     1      44.877   3.501   9.485  0.00  0.00    +0.000 A 
ATOM     13  C   UNL     1      45.473   4.401   8.593  0.00  0.00    +0.000 A 
ATOM     14  C   UNL     1      46.315   3.918   7.591  0.00  0.00    +0.000 A 
ATOM     15  C   UNL     1      46.532   2.552   7.493  0.00  0.00    +0.000 A 
ATOM     16 CL   UNL     1      47.606   1.916   6.314  0.00  0.00    +0.000 Cl
ATOM     17  C   UNL     1      45.878   1.719   8.387  0.00  0.00    +0.000 A 
ATOM     18  N   UNL     1      45.061   2.159   9.377  0.00  0.00    +0.000 NA
ENDBRANCH  11  12
ENDBRANCH   8  11
ENDBRANCH   7   8
ENDBRANCH   1   7
BRANCH   4  19
ATOM     19  C   UNL     1      47.665   8.832  13.624  0.00  0.00    +0.000 C 
BRANCH  19  20
ATOM     20  N   UNL     1      48.141   8.251  14.871  0.00  0.00    +0.000 N 
ATOM     21  C   UNL     1      47.827   8.937  16.114  0.00  0.00    +0.000 C 
ATOM     22  C   UNL     1      49.142   7.255  14.791  0.00  0.00    +0.000 C 
ATOM     23  O   UNL     1      49.610   6.910  13.709  0.00  0.00    +0.000 OA
BRANCH  22  24
ATOM     24  C   UNL     1      49.618   6.622  16.040  0.00  0.00    +0.000 A 
ATOM     25  N   UNL     1      50.670   7.092  16.749  0.00  0.00    +0.000 NA
ATOM     26  N   UNL     1      50.735   6.283  17.822  0.00  0.00    +0.000 N 
ATOM     27  C   UNL     1      49.757   5.340  17.861  0.00  0.00    +0.000 A 
ATOM     28  N   UNL     1      49.565   4.439  18.841  0.00  0.00    +0.000 NA
ATOM     29  C   UNL     1      48.505   3.628  18.611  0.00  0.00    +0.000 A 
ATOM     30  C   UNL     1      47.701   3.653  17.482  0.00  0.00    +0.000 A 
ATOM     31  C   UNL     1      47.970   4.602  16.501  0.00  0.00    +0.000 A 
ATOM     32  F   UNL     1      47.226   4.621  15.390  0.00  0.00    +0.000 F 
ATOM     33  C   UNL     1      49.022   5.504  16.699  0.00  0.00    +0.000 A 
ATOM     34  H   UNL     1      51.465   6.430  18.507  0.00  0.00    +0.000 HD
ENDBRANCH  22  24
ENDBRANCH  19  20
ENDBRANCH   4  19
TORSDOF 7
ENDMDL
MODEL 2
REMARK VINA RESULT:    -8.081      1.748      2.464
REMARK INTER + INTRA:         -12.132
REMARK INTER:                 -11.488
REMARK INTRA:                  -0.644
REMARK UNBOUND:                -0.743
REMARK  Name = 
REMARK  9 active torsions:
REMARK  status: ('A' for Active; 'I' for Inactive)
REMARK    1  A    between atoms: C_1  and  C_2
REMARK    2  A    between atoms: C_2  and  N_3
REMARK    3  A    between atoms: C_2  and  C_26
REMARK    4  A    between atoms: N_3  and  C_4
REMARK    5  A    between atoms: C_4  and  C_5
REMARK    6  A    between atoms: C_8  and  C_9
REMARK    7  A    between atoms: C_9  and  N_10
REMARK    8  A    between atoms: N_10  and  C_11
REMARK    9  A    between atoms: C_12  and  C_14
REMARK                            x       y       z     vdW  Elec       q    Type
REMARK                         _______ _______ _______ _____ _____    ______ ____
ROOT
ATOM      1  C   UNL     1      44.438   6.032  11.896  0.00  0.00    +0.000 A 
ATOM      2  C   UNL     1      45.468   6.916  11.546  0.00  0.00    +0.000 A 
ATOM      3  C   UNL     1      46.645   6.984  12.296  0.00  0.00    +0.000 A 
ATOM      4  C   UNL     1      46.839   6.142  13.397  0.00  0.00    +0.000 A 
ATOM      5  C   UNL     1      45.780   5.314  13.799  0.00  0.00    +0.000 A 
ATOM      6  C   UNL     1      44.588   5.260  13.057  0.00  0.00    +0.000 A 
ENDROOT
BRANCH   1   7
ATOM      7  C   UNL     1      43.210   5.916  11.013  0.00  0.00    +0.000 C 
BRANCH   7   8
ATOM      8  N   UNL     1      43.424   4.899   9.984  0.00  0.00    +0.000 NA
ATOM      9  H   UNL     1      43.863   5.353   9.180  0.00  0.00    +0.000 HD
BRANCH   8  11
ATOM     10  C   UNL     1      43.541   2.595  10.998  0.00  0.00    +0.000 C 
ATOM     11  C   UNL     1      44.296   3.776  10.377  0.00  0.00    +0.000 C 
BRANCH  11  12
ATOM     12  C   UNL     1      45.116   3.334   9.156  0.00  0.00    +0.000 A 
ATOM     13  C   UNL     1      45.669   4.281   8.286  0.00  0.00    +0.000 A 
ATOM     14  C   UNL     1      46.570   3.866   7.304  0.00  0.00    +0.000 A 
ATOM     15  C   UNL     1      46.886   2.520   7.204  0.00  0.00    +0.000 A 
ATOM     16 CL   UNL     1      48.034   1.971   6.051  0.00  0.00    +0.000 Cl
ATOM     17  C   UNL     1      46.271   1.636   8.076  0.00  0.00    +0.000 A 
ATOM     18  N   UNL     1      45.399   2.009   9.046  0.00  0.00    +0.000 NA
ENDBRANCH  11  12
ENDBRANCH   8  11
ENDBRANCH   7   8
ENDBRANCH   1   7
BRANCH   4  19
ATOM     19  C   UNL     1      48.212   6.014  14.026  0.00  0.00    +0.000 C 
BRANCH  19  20
ATOM     20  N   UNL     1      48.299   6.186  15.469  0.00  0.00    +0.000 N 
ATOM     21  C   UNL     1      48.812   7.447  15.980  0.00  0.00    +0.000 C 
ATOM     22  C   UNL     1      48.198   5.030  16.276  0.00  0.00    +0.000 C 
ATOM     23  O   UNL     1      48.065   3.916  15.776  0.00  0.00    +0.000 OA
BRANCH  22  24
ATOM     24  C   UNL     1      48.247   5.181  17.746  0.00  0.00    +0.000 A 
ATOM     25  N   UNL     1      47.144   5.391  18.501  0.00  0.00    +0.000 NA
ATOM     26  N   UNL     1      47.607   5.413  19.764  0.00  0.00    +0.000 N 
ATOM     27  C   UNL     1      48.944   5.192  19.866  0.00  0.00    +0.000 A 
ATOM     28  N   UNL     1      49.649   5.115  21.009  0.00  0.00    +0.000 NA
ATOM     29  C   UNL     1      50.967   4.879  20.801  0.00  0.00    +0.000 A 
ATOM     30  C   UNL     1      51.579   4.764  19.562  0.00  0.00    +0.000 A 
ATOM     31  C   UNL     1      50.787   4.870  18.423  0.00  0.00    +0.000 A 
ATOM     32  F   UNL     1      51.365   4.795  17.218  0.00  0.00    +0.000 F 
ATOM     33  C   UNL     1      49.409   5.066  18.568  0.00  0.00    +0.000 A 
ATOM     34  H   UNL     1      46.958   5.572  20.524  0.00  0.00    +0.000 HD
ENDBRANCH  22  24
ENDBRANCH  19  20
ENDBRANCH   4  19
TORSDOF 7
ENDMDL
MODEL 3
REMARK VINA RESULT:    -8.011      2.038      2.361
REMARK INTER + INTRA:         -12.033
REMARK INTER:                 -10.769
REMARK INTRA:                  -1.264
REMARK UNBOUND:                -0.743
REMARK  Name = 
REMARK  9 active torsions:
REMARK  status: ('A' for Active; 'I' for Inactive)
REMARK    1  A    between atoms: C_1  and  C_2
REMARK    2  A    between atoms: C_2  and  N_3
REMARK    3  A    between atoms: C_2  and  C_26
REMARK    4  A    between atoms: N_3  and  C_4
REMARK    5  A    between atoms: C_4  and  C_5
REMARK    6  A    between atoms: C_8  and  C_9
REMARK    7  A    between atoms: C_9  and  N_10
REMARK    8  A    between atoms: N_10  and  C_11
REMARK    9  A    between atoms: C_12  and  C_14
REMARK                            x       y       z     vdW  Elec       q    Type
REMARK                         _______ _______ _______ _____ _____    ______ ____
ROOT
ATOM      1  C   UNL     1      45.856   4.801  12.963  0.00  0.00    +0.000 A 
ATOM      2  C   UNL     1      46.587   4.613  14.145  0.00  0.00    +0.000 A 
ATOM      3  C   UNL     1      47.696   5.408  14.440  0.00  0.00    +0.000 A 
ATOM      4  C   UNL     1      48.085   6.440  13.577  0.00  0.00    +0.000 A 
ATOM      5  C   UNL     1      47.407   6.579  12.355  0.00  0.00    +0.000 A 
ATOM      6  C   UNL     1      46.303   5.766  12.050  0.00  0.00    +0.000 A 
ENDROOT
BRANCH   1   7
ATOM      7  C   UNL     1      44.604   3.982  12.712  0.00  0.00    +0.000 C 
BRANCH   7   8
ATOM      8  N   UNL     1      44.832   3.034  11.623  0.00  0.00    +0.000 NA
ATOM      9  H   UNL     1      44.569   2.103  11.957  0.00  0.00    +0.000 HD
BRANCH   8  11
ATOM     10  C   UNL     1      43.442   4.689  10.327  0.00  0.00    +0.000 C 
ATOM     11  C   UNL     1      44.058   3.287  10.392  0.00  0.00    +0.000 C 
BRANCH  11  12
ATOM     12  C   UNL     1      44.957   3.014   9.178  0.00  0.00    +0.000 A 
ATOM     13  C   UNL     1      45.464   4.071   8.412  0.00  0.00    +0.000 A 
ATOM     14  C   UNL     1      46.433   3.812   7.441  0.00  0.00    +0.000 A 
ATOM     15  C   UNL     1      46.861   2.508   7.246  0.00  0.00    +0.000 A 
ATOM     16 CL   UNL     1      48.093   2.149   6.106  0.00  0.00    +0.000 Cl
ATOM     17  C   UNL     1      46.287   1.508   8.016  0.00  0.00    +0.000 A 
ATOM     18  N   UNL     1      45.351   1.729   8.973  0.00  0.00    +0.000 NA
ENDBRANCH  11  12
ENDBRANCH   8  11
ENDBRANCH   7   8
ENDBRANCH   1   7
BRANCH   4  19
ATOM     19  C   UNL     1      49.096   7.473  14.030  0.00  0.00    +0.000 C 
BRANCH  19  20
ATOM     20  N   UNL     1      49.032   7.898  15.421  0.00  0.00    +0.000 N 
ATOM     21  C   UNL     1      48.299   9.114  15.736  0.00  0.00    +0.000 C 
ATOM     22  C   UNL     1      49.940   7.308  16.330  0.00  0.00    +0.000 C 
ATOM     23  O   UNL     1      50.769   6.483  15.955  0.00  0.00    +0.000 OA
BRANCH  22  24
ATOM     24  C   UNL     1      49.872   7.694  17.756  0.00  0.00    +0.000 A 
ATOM     25  N   UNL     1      50.656   8.656  18.296  0.00  0.00    +0.000 NA
ATOM     26  N   UNL     1      50.247   8.737  19.575  0.00  0.00    +0.000 N 
ATOM     27  C   UNL     1      49.216   7.904  19.879  0.00  0.00    +0.000 A 
ATOM     28  N   UNL     1      48.590   7.819  21.066  0.00  0.00    +0.000 NA
ATOM     29  C   UNL     1      47.592   6.903  21.072  0.00  0.00    +0.000 A 
ATOM     30  C   UNL     1      47.244   6.085  20.009  0.00  0.00    +0.000 A 
ATOM     31  C   UNL     1      47.947   6.218  18.816  0.00  0.00    +0.000 A 
ATOM     32  F   UNL     1      47.647   5.415  17.789  0.00  0.00    +0.000 F 
ATOM     33  C   UNL     1      48.958   7.181  18.727  0.00  0.00    +0.000 A 
ATOM     34  H   UNL     1      50.703   9.391  20.198  0.00  0.00    +0.000 HD
ENDBRANCH  22  24
ENDBRANCH  19  20
ENDBRANCH   4  19
TORSDOF 7
ENDMDL
MODEL 4
REMARK VINA RESULT:    -7.675      2.797      3.674
REMARK INTER + INTRA:         -11.559
REMARK INTER:                 -10.715
REMARK INTRA:                  -0.843
REMARK UNBOUND:                -0.743
REMARK  Name = 
REMARK  9 active torsions:
REMARK  status: ('A' for Active; 'I' for Inactive)
REMARK    1  A    between atoms: C_1  and  C_2
REMARK    2  A    between atoms: C_2  and  N_3
REMARK    3  A    between atoms: C_2  and  C_26
REMARK    4  A    between atoms: N_3  and  C_4
REMARK    5  A    between atoms: C_4  and  C_5
REMARK    6  A    between atoms: C_8  and  C_9
REMARK    7  A    between atoms: C_9  and  N_10
REMARK    8  A    between atoms: N_10  and  C_11
REMARK    9  A    between atoms: C_12  and  C_14
REMARK                            x       y       z     vdW  Elec       q    Type
REMARK                         _______ _______ _______ _____ _____    ______ ____
ROOT
ATOM      1  C   UNL     1      46.770   5.430  13.231  0.00  0.00    +0.000 A 
ATOM      2  C   UNL     1      46.631   4.543  14.307  0.00  0.00    +0.000 A 
ATOM      3  C   UNL     1      47.333   4.740  15.498  0.00  0.00    +0.000 A 
ATOM      4  C   UNL     1      48.169   5.853  15.659  0.00  0.00    +0.000 A 
ATOM      5  C   UNL     1      48.373   6.698  14.556  0.00  0.00    +0.000 A 
ATOM      6  C   UNL     1      47.681   6.487  13.352  0.00  0.00    +0.000 A 
ENDROOT
BRANCH   1   7
ATOM      7  C   UNL     1      45.927   5.240  11.984  0.00  0.00    +0.000 C 
BRANCH   7   8
ATOM      8  N   UNL     1      45.333   3.904  11.975  0.00  0.00    +0.000 NA
ATOM      9  H   UNL     1      44.914   3.741  12.894  0.00  0.00    +0.000 HD
BRANCH   8  11
ATOM     10  C   UNL     1      43.322   4.882  10.812  0.00  0.00    +0.000 C 
ATOM     11  C   UNL     1      44.273   3.690  10.971  0.00  0.00    +0.000 C 
BRANCH  11  12
ATOM     12  C   UNL     1      44.927   3.316   9.633  0.00  0.00    +0.000 A 
ATOM     13  C   UNL     1      45.311   4.307   8.722  0.00  0.00    +0.000 A 
ATOM     14  C   UNL     1      46.078   3.958   7.610  0.00  0.00    +0.000 A 
ATOM     15  C   UNL     1      46.431   2.630   7.424  0.00  0.00    +0.000 A 
ATOM     16 CL   UNL     1      47.424   2.161   6.104  0.00  0.00    +0.000 Cl
ATOM     17  C   UNL     1      45.984   1.698   8.347  0.00  0.00    +0.000 A 
ATOM     18  N   UNL     1      45.245   2.008   9.443  0.00  0.00    +0.000 NA
ENDBRANCH  11  12
ENDBRANCH   8  11
ENDBRANCH   7   8
ENDBRANCH   1   7
BRANCH   4  19
ATOM     19  C   UNL     1      48.697   6.218  17.031  0.00  0.00    +0.000 C 
BRANCH  19  20
ATOM     20  N   UNL     1      50.016   5.718  17.388  0.00  0.00    +0.000 N 
ATOM     21  C   UNL     1      51.164   6.210  16.642  0.00  0.00    +0.000 C 
ATOM     22  C   UNL     1      50.083   4.560  18.197  0.00  0.00    +0.000 C 
ATOM     23  O   UNL     1      49.063   3.983  18.565  0.00  0.00    +0.000 OA
BRANCH  22  24
ATOM     24  C   UNL     1      51.410   4.052  18.605  0.00  0.00    +0.000 A 
ATOM     25  N   UNL     1      52.223   4.718  19.457  0.00  0.00    +0.000 NA
ATOM     26  N   UNL     1      53.283   3.904  19.607  0.00  0.00    +0.000 N 
ATOM     27  C   UNL     1      53.181   2.732  18.926  0.00  0.00    +0.000 A 
ATOM     28  N   UNL     1      54.074   1.727  18.941  0.00  0.00    +0.000 NA
ATOM     29  C   UNL     1      53.701   0.678  18.169  0.00  0.00    +0.000 A 
ATOM     30  C   UNL     1      52.553   0.617  17.393  0.00  0.00    +0.000 A 
ATOM     31  C   UNL     1      51.683   1.702  17.416  0.00  0.00    +0.000 A 
ATOM     32  F   UNL     1      50.587   1.675  16.650  0.00  0.00    +0.000 F 
ATOM     33  C   UNL     1      51.985   2.798  18.232  0.00  0.00    +0.000 A 
ATOM     34  H   UNL     1      54.049   4.196  20.200  0.00  0.00    +0.000 HD
ENDBRANCH  22  24
ENDBRANCH  19  20
ENDBRANCH   4  19
TORSDOF 7
ENDMDL
MODEL 5
REMARK VINA RESULT:    -7.446      1.874      2.510
REMARK INTER + INTRA:         -11.237
REMARK INTER:                 -10.696
REMARK INTRA:                  -0.541
REMARK UNBOUND:                -0.743
REMARK  Name = 
REMARK  9 active torsions:
REMARK  status: ('A' for Active; 'I' for Inactive)
REMARK    1  A    between atoms: C_1  and  C_2
REMARK    2  A    between atoms: C_2  and  N_3
REMARK    3  A    between atoms: C_2  and  C_26
REMARK    4  A    between atoms: N_3  and  C_4
REMARK    5  A    between atoms: C_4  and  C_5
REMARK    6  A    between atoms: C_8  and  C_9
REMARK    7  A    between atoms: C_9  and  N_10
REMARK    8  A    between atoms: N_10  and  C_11
REMARK    9  A    between atoms: C_12  and  C_14
REMARK                            x       y       z     vdW  Elec       q    Type
REMARK                         _______ _______ _______ _____ _____    ______ ____
ROOT
ATOM      1  C   UNL     1      44.573   6.191  12.082  0.00  0.00    +0.000 A 
ATOM      2  C   UNL     1      45.279   7.381  11.856  0.00  0.00    +0.000 A 
ATOM      3  C   UNL     1      46.522   7.605  12.452  0.00  0.00    +0.000 A 
ATOM      4  C   UNL     1      47.111   6.628  13.264  0.00  0.00    +0.000 A 
ATOM      5  C   UNL     1      46.373   5.471  13.558  0.00  0.00    +0.000 A 
ATOM      6  C   UNL     1      45.113   5.255  12.974  0.00  0.00    +0.000 A 
ENDROOT
BRANCH   1   7
ATOM      7  C   UNL     1      43.268   5.938  11.351  0.00  0.00    +0.000 C 
BRANCH   7   8
ATOM      8  N   UNL     1      43.489   5.036  10.222  0.00  0.00    +0.000 NA
ATOM      9  H   UNL     1      44.007   5.550   9.506  0.00  0.00    +0.000 HD
BRANCH   8  11
ATOM     10  C   UNL     1      43.423   2.676  11.104  0.00  0.00    +0.000 C 
ATOM     11  C   UNL     1      44.267   3.819  10.529  0.00  0.00    +0.000 C 
BRANCH  11  12
ATOM     12  C   UNL     1      45.016   3.378   9.263  0.00  0.00    +0.000 A 
ATOM     13  C   UNL     1      45.491   4.324   8.347  0.00  0.00    +0.000 A 
ATOM     14  C   UNL     1      46.337   3.915   7.314  0.00  0.00    +0.000 A 
ATOM     15  C   UNL     1      46.674   2.574   7.210  0.00  0.00    +0.000 A 
ATOM     16 CL   UNL     1      47.757   2.034   5.993  0.00  0.00    +0.000 Cl
ATOM     17  C   UNL     1      46.135   1.690   8.131  0.00  0.00    +0.000 A 
ATOM     18  N   UNL     1      45.319   2.058   9.151  0.00  0.00    +0.000 NA
ENDBRANCH  11  12
ENDBRANCH   8  11
ENDBRANCH   7   8
ENDBRANCH   1   7
BRANCH   4  19
ATOM     19  C   UNL     1      48.566   6.749  13.670  0.00  0.00    +0.000 C 
BRANCH  19  20
ATOM     20  N   UNL     1      48.843   7.302  14.988  0.00  0.00    +0.000 N 
ATOM     21  C   UNL     1      49.389   8.648  15.068  0.00  0.00    +0.000 C 
ATOM     22  C   UNL     1      48.881   6.407  16.081  0.00  0.00    +0.000 C 
ATOM     23  O   UNL     1      48.709   5.201  15.921  0.00  0.00    +0.000 OA
BRANCH  22  24
ATOM     24  C   UNL     1      49.124   6.947  17.436  0.00  0.00    +0.000 A 
ATOM     25  N   UNL     1      48.181   7.612  18.143  0.00  0.00    +0.000 NA
ATOM     26  N   UNL     1      48.776   7.876  19.320  0.00  0.00    +0.000 N 
ATOM     27  C   UNL     1      50.039   7.386  19.423  0.00  0.00    +0.000 A 
ATOM     28  N   UNL     1      50.835   7.469  20.504  0.00  0.00    +0.000 NA
ATOM     29  C   UNL     1      52.042   6.882  20.317  0.00  0.00    +0.000 A 
ATOM     30  C   UNL     1      52.474   6.286  19.142  0.00  0.00    +0.000 A 
ATOM     31  C   UNL     1      51.601   6.252  18.059  0.00  0.00    +0.000 A 
ATOM     32  F   UNL     1      52.011   5.710  16.908  0.00  0.00    +0.000 F 
ATOM     33  C   UNL     1      50.320   6.797  18.202  0.00  0.00    +0.000 A 
ATOM     34  H   UNL     1      48.264   8.389  20.027  0.00  0.00    +0.000 HD
ENDBRANCH  22  24
ENDBRANCH  19  20
ENDBRANCH   4  19
TORSDOF 7
ENDMDL
MODEL 6
REMARK VINA RESULT:    -7.438      3.626      5.037
REMARK INTER + INTRA:         -11.226
REMARK INTER:                  -9.977
REMARK INTRA:                  -1.249
REMARK UNBOUND:                -0.743
REMARK  Name = 
REMARK  9 active torsions:
REMARK  status: ('A' for Active; 'I' for Inactive)
REMARK    1  A    between atoms: C_1  and  C_2
REMARK    2  A    between atoms: C_2  and  N_3
REMARK    3  A    between atoms: C_2  and  C_26
REMARK    4  A    between atoms: N_3  and  C_4
REMARK    5  A    between atoms: C_4  and  C_5
REMARK    6  A    between atoms: C_8  and  C_9
REMARK    7  A    between atoms: C_9  and  N_10
REMARK    8  A    between atoms: N_10  and  C_11
REMARK    9  A    between atoms: C_12  and  C_14
REMARK                            x       y       z     vdW  Elec       q    Type
REMARK                         _______ _______ _______ _____ _____    ______ ____
ROOT
ATOM      1  C   UNL     1      45.690   5.348  12.966  0.00  0.00    +0.000 A 
ATOM      2  C   UNL     1      47.052   5.229  13.278  0.00  0.00    +0.000 A 
ATOM      3  C   UNL     1      47.856   6.359  13.440  0.00  0.00    +0.000 A 
ATOM      4  C   UNL     1      47.310   7.645  13.331  0.00  0.00    +0.000 A 
ATOM      5  C   UNL     1      45.968   7.769  12.940  0.00  0.00    +0.000 A 
ATOM      6  C   UNL     1      45.165   6.630  12.758  0.00  0.00    +0.000 A 
ENDROOT
BRANCH   1   7
ATOM      7  C   UNL     1      44.824   4.106  12.884  0.00  0.00    +0.000 C 
BRANCH   7   8
ATOM      8  N   UNL     1      45.239   3.275  11.755  0.00  0.00    +0.000 NA
ATOM      9  H   UNL     1      45.381   2.323  12.100  0.00  0.00    +0.000 HD
BRANCH   8  11
ATOM     10  C   UNL     1      43.346   4.409  10.538  0.00  0.00    +0.000 C 
ATOM     11  C   UNL     1      44.274   3.193  10.642  0.00  0.00    +0.000 C 
BRANCH  11  12
ATOM     12  C   UNL     1      45.044   2.965   9.333  0.00  0.00    +0.000 A 
ATOM     13  C   UNL     1      45.426   4.046   8.531  0.00  0.00    +0.000 A 
ATOM     14  C   UNL     1      46.292   3.832   7.457  0.00  0.00    +0.000 A 
ATOM     15  C   UNL     1      46.743   2.546   7.201  0.00  0.00    +0.000 A 
ATOM     16 CL   UNL     1      47.855   2.243   5.928  0.00  0.00    +0.000 Cl
ATOM     17  C   UNL     1      46.292   1.519   8.015  0.00  0.00    +0.000 A 
ATOM     18  N   UNL     1      45.458   1.697   9.071  0.00  0.00    +0.000 NA
ENDBRANCH  11  12
ENDBRANCH   8  11
ENDBRANCH   7   8
ENDBRANCH   1   7
BRANCH   4  19
ATOM     19  C   UNL     1      48.105   8.851  13.787  0.00  0.00    +0.000 C 
BRANCH  19  20
ATOM     20  N   UNL     1      49.153   9.330  12.896  0.00  0.00    +0.000 N 
ATOM     21  C   UNL     1      48.771   9.791  11.571  0.00  0.00    +0.000 C 
ATOM     22  C   UNL     1      50.491   9.019  13.230  0.00  0.00    +0.000 C 
ATOM     23  O   UNL     1      50.758   8.349  14.225  0.00  0.00    +0.000 OA
BRANCH  22  24
ATOM     24  C   UNL     1      51.577   9.523  12.363  0.00  0.00    +0.000 A 
ATOM     25  N   UNL     1      52.256  10.664  12.623  0.00  0.00    +0.000 NA
ATOM     26  N   UNL     1      53.178  10.731  11.646  0.00  0.00    +0.000 N 
ATOM     27  C   UNL     1      53.153   9.675  10.790  0.00  0.00    +0.000 A 
ATOM     28  N   UNL     1      53.991   9.471   9.759  0.00  0.00    +0.000 NA
ATOM     29  C   UNL     1      53.730   8.326   9.084  0.00  0.00    +0.000 A 
ATOM     30  C   UNL     1      52.693   7.447   9.360  0.00  0.00    +0.000 A 
ATOM     31  C   UNL     1      51.855   7.732  10.434  0.00  0.00    +0.000 A 
ATOM     32  F   UNL     1      50.830   6.914  10.696  0.00  0.00    +0.000 F 
ATOM     33  C   UNL     1      52.101   8.875  11.203  0.00  0.00    +0.000 A 
ATOM     34  H   UNL     1      53.811  11.520  11.617  0.00  0.00    +0.000 HD
ENDBRANCH  22  24
ENDBRANCH  19  20
ENDBRANCH   4  19
TORSDOF 7
ENDMDL
MODEL 7
REMARK VINA RESULT:    -7.279      1.833      2.321
REMARK INTER + INTRA:         -11.002
REMARK INTER:                 -10.597
REMARK INTRA:                  -0.405
REMARK UNBOUND:                -0.743
REMARK  Name = 
REMARK  9 active torsions:
REMARK  status: ('A' for Active; 'I' for Inactive)
REMARK    1  A    between atoms: C_1  and  C_2
REMARK    2  A    between atoms: C_2  and  N_3
REMARK    3  A    between atoms: C_2  and  C_26
REMARK    4  A    between atoms: N_3  and  C_4
REMARK    5  A    between atoms: C_4  and  C_5
REMARK    6  A    between atoms: C_8  and  C_9
REMARK    7  A    between atoms: C_9  and  N_10
REMARK    8  A    between atoms: N_10  and  C_11
REMARK    9  A    between atoms: C_12  and  C_14
REMARK                            x       y       z     vdW  Elec       q    Type
REMARK                         _______ _______ _______ _____ _____    ______ ____
ROOT
ATOM      1  C   UNL     1      45.652   7.205  12.235  0.00  0.00    +0.000 A 
ATOM      2  C   UNL     1      46.727   6.335  12.007  0.00  0.00    +0.000 A 
ATOM      3  C   UNL     1      47.930   6.478  12.703  0.00  0.00    +0.000 A 
ATOM      4  C   UNL     1      48.078   7.476  13.675  0.00  0.00    +0.000 A 
ATOM      5  C   UNL     1      47.034   8.398  13.849  0.00  0.00    +0.000 A 
ATOM      6  C   UNL     1      45.832   8.265  13.134  0.00  0.00    +0.000 A 
ENDROOT
BRANCH   1   7
ATOM      7  C   UNL     1      44.329   6.970  11.531  0.00  0.00    +0.000 C 
BRANCH   7   8
ATOM      8  N   UNL     1      44.511   6.048  10.411  0.00  0.00    +0.000 NA
ATOM      9  H   UNL     1      45.421   6.244   9.987  0.00  0.00    +0.000 HD
BRANCH   8  11
ATOM     10  C   UNL     1      43.123   4.101  11.208  0.00  0.00    +0.000 C 
ATOM     11  C   UNL     1      44.497   4.615  10.763  0.00  0.00    +0.000 C 
BRANCH  11  12
ATOM     12  C   UNL     1      45.037   3.807   9.574  0.00  0.00    +0.000 A 
ATOM     13  C   UNL     1      45.703   4.444   8.520  0.00  0.00    +0.000 A 
ATOM     14  C   UNL     1      46.355   3.674   7.556  0.00  0.00    +0.000 A 
ATOM     15  C   UNL     1      46.315   2.292   7.656  0.00  0.00    +0.000 A 
ATOM     16 CL   UNL     1      47.152   1.306   6.527  0.00  0.00    +0.000 Cl
ATOM     17  C   UNL     1      45.605   1.732   8.705  0.00  0.00    +0.000 A 
ATOM     18  N   UNL     1      44.969   2.453   9.663  0.00  0.00    +0.000 NA
ENDBRANCH  11  12
ENDBRANCH   8  11
ENDBRANCH   7   8
ENDBRANCH   1   7
BRANCH   4  19
ATOM     19  C   UNL     1      49.261   7.449  14.620  0.00  0.00    +0.000 C 
BRANCH  19  20
ATOM     20  N   UNL     1      49.193   6.524  15.742  0.00  0.00    +0.000 N 
ATOM     21  C   UNL     1      48.147   5.514  15.738  0.00  0.00    +0.000 C 
ATOM     22  C   UNL     1      49.917   6.855  16.911  0.00  0.00    +0.000 C 
ATOM     23  O   UNL     1      50.563   7.898  16.984  0.00  0.00    +0.000 OA
BRANCH  22  24
ATOM     24  C   UNL     1      49.895   5.916  18.052  0.00  0.00    +0.000 A 
ATOM     25  N   UNL     1      50.783   4.904  18.190  0.00  0.00    +0.000 NA
ATOM     26  N   UNL     1      50.458   4.337  19.366  0.00  0.00    +0.000 N 
ATOM     27  C   UNL     1      49.431   4.951  20.011  0.00  0.00    +0.000 A 
ATOM     28  N   UNL     1      48.940   4.616  21.217  0.00  0.00    +0.000 NA
ATOM     29  C   UNL     1      47.918   5.413  21.610  0.00  0.00    +0.000 A 
ATOM     30  C   UNL     1      47.370   6.447  20.866  0.00  0.00    +0.000 A 
ATOM     31  C   UNL     1      47.920   6.725  19.618  0.00  0.00    +0.000 A 
ATOM     32  F   UNL     1      47.384   7.697  18.871  0.00  0.00    +0.000 F 
ATOM     33  C   UNL     1      49.011   5.970  19.173  0.00  0.00    +0.000 A 
ATOM     34  H   UNL     1      50.982   3.533  19.688  0.00  0.00    +0.000 HD
ENDBRANCH  22  24
ENDBRANCH  19  20
ENDBRANCH   4  19
TORSDOF 7
ENDMDL
MODEL 8
REMARK VINA RESULT:    -7.133      4.471      7.728
REMARK INTER + INTRA:         -10.796
REMARK INTER:                  -9.904
REMARK INTRA:                  -0.892
REMARK UNBOUND:                -0.743
REMARK  Name = 
REMARK  9 active torsions:
REMARK  status: ('A' for Active; 'I' for Inactive)
REMARK    1  A    between atoms: C_1  and  C_2
REMARK    2  A    between atoms: C_2  and  N_3
REMARK    3  A    between atoms: C_2  and  C_26
REMARK    4  A    between atoms: N_3  and  C_4
REMARK    5  A    between atoms: C_4  and  C_5
REMARK    6  A    between atoms: C_8  and  C_9
REMARK    7  A    between atoms: C_9  and  N_10
REMARK    8  A    between atoms: N_10  and  C_11
REMARK    9  A    between atoms: C_12  and  C_14
REMARK                            x       y       z     vdW  Elec       q    Type
REMARK                         _______ _______ _______ _____ _____    ______ ____
ROOT
ATOM      1  C   UNL     1      49.491   9.935  11.390  0.00  0.00    +0.000 A 
ATOM      2  C   UNL     1      48.296  10.661  11.487  0.00  0.00    +0.000 A 
ATOM      3  C   UNL     1      47.112  10.046  11.902  0.00  0.00    +0.000 A 
ATOM      4  C   UNL     1      47.099   8.694  12.265  0.00  0.00    +0.000 A 
ATOM      5  C   UNL     1      48.274   7.945  12.091  0.00  0.00    +0.000 A 
ATOM      6  C   UNL     1      49.459   8.560  11.656  0.00  0.00    +0.000 A 
ENDROOT
BRANCH   1   7
ATOM      7  C   UNL     1      50.779  10.649  11.023  0.00  0.00    +0.000 C 
BRANCH   7   8
ATOM      8  N   UNL     1      51.828   9.675  10.724  0.00  0.00    +0.000 NA
ATOM      9  H   UNL     1      51.389   8.754  10.652  0.00  0.00    +0.000 HD
BRANCH   8  11
ATOM     10  C   UNL     1      53.815  10.775   9.633  0.00  0.00    +0.000 C 
ATOM     11  C   UNL     1      52.564   9.905   9.466  0.00  0.00    +0.000 C 
BRANCH  11  12
ATOM     12  C   UNL     1      52.908   8.547   8.838  0.00  0.00    +0.000 A 
ATOM     13  C   UNL     1      53.096   7.415   9.640  0.00  0.00    +0.000 A 
ATOM     14  C   UNL     1      53.210   6.160   9.040  0.00  0.00    +0.000 A 
ATOM     15  C   UNL     1      53.148   6.065   7.658  0.00  0.00    +0.000 A 
ATOM     16 CL   UNL     1      53.224   4.537   6.878  0.00  0.00    +0.000 Cl
ATOM     17  C   UNL     1      52.998   7.233   6.927  0.00  0.00    +0.000 A 
ATOM     18  N   UNL     1      52.875   8.466   7.481  0.00  0.00    +0.000 NA
ENDBRANCH  11  12
ENDBRANCH   8  11
ENDBRANCH   7   8
ENDBRANCH   1   7
BRANCH   4  19
ATOM     19  C   UNL     1      45.899   8.108  12.980  0.00  0.00    +0.000 C 
BRANCH  19  20
ATOM     20  N   UNL     1      45.266   6.947  12.371  0.00  0.00    +0.000 N 
ATOM     21  C   UNL     1      44.067   7.155  11.575  0.00  0.00    +0.000 C 
ATOM     22  C   UNL     1      45.645   5.669  12.845  0.00  0.00    +0.000 C 
ATOM     23  O   UNL     1      46.462   5.545  13.753  0.00  0.00    +0.000 OA
BRANCH  22  24
ATOM     24  C   UNL     1      45.045   4.471  12.219  0.00  0.00    +0.000 A 
ATOM     25  N   UNL     1      44.338   3.553  12.917  0.00  0.00    +0.000 NA
ATOM     26  N   UNL     1      43.927   2.673  11.985  0.00  0.00    +0.000 N 
ATOM     27  C   UNL     1      44.301   2.996  10.718  0.00  0.00    +0.000 A 
ATOM     28  N   UNL     1      43.985   2.317   9.602  0.00  0.00    +0.000 NA
ATOM     29  C   UNL     1      44.493   2.880   8.480  0.00  0.00    +0.000 A 
ATOM     30  C   UNL     1      45.297   4.009   8.438  0.00  0.00    +0.000 A 
ATOM     31  C   UNL     1      45.596   4.651   9.636  0.00  0.00    +0.000 A 
ATOM     32  F   UNL     1      46.395   5.723   9.619  0.00  0.00    +0.000 F 
ATOM     33  C   UNL     1      45.061   4.149  10.827  0.00  0.00    +0.000 A 
ATOM     34  H   UNL     1      43.381   1.871  12.270  0.00  0.00    +0.000 HD
ENDBRANCH  22  24
ENDBRANCH  19  20
ENDBRANCH   4  19
TORSDOF 7
ENDMDL
MODEL 9
REMARK VINA RESULT:    -7.121      3.004      8.219
REMARK INTER + INTRA:         -10.778
REMARK INTER:                  -9.664
REMARK INTRA:                  -1.114
REMARK UNBOUND:                -0.743
REMARK  Name = 
REMARK  9 active torsions:
REMARK  status: ('A' for Active; 'I' for Inactive)
REMARK    1  A    between atoms: C_1  and  C_2
REMARK    2  A    between atoms: C_2  and  N_3
REMARK    3  A    between atoms: C_2  and  C_26
REMARK    4  A    between atoms: N_3  and  C_4
REMARK    5  A    between atoms: C_4  and  C_5
REMARK    6  A    between atoms: C_8  and  C_9
REMARK    7  A    between atoms: C_9  and  N_10
REMARK    8  A    between atoms: N_10  and  C_11
REMARK    9  A    between atoms: C_12  and  C_14
REMARK                            x       y       z     vdW  Elec       q    Type
REMARK                         _______ _______ _______ _____ _____    ______ ____
ROOT
ATOM      1  C   UNL     1      50.199   8.740  14.905  0.00  0.00    +0.000 A 
ATOM      2  C   UNL     1      48.981   8.922  15.574  0.00  0.00    +0.000 A 
ATOM      3  C   UNL     1      47.772   8.948  14.874  0.00  0.00    +0.000 A 
ATOM      4  C   UNL     1      47.746   8.757  13.488  0.00  0.00    +0.000 A 
ATOM      5  C   UNL     1      48.968   8.655  12.804  0.00  0.00    +0.000 A 
ATOM      6  C   UNL     1      50.185   8.649  13.507  0.00  0.00    +0.000 A 
ENDROOT
BRANCH   1   7
ATOM      7  C   UNL     1      51.486   8.626  15.700  0.00  0.00    +0.000 C 
BRANCH   7   8
ATOM      8  N   UNL     1      51.289   7.754  16.857  0.00  0.00    +0.000 NA
ATOM      9  H   UNL     1      50.293   7.762  17.090  0.00  0.00    +0.000 HD
BRANCH   8  11
ATOM     10  C   UNL     1      52.982   5.957  17.366  0.00  0.00    +0.000 C 
ATOM     11  C   UNL     1      51.677   6.344  16.660  0.00  0.00    +0.000 C 
BRANCH  11  12
ATOM     12  C   UNL     1      50.514   5.444  17.102  0.00  0.00    +0.000 A 
ATOM     13  C   UNL     1      49.239   5.978  17.322  0.00  0.00    +0.000 A 
ATOM     14  C   UNL     1      48.161   5.116  17.528  0.00  0.00    +0.000 A 
ATOM     15  C   UNL     1      48.381   3.747  17.525  0.00  0.00    +0.000 A 
ATOM     16 CL   UNL     1      47.076   2.648  17.715  0.00  0.00    +0.000 Cl
ATOM     17  C   UNL     1      49.677   3.293  17.339  0.00  0.00    +0.000 A 
ATOM     18  N   UNL     1      50.744   4.104  17.127  0.00  0.00    +0.000 NA
ENDBRANCH  11  12
ENDBRANCH   8  11
ENDBRANCH   7   8
ENDBRANCH   1   7
BRANCH   4  19
ATOM     19  C   UNL     1      46.432   8.499  12.778  0.00  0.00    +0.000 C 
BRANCH  19  20
ATOM     20  N   UNL     1      46.023   7.111  12.623  0.00  0.00    +0.000 N 
ATOM     21  C   UNL     1      46.981   6.070  12.960  0.00  0.00    +0.000 C 
ATOM     22  C   UNL     1      44.865   6.849  11.856  0.00  0.00    +0.000 C 
ATOM     23  O   UNL     1      44.239   7.760  11.320  0.00  0.00    +0.000 OA
BRANCH  22  24
ATOM     24  C   UNL     1      44.407   5.451  11.712  0.00  0.00    +0.000 A 
ATOM     25  N   UNL     1      43.611   4.840  12.621  0.00  0.00    +0.000 NA
ATOM     26  N   UNL     1      43.384   3.622  12.096  0.00  0.00    +0.000 N 
ATOM     27  C   UNL     1      43.961   3.428  10.881  0.00  0.00    +0.000 A 
ATOM     28  N   UNL     1      43.854   2.323  10.121  0.00  0.00    +0.000 NA
ATOM     29  C   UNL     1      44.534   2.419   8.953  0.00  0.00    +0.000 A 
ATOM     30  C   UNL     1      45.308   3.499   8.557  0.00  0.00    +0.000 A 
ATOM     31  C   UNL     1      45.385   4.601   9.404  0.00  0.00    +0.000 A 
ATOM     32  F   UNL     1      46.152   5.639   9.054  0.00  0.00    +0.000 F 
ATOM     33  C   UNL     1      44.666   4.587  10.604  0.00  0.00    +0.000 A 
ATOM     34  H   UNL     1      42.815   2.963  12.610  0.00  0.00    +0.000 HD
ENDBRANCH  22  24
ENDBRANCH  19  20
ENDBRANCH   4  19
TORSDOF 7
ENDMDL
