MODEL 1
REMARK VINA RESULT:    -8.182      0.000      0.000
REMARK INTER + INTRA:         -12.425
REMARK INTER:                 -11.530
REMARK INTRA:                  -0.895
REMARK UNBOUND:                -0.895
REMARK  Name = 
REMARK  7 active torsions:
REMARK  status: ('A' for Active; 'I' for Inactive)
REMARK    1  A    between atoms: C_2  and  C_4
REMARK    2  A    between atoms: C_7  and  O_8
REMARK    3  A    between atoms: O_8  and  C_9
REMARK    4  A    between atoms: C_9  and  C_10
REMARK    5  A    between atoms: C_10  and  C_11
REMARK    6  A    between atoms: C_15  and  O_16
REMARK    7  A    between atoms: O_16  and  C_17
REMARK                            x       y       z     vdW  Elec       q    Type
REMARK                         _______ _______ _______ _____ _____    ______ ____
ROOT
ATOM      1  C   UNL     1      43.923   3.114  11.737  0.00  0.00    +0.000 C 
ENDROOT
BRANCH   1   2
ATOM      2  O   UNL     1      43.506   3.512  10.423  0.00  0.00    +0.000 OA
BRANCH   2   6
ATOM      3  C   UNL     1      46.396   2.667   7.602  0.00  0.00    +0.000 A 
ATOM      4  C   UNL     1      45.897   3.967   7.708  0.00  0.00    +0.000 A 
ATOM      5  C   UNL     1      44.912   4.244   8.662  0.00  0.00    +0.000 A 
ATOM      6  C   UNL     1      44.465   3.210   9.472  0.00  0.00    +0.000 A 
ATOM      7  N   UNL     1      44.922   1.943   9.375  0.00  0.00    +0.000 NA
ATOM      8  C   UNL     1      45.867   1.695   8.438  0.00  0.00    +0.000 A 
BRANCH   3  10
ATOM      9  N   UNL     1      47.582   3.010   5.510  0.00  0.00    +0.000 N 
ATOM     10  C   UNL     1      47.446   2.264   6.646  0.00  0.00    +0.000 C 
ATOM     11  O   UNL     1      48.201   1.327   6.881  0.00  0.00    +0.000 OA
ATOM     12  H   UNL     1      48.389   2.800   4.935  0.00  0.00    +0.000 HD
ATOM     13  H   UNL     1      47.169   3.928   5.413  0.00  0.00    +0.000 HD
ENDBRANCH   3  10
ENDBRANCH   2   6
ENDBRANCH   1   2
BRANCH   1  14
ATOM     14  C   UNL     1      43.886   4.311  12.689  0.00  0.00    +0.000 C 
BRANCH  14  15
ATOM     15  C   UNL     1      45.259   4.921  12.843  0.00  0.00    +0.000 A 
ATOM     16  C   UNL     1      45.739   5.848  11.910  0.00  0.00    +0.000 A 
ATOM     17  C   UNL     1      46.982   6.458  12.094  0.00  0.00    +0.000 A 
ATOM     18  C   UNL     1      47.762   6.151  13.212  0.00  0.00    +0.000 A 
ATOM     19  C   UNL     1      47.299   5.228  14.145  0.00  0.00    +0.000 A 
ATOM     20  C   UNL     1      46.050   4.624  13.964  0.00  0.00    +0.000 A 
BRANCH  19  21
ATOM     21  O   UNL     1      47.957   4.875  15.296  0.00  0.00    +0.000 OA
BRANCH  21  22
ATOM     22  C   UNL     1      47.236   4.166  16.331  0.00  0.00    +0.000 C 
ATOM     23  C   UNL     1      47.250   4.757  17.755  0.00  0.00    +0.000 C 
ATOM     24  N   UNL     1      47.723   3.477  18.302  0.00  0.00    +0.000 NA
ATOM     25  C   UNL     1      47.999   2.975  16.948  0.00  0.00    +0.000 C 
ATOM     26  H   UNL     1      47.012   2.948  18.804  0.00  0.00    +0.000 HD
ENDBRANCH  21  22
ENDBRANCH  19  21
ENDBRANCH  14  15
ENDBRANCH   1  14
TORSDOF 7
ENDMDL
MODEL 2
REMARK VINA RESULT:    -7.400      2.532      3.411
REMARK INTER + INTRA:         -11.323
REMARK INTER:                 -10.535
REMARK INTRA:                  -0.788
REMARK UNBOUND:                -0.895
REMARK  Name = 
REMARK  7 active torsions:
REMARK  status: ('A' for Active; 'I' for Inactive)
REMARK    1  A    between atoms: C_2  and  C_4
REMARK    2  A    between atoms: C_7  and  O_8
REMARK    3  A    between atoms: O_8  and  C_9
REMARK    4  A    between atoms: C_9  and  C_10
REMARK    5  A    between atoms: C_10  and  C_11
REMARK    6  A    between atoms: C_15  and  O_16
REMARK    7  A    between atoms: O_16  and  C_17
REMARK                            x       y       z     vdW  Elec       q    Type
REMARK                         _______ _______ _______ _____ _____    ______ ____
ROOT
ATOM      1  C   UNL     1      43.196   4.085  11.167  0.00  0.00    +0.000 C 
ENDROOT
BRANCH   1   2
ATOM      2  O   UNL     1      43.561   4.724   9.936  0.00  0.00    +0.000 OA
BRANCH   2   6
ATOM      3  C   UNL     1      46.325   2.477   7.852  0.00  0.00    +0.000 A 
ATOM      4  C   UNL     1      45.532   1.864   8.825  0.00  0.00    +0.000 A 
ATOM      5  C   UNL     1      44.603   2.635   9.533  0.00  0.00    +0.000 A 
ATOM      6  C   UNL     1      44.503   3.987   9.239  0.00  0.00    +0.000 A 
ATOM      7  N   UNL     1      45.270   4.602   8.313  0.00  0.00    +0.000 NA
ATOM      8  C   UNL     1      46.169   3.840   7.648  0.00  0.00    +0.000 A 
BRANCH   3  10
ATOM      9  N   UNL     1      48.309   2.506   6.452  0.00  0.00    +0.000 N 
ATOM     10  C   UNL     1      47.323   1.762   7.034  0.00  0.00    +0.000 C 
ATOM     11  O   UNL     1      47.301   0.541   6.919  0.00  0.00    +0.000 OA
ATOM     12  H   UNL     1      49.055   1.985   6.007  0.00  0.00    +0.000 HD
ATOM     13  H   UNL     1      48.513   3.454   6.739  0.00  0.00    +0.000 HD
ENDBRANCH   3  10
ENDBRANCH   2   6
ENDBRANCH   1   2
BRANCH   1  14
ATOM     14  C   UNL     1      43.278   5.080  12.325  0.00  0.00    +0.000 C 
BRANCH  14  15
ATOM     15  C   UNL     1      44.715   5.364  12.694  0.00  0.00    +0.000 A 
ATOM     16  C   UNL     1      45.517   4.367  13.262  0.00  0.00    +0.000 A 
ATOM     17  C   UNL     1      46.863   4.616  13.541  0.00  0.00    +0.000 A 
ATOM     18  C   UNL     1      47.427   5.863  13.255  0.00  0.00    +0.000 A 
ATOM     19  C   UNL     1      46.639   6.864  12.694  0.00  0.00    +0.000 A 
ATOM     20  C   UNL     1      45.293   6.610  12.408  0.00  0.00    +0.000 A 
BRANCH  19  21
ATOM     21  O   UNL     1      47.087   8.111  12.338  0.00  0.00    +0.000 OA
BRANCH  21  22
ATOM     22  C   UNL     1      48.158   8.717  13.099  0.00  0.00    +0.000 C 
ATOM     23  C   UNL     1      47.901   9.020  14.589  0.00  0.00    +0.000 C 
ATOM     24  N   UNL     1      48.305  10.420  14.394  0.00  0.00    +0.000 NA
ATOM     25  C   UNL     1      48.280  10.247  12.935  0.00  0.00    +0.000 C 
ATOM     26  H   UNL     1      49.224  10.647  14.770  0.00  0.00    +0.000 HD
ENDBRANCH  21  22
ENDBRANCH  19  21
ENDBRANCH  14  15
ENDBRANCH   1  14
TORSDOF 7
ENDMDL
MODEL 3
REMARK VINA RESULT:    -7.030      1.966      8.325
REMARK INTER + INTRA:         -10.802
REMARK INTER:                 -10.207
REMARK INTRA:                  -0.595
REMARK UNBOUND:                -0.895
REMARK  Name = 
REMARK  7 active torsions:
REMARK  status: ('A' for Active; 'I' for Inactive)
REMARK    1  A    between atoms: C_2  and  C_4
REMARK    2  A    between atoms: C_7  and  O_8
REMARK    3  A    between atoms: O_8  and  C_9
REMARK    4  A    between atoms: C_9  and  C_10
REMARK    5  A    between atoms: C_10  and  C_11
REMARK    6  A    between atoms: C_15  and  O_16
REMARK    7  A    between atoms: O_16  and  C_17
REMARK                            x       y       z     vdW  Elec       q    Type
REMARK                         _______ _______ _______ _____ _____    ______ ____
ROOT
ATOM      1  C   UNL     1      45.645   5.937  12.687  0.00  0.00    +0.000 C 
ENDROOT
BRANCH   1   2
ATOM      2  O   UNL     1      47.035   6.165  12.957  0.00  0.00    +0.000 OA
BRANCH   2   6
ATOM      3  C   UNL     1      48.155   4.503  16.565  0.00  0.00    +0.000 A 
ATOM      4  C   UNL     1      47.149   3.895  15.808  0.00  0.00    +0.000 A 
ATOM      5  C   UNL     1      46.770   4.469  14.590  0.00  0.00    +0.000 A 
ATOM      6  C   UNL     1      47.412   5.627  14.176  0.00  0.00    +0.000 A 
ATOM      7  N   UNL     1      48.374   6.240  14.898  0.00  0.00    +0.000 NA
ATOM      8  C   UNL     1      48.718   5.673  16.079  0.00  0.00    +0.000 A 
BRANCH   3  10
ATOM      9  N   UNL     1      48.044   4.436  18.990  0.00  0.00    +0.000 N 
ATOM     10  C   UNL     1      48.646   3.978  17.853  0.00  0.00    +0.000 C 
ATOM     11  O   UNL     1      49.528   3.127  17.904  0.00  0.00    +0.000 OA
ATOM     12  H   UNL     1      48.304   3.968  19.850  0.00  0.00    +0.000 HD
ATOM     13  H   UNL     1      47.156   4.919  18.975  0.00  0.00    +0.000 HD
ENDBRANCH   3  10
ENDBRANCH   2   6
ENDBRANCH   1   2
BRANCH   1  14
ATOM     14  C   UNL     1      45.325   6.287  11.233  0.00  0.00    +0.000 C 
BRANCH  14  15
ATOM     15  C   UNL     1      45.134   5.039  10.405  0.00  0.00    +0.000 A 
ATOM     16  C   UNL     1      44.321   3.995  10.862  0.00  0.00    +0.000 A 
ATOM     17  C   UNL     1      44.096   2.871  10.063  0.00  0.00    +0.000 A 
ATOM     18  C   UNL     1      44.678   2.776   8.796  0.00  0.00    +0.000 A 
ATOM     19  C   UNL     1      45.492   3.806   8.331  0.00  0.00    +0.000 A 
ATOM     20  C   UNL     1      45.710   4.934   9.130  0.00  0.00    +0.000 A 
BRANCH  19  21
ATOM     21  O   UNL     1      46.086   3.840   7.095  0.00  0.00    +0.000 OA
BRANCH  21  22
ATOM     22  C   UNL     1      46.554   2.605   6.504  0.00  0.00    +0.000 C 
ATOM     23  C   UNL     1      47.858   1.992   7.053  0.00  0.00    +0.000 C 
ATOM     24  N   UNL     1      48.425   1.938   5.698  0.00  0.00    +0.000 NA
ATOM     25  C   UNL     1      47.334   2.777   5.183  0.00  0.00    +0.000 C 
ATOM     26  H   UNL     1      48.457   1.003   5.294  0.00  0.00    +0.000 HD
ENDBRANCH  21  22
ENDBRANCH  19  21
ENDBRANCH  14  15
ENDBRANCH   1  14
TORSDOF 7
ENDMDL
MODEL 4
REMARK VINA RESULT:    -6.876      2.517      2.887
REMARK INTER + INTRA:         -10.585
REMARK INTER:                 -10.123
REMARK INTRA:                  -0.462
REMARK UNBOUND:                -0.895
REMARK  Name = 
REMARK  7 active torsions:
REMARK  status: ('A' for Active; 'I' for Inactive)
REMARK    1  A    between atoms: C_2  and  C_4
REMARK    2  A    between atoms: C_7  and  O_8
REMARK    3  A    between atoms: O_8  and  C_9
REMARK    4  A    between atoms: C_9  and  C_10
REMARK    5  A    between atoms: C_10  and  C_11
REMARK    6  A    between atoms: C_15  and  O_16
REMARK    7  A    between atoms: O_16  and  C_17
REMARK                            x       y       z     vdW  Elec       q    Type
REMARK                         _______ _______ _______ _____ _____    ______ ____
ROOT
ATOM      1  C   UNL     1      43.925   4.530  11.430  0.00  0.00    +0.000 C 
ENDROOT
BRANCH   1   2
ATOM      2  O   UNL     1      43.674   4.597  10.018  0.00  0.00    +0.000 OA
BRANCH   2   6
ATOM      3  C   UNL     1      46.318   2.234   7.909  0.00  0.00    +0.000 A 
ATOM      4  C   UNL     1      46.315   3.616   7.704  0.00  0.00    +0.000 A 
ATOM      5  C   UNL     1      45.410   4.409   8.417  0.00  0.00    +0.000 A 
ATOM      6  C   UNL     1      44.545   3.790   9.308  0.00  0.00    +0.000 A 
ATOM      7  N   UNL     1      44.521   2.455   9.509  0.00  0.00    +0.000 NA
ATOM      8  C   UNL     1      45.398   1.705   8.801  0.00  0.00    +0.000 A 
BRANCH   3  10
ATOM      9  N   UNL     1      48.335   1.838   6.615  0.00  0.00    +0.000 N 
ATOM     10  C   UNL     1      47.238   1.303   7.226  0.00  0.00    +0.000 C 
ATOM     11  O   UNL     1      47.053   0.091   7.245  0.00  0.00    +0.000 OA
ATOM     12  H   UNL     1      49.018   1.175   6.269  0.00  0.00    +0.000 HD
ATOM     13  H   UNL     1      48.656   2.778   6.806  0.00  0.00    +0.000 HD
ENDBRANCH   3  10
ENDBRANCH   2   6
ENDBRANCH   1   2
BRANCH   1  14
ATOM     14  C   UNL     1      45.406   4.786  11.716  0.00  0.00    +0.000 C 
BRANCH  14  15
ATOM     15  C   UNL     1      45.650   6.239  12.047  0.00  0.00    +0.000 A 
ATOM     16  C   UNL     1      44.800   7.237  11.553  0.00  0.00    +0.000 A 
ATOM     17  C   UNL     1      44.993   8.572  11.916  0.00  0.00    +0.000 A 
ATOM     18  C   UNL     1      46.034   8.929  12.778  0.00  0.00    +0.000 A 
ATOM     19  C   UNL     1      46.888   7.946  13.272  0.00  0.00    +0.000 A 
ATOM     20  C   UNL     1      46.689   6.609  12.914  0.00  0.00    +0.000 A 
BRANCH  19  21
ATOM     21  O   UNL     1      47.919   8.170  14.149  0.00  0.00    +0.000 OA
BRANCH  21  22
ATOM     22  C   UNL     1      49.093   7.327  14.084  0.00  0.00    +0.000 C 
ATOM     23  C   UNL     1      50.000   7.258  15.329  0.00  0.00    +0.000 C 
ATOM     24  N   UNL     1      51.174   7.611  14.517  0.00  0.00    +0.000 NA
ATOM     25  C   UNL     1      50.310   7.969  13.384  0.00  0.00    +0.000 C 
ATOM     26  H   UNL     1      51.804   6.832  14.330  0.00  0.00    +0.000 HD
ENDBRANCH  21  22
ENDBRANCH  19  21
ENDBRANCH  14  15
ENDBRANCH   1  14
TORSDOF 7
ENDMDL
MODEL 5
REMARK VINA RESULT:    -6.284      3.131      7.456
REMARK INTER + INTRA:          -9.750
REMARK INTER:                  -9.110
REMARK INTRA:                  -0.640
REMARK UNBOUND:                -0.895
REMARK  Name = 
REMARK  7 active torsions:
REMARK  status: ('A' for Active; 'I' for Inactive)
REMARK    1  A    between atoms: C_2  and  C_4
REMARK    2  A    between atoms: C_7  and  O_8
REMARK    3  A    between atoms: O_8  and  C_9
REMARK    4  A    between atoms: C_9  and  C_10
REMARK    5  A    between atoms: C_10  and  C_11
REMARK    6  A    between atoms: C_15  and  O_16
REMARK    7  A    between atoms: O_16  and  C_17
REMARK                            x       y       z     vdW  Elec       q    Type
REMARK                         _______ _______ _______ _____ _____    ______ ____
ROOT
ATOM      1  C   UNL     1      44.760   5.854  12.574  0.00  0.00    +0.000 C 
ENDROOT
BRANCH   1   2
ATOM      2  O   UNL     1      45.129   7.223  12.798  0.00  0.00    +0.000 OA
BRANCH   2   6
ATOM      3  C   UNL     1      49.160   7.883  12.211  0.00  0.00    +0.000 A 
ATOM      4  C   UNL     1      48.246   8.898  11.918  0.00  0.00    +0.000 A 
ATOM      5  C   UNL     1      46.881   8.664  12.112  0.00  0.00    +0.000 A 
ATOM      6  C   UNL     1      46.483   7.425  12.593  0.00  0.00    +0.000 A 
ATOM      7  N   UNL     1      47.348   6.425  12.868  0.00  0.00    +0.000 NA
ATOM      8  C   UNL     1      48.664   6.670  12.663  0.00  0.00    +0.000 A 
BRANCH   3  10
ATOM      9  N   UNL     1      51.348   8.280  13.190  0.00  0.00    +0.000 N 
ATOM     10  C   UNL     1      50.622   8.024  12.062  0.00  0.00    +0.000 C 
ATOM     11  O   UNL     1      51.172   7.869  10.977  0.00  0.00    +0.000 OA
ATOM     12  H   UNL     1      52.355   8.242  13.088  0.00  0.00    +0.000 HD
ATOM     13  H   UNL     1      50.970   8.148  14.118  0.00  0.00    +0.000 HD
ENDBRANCH   3  10
ENDBRANCH   2   6
ENDBRANCH   1   2
BRANCH   1  14
ATOM     14  C   UNL     1      43.925   5.734  11.299  0.00  0.00    +0.000 C 
BRANCH  14  15
ATOM     15  C   UNL     1      44.322   4.513  10.505  0.00  0.00    +0.000 A 
ATOM     16  C   UNL     1      43.812   3.250  10.833  0.00  0.00    +0.000 A 
ATOM     17  C   UNL     1      44.131   2.135  10.054  0.00  0.00    +0.000 A 
ATOM     18  C   UNL     1      44.962   2.265   8.938  0.00  0.00    +0.000 A 
ATOM     19  C   UNL     1      45.479   3.514   8.604  0.00  0.00    +0.000 A 
ATOM     20  C   UNL     1      45.151   4.631   9.379  0.00  0.00    +0.000 A 
BRANCH  19  21
ATOM     21  O   UNL     1      46.273   3.770   7.514  0.00  0.00    +0.000 OA
BRANCH  21  22
ATOM     22  C   UNL     1      46.618   2.683   6.624  0.00  0.00    +0.000 C 
ATOM     23  C   UNL     1      47.970   1.975   6.842  0.00  0.00    +0.000 C 
ATOM     24  N   UNL     1      48.336   2.200   5.435  0.00  0.00    +0.000 NA
ATOM     25  C   UNL     1      47.205   3.123   5.266  0.00  0.00    +0.000 C 
ATOM     26  H   UNL     1      48.284   1.368   4.851  0.00  0.00    +0.000 HD
ENDBRANCH  21  22
ENDBRANCH  19  21
ENDBRANCH  14  15
ENDBRANCH   1  14
TORSDOF 7
ENDMDL
MODEL 6
REMARK VINA RESULT:    -6.220      3.105      7.530
REMARK INTER + INTRA:          -9.660
REMARK INTER:                  -8.696
REMARK INTRA:                  -0.964
REMARK UNBOUND:                -0.895
REMARK  Name = 
REMARK  7 active torsions:
REMARK  status: ('A' for Active; 'I' for Inactive)
REMARK    1  A    between atoms: C_2  and  C_4
REMARK    2  A    between atoms: C_7  and  O_8
REMARK    3  A    between atoms: O_8  and  C_9
REMARK    4  A    between atoms: C_9  and  C_10
REMARK    5  A    between atoms: C_10  and  C_11
REMARK    6  A    between atoms: C_15  and  O_16
REMARK    7  A    between atoms: O_16  and  C_17
REMARK                            x       y       z     vdW  Elec       q    Type
REMARK                         _______ _______ _______ _____ _____    ______ ____
ROOT
ATOM      1  C   UNL     1      49.568   7.263  13.226  0.00  0.00    +0.000 C 
ENDROOT
BRANCH   1   2
ATOM      2  O   UNL     1      49.041   7.709  14.484  0.00  0.00    +0.000 OA
BRANCH   2   6
ATOM      3  C   UNL     1      47.992   4.573  16.953  0.00  0.00    +0.000 A 
ATOM      4  C   UNL     1      48.765   5.620  17.460  0.00  0.00    +0.000 A 
ATOM      5  C   UNL     1      49.123   6.676  16.614  0.00  0.00    +0.000 A 
ATOM      6  C   UNL     1      48.693   6.643  15.296  0.00  0.00    +0.000 A 
ATOM      7  N   UNL     1      47.958   5.634  14.781  0.00  0.00    +0.000 NA
ATOM      8  C   UNL     1      47.632   4.618  15.614  0.00  0.00    +0.000 A 
BRANCH   3  10
ATOM      9  N   UNL     1      48.285   3.088  18.851  0.00  0.00    +0.000 N 
ATOM     10  C   UNL     1      47.542   3.419  17.755  0.00  0.00    +0.000 C 
ATOM     11  O   UNL     1      46.514   2.809  17.479  0.00  0.00    +0.000 OA
ATOM     12  H   UNL     1      47.888   2.381  19.459  0.00  0.00    +0.000 HD
ATOM     13  H   UNL     1      48.966   3.717  19.254  0.00  0.00    +0.000 HD
ENDBRANCH   3  10
ENDBRANCH   2   6
ENDBRANCH   1   2
BRANCH   1  14
ATOM     14  C   UNL     1      49.001   8.109  12.085  0.00  0.00    +0.000 C 
BRANCH  14  15
ATOM     15  C   UNL     1      47.504   7.940  11.979  0.00  0.00    +0.000 A 
ATOM     16  C   UNL     1      46.640   8.975  12.356  0.00  0.00    +0.000 A 
ATOM     17  C   UNL     1      45.259   8.838  12.194  0.00  0.00    +0.000 A 
ATOM     18  C   UNL     1      44.722   7.666  11.653  0.00  0.00    +0.000 A 
ATOM     19  C   UNL     1      45.571   6.628  11.278  0.00  0.00    +0.000 A 
ATOM     20  C   UNL     1      46.954   6.771  11.433  0.00  0.00    +0.000 A 
BRANCH  19  21
ATOM     21  O   UNL     1      45.164   5.449  10.705  0.00  0.00    +0.000 OA
BRANCH  21  22
ATOM     22  C   UNL     1      44.290   4.569  11.450  0.00  0.00    +0.000 C 
ATOM     23  C   UNL     1      44.791   4.036  12.808  0.00  0.00    +0.000 C 
ATOM     24  N   UNL     1      44.525   2.654  12.384  0.00  0.00    +0.000 NA
ATOM     25  C   UNL     1      44.322   3.094  10.996  0.00  0.00    +0.000 C 
ATOM     26  H   UNL     1      43.701   2.235  12.812  0.00  0.00    +0.000 HD
ENDBRANCH  21  22
ENDBRANCH  19  21
ENDBRANCH  14  15
ENDBRANCH   1  14
TORSDOF 7
ENDMDL
MODEL 7
REMARK VINA RESULT:    -6.129      2.311      8.381
REMARK INTER + INTRA:          -9.532
REMARK INTER:                  -9.241
REMARK INTRA:                  -0.291
REMARK UNBOUND:                -0.895
REMARK  Name = 
REMARK  7 active torsions:
REMARK  status: ('A' for Active; 'I' for Inactive)
REMARK    1  A    between atoms: C_2  and  C_4
REMARK    2  A    between atoms: C_7  and  O_8
REMARK    3  A    between atoms: O_8  and  C_9
REMARK    4  A    between atoms: C_9  and  C_10
REMARK    5  A    between atoms: C_10  and  C_11
REMARK    6  A    between atoms: C_15  and  O_16
REMARK    7  A    between atoms: O_16  and  C_17
REMARK                            x       y       z     vdW  Elec       q    Type
REMARK                         _______ _______ _______ _____ _____    ______ ____
ROOT
ATOM      1  C   UNL     1      46.996   4.697  14.861  0.00  0.00    +0.000 C 
ENDROOT
BRANCH   1   2
ATOM      2  O   UNL     1      46.935   3.942  16.080  0.00  0.00    +0.000 OA
BRANCH   2   6
ATOM      3  C   UNL     1      50.710   3.160  17.552  0.00  0.00    +0.000 A 
ATOM      4  C   UNL     1      49.887   2.098  17.168  0.00  0.00    +0.000 A 
ATOM      5  C   UNL     1      48.606   2.371  16.677  0.00  0.00    +0.000 A 
ATOM      6  C   UNL     1      48.199   3.695  16.589  0.00  0.00    +0.000 A 
ATOM      7  N   UNL     1      48.972   4.734  16.969  0.00  0.00    +0.000 NA
ATOM      8  C   UNL     1      50.204   4.447  17.451  0.00  0.00    +0.000 A 
BRANCH   3  10
ATOM      9  N   UNL     1      52.380   3.570  19.267  0.00  0.00    +0.000 N 
ATOM     10  C   UNL     1      52.083   2.992  18.066  0.00  0.00    +0.000 C 
ATOM     11  O   UNL     1      52.914   2.319  17.466  0.00  0.00    +0.000 OA
ATOM     12  H   UNL     1      53.282   3.334  19.663  0.00  0.00    +0.000 HD
ATOM     13  H   UNL     1      51.664   3.894  19.904  0.00  0.00    +0.000 HD
ENDBRANCH   3  10
ENDBRANCH   2   6
ENDBRANCH   1   2
BRANCH   1  14
ATOM     14  C   UNL     1      46.910   3.761  13.655  0.00  0.00    +0.000 C 
BRANCH  14  15
ATOM     15  C   UNL     1      45.623   3.975  12.895  0.00  0.00    +0.000 A 
ATOM     16  C   UNL     1      44.788   5.058  13.194  0.00  0.00    +0.000 A 
ATOM     17  C   UNL     1      43.632   5.289  12.443  0.00  0.00    +0.000 A 
ATOM     18  C   UNL     1      43.295   4.441  11.384  0.00  0.00    +0.000 A 
ATOM     19  C   UNL     1      44.115   3.358  11.080  0.00  0.00    +0.000 A 
ATOM     20  C   UNL     1      45.276   3.134  11.827  0.00  0.00    +0.000 A 
BRANCH  19  21
ATOM     21  O   UNL     1      43.907   2.481  10.044  0.00  0.00    +0.000 OA
BRANCH  21  22
ATOM     22  C   UNL     1      44.407   2.815   8.729  0.00  0.00    +0.000 C 
ATOM     23  C   UNL     1      45.756   2.206   8.295  0.00  0.00    +0.000 C 
ATOM     24  N   UNL     1      46.276   3.542   7.970  0.00  0.00    +0.000 NA
ATOM     25  C   UNL     1      45.131   4.175   8.640  0.00  0.00    +0.000 C 
ATOM     26  H   UNL     1      46.335   3.738   6.972  0.00  0.00    +0.000 HD
ENDBRANCH  21  22
ENDBRANCH  19  21
ENDBRANCH  14  15
ENDBRANCH   1  14
TORSDOF 7
ENDMDL
MODEL 8
REMARK VINA RESULT:    -5.967      2.785      4.402
REMARK INTER + INTRA:          -9.303
REMARK INTER:                  -8.641
REMARK INTRA:                  -0.662
REMARK UNBOUND:                -0.895
REMARK  Name = 
REMARK  7 active torsions:
REMARK  status: ('A' for Active; 'I' for Inactive)
REMARK    1  A    between atoms: C_2  and  C_4
REMARK    2  A    between atoms: C_7  and  O_8
REMARK    3  A    between atoms: O_8  and  C_9
REMARK    4  A    between atoms: C_9  and  C_10
REMARK    5  A    between atoms: C_10  and  C_11
REMARK    6  A    between atoms: C_15  and  O_16
REMARK    7  A    between atoms: O_16  and  C_17
REMARK                            x       y       z     vdW  Elec       q    Type
REMARK                         _______ _______ _______ _____ _____    ______ ____
ROOT
ATOM      1  C   UNL     1      46.738   8.539  12.181  0.00  0.00    +0.000 C 
ENDROOT
BRANCH   1   2
ATOM      2  O   UNL     1      45.881   7.841  13.097  0.00  0.00    +0.000 OA
BRANCH   2   6
ATOM      3  C   UNL     1      44.451   4.362  11.401  0.00  0.00    +0.000 A 
ATOM      4  C   UNL     1      45.043   5.332  10.588  0.00  0.00    +0.000 A 
ATOM      5  C   UNL     1      45.519   6.512  11.169  0.00  0.00    +0.000 A 
ATOM      6  C   UNL     1      45.384   6.676  12.541  0.00  0.00    +0.000 A 
ATOM      7  N   UNL     1      44.801   5.759  13.342  0.00  0.00    +0.000 NA
ATOM      8  C   UNL     1      44.339   4.629  12.757  0.00  0.00    +0.000 A 
BRANCH   3  10
ATOM      9  N   UNL     1      44.484   2.575   9.757  0.00  0.00    +0.000 N 
ATOM     10  C   UNL     1      43.930   3.075  10.901  0.00  0.00    +0.000 C 
ATOM     11  O   UNL     1      43.069   2.451  11.511  0.00  0.00    +0.000 OA
ATOM     12  H   UNL     1      44.207   1.634   9.505  0.00  0.00    +0.000 HD
ATOM     13  H   UNL     1      45.360   2.917   9.385  0.00  0.00    +0.000 HD
ENDBRANCH   3  10
ENDBRANCH   2   6
ENDBRANCH   1   2
BRANCH   1  14
ATOM     14  C   UNL     1      48.200   8.175  12.442  0.00  0.00    +0.000 C 
BRANCH  14  15
ATOM     15  C   UNL     1      48.455   7.984  13.918  0.00  0.00    +0.000 A 
ATOM     16  C   UNL     1      48.455   9.079  14.791  0.00  0.00    +0.000 A 
ATOM     17  C   UNL     1      48.626   8.888  16.164  0.00  0.00    +0.000 A 
ATOM     18  C   UNL     1      48.799   7.603  16.684  0.00  0.00    +0.000 A 
ATOM     19  C   UNL     1      48.806   6.506  15.827  0.00  0.00    +0.000 A 
ATOM     20  C   UNL     1      48.626   6.698  14.452  0.00  0.00    +0.000 A 
BRANCH  19  21
ATOM     21  O   UNL     1      48.931   5.198  16.223  0.00  0.00    +0.000 OA
BRANCH  21  22
ATOM     22  C   UNL     1      47.749   4.366  16.287  0.00  0.00    +0.000 C 
ATOM     23  C   UNL     1      46.915   4.397  17.583  0.00  0.00    +0.000 C 
ATOM     24  N   UNL     1      46.993   2.933  17.690  0.00  0.00    +0.000 NA
ATOM     25  C   UNL     1      48.020   2.888  16.640  0.00  0.00    +0.000 C 
ATOM     26  H   UNL     1      46.130   2.448  17.449  0.00  0.00    +0.000 HD
ENDBRANCH  21  22
ENDBRANCH  19  21
ENDBRANCH  14  15
ENDBRANCH   1  14
TORSDOF 7
ENDMDL
MODEL 9
REMARK VINA RESULT:    -5.818      3.930      6.012
REMARK INTER + INTRA:          -9.094
REMARK INTER:                  -8.013
REMARK INTRA:                  -1.081
REMARK UNBOUND:                -0.895
REMARK  Name = 
REMARK  7 active torsions:
REMARK  status: ('A' for Active; 'I' for Inactive)
REMARK    1  A    between atoms: C_2  and  C_4
REMARK    2  A    between atoms: C_7  and  O_8
REMARK    3  A    between atoms: O_8  and  C_9
REMARK    4  A    between atoms: C_9  and  C_10
REMARK    5  A    between atoms: C_10  and  C_11
REMARK    6  A    between atoms: C_15  and  O_16
REMARK    7  A    between atoms: O_16  and  C_17
REMARK                            x       y       z     vdW  Elec       q    Type
REMARK                         _______ _______ _______ _____ _____    ______ ____
ROOT
ATOM      1  C   UNL     1      49.378   7.522  14.876  0.00  0.00    +0.000 C 
ENDROOT
BRANCH   1   2
ATOM      2  O   UNL     1      48.611   7.820  13.700  0.00  0.00    +0.000 OA
BRANCH   2   6
ATOM      3  C   UNL     1      45.529   5.142  13.106  0.00  0.00    +0.000 A 
ATOM      4  C   UNL     1      45.362   6.478  12.733  0.00  0.00    +0.000 A 
ATOM      5  C   UNL     1      46.409   7.381  12.945  0.00  0.00    +0.000 A 
ATOM      6  C   UNL     1      47.581   6.913  13.520  0.00  0.00    +0.000 A 
ATOM      7  N   UNL     1      47.758   5.630  13.902  0.00  0.00    +0.000 NA
ATOM      8  C   UNL     1      46.729   4.776  13.697  0.00  0.00    +0.000 A 
BRANCH   3  10
ATOM      9  N   UNL     1      44.923   2.873  12.485  0.00  0.00    +0.000 N 
ATOM     10  C   UNL     1      44.502   4.099  12.914  0.00  0.00    +0.000 C 
ATOM     11  O   UNL     1      43.322   4.307  13.176  0.00  0.00    +0.000 OA
ATOM     12  H   UNL     1      44.225   2.139  12.487  0.00  0.00    +0.000 HD
ATOM     13  H   UNL     1      45.893   2.592  12.518  0.00  0.00    +0.000 HD
ENDBRANCH   3  10
ENDBRANCH   2   6
ENDBRANCH   1   2
BRANCH   1  14
ATOM     14  C   UNL     1      48.972   8.450  16.022  0.00  0.00    +0.000 C 
BRANCH  14  15
ATOM     15  C   UNL     1      48.595   7.659  17.251  0.00  0.00    +0.000 A 
ATOM     16  C   UNL     1      47.961   8.280  18.334  0.00  0.00    +0.000 A 
ATOM     17  C   UNL     1      47.556   7.530  19.441  0.00  0.00    +0.000 A 
ATOM     18  C   UNL     1      47.777   6.151  19.482  0.00  0.00    +0.000 A 
ATOM     19  C   UNL     1      48.410   5.522  18.413  0.00  0.00    +0.000 A 
ATOM     20  C   UNL     1      48.808   6.273  17.301  0.00  0.00    +0.000 A 
BRANCH  19  21
ATOM     21  O   UNL     1      48.649   4.173  18.324  0.00  0.00    +0.000 OA
BRANCH  21  22
ATOM     22  C   UNL     1      49.210   3.637  17.102  0.00  0.00    +0.000 C 
ATOM     23  C   UNL     1      48.353   2.644  16.291  0.00  0.00    +0.000 C 
ATOM     24  N   UNL     1      49.450   1.665  16.296  0.00  0.00    +0.000 NA
ATOM     25  C   UNL     1      50.177   2.452  17.302  0.00  0.00    +0.000 C 
ATOM     26  H   UNL     1      49.937   1.577  15.406  0.00  0.00    +0.000 HD
ENDBRANCH  21  22
ENDBRANCH  19  21
ENDBRANCH  14  15
ENDBRANCH   1  14
TORSDOF 7
ENDMDL
