MODEL 1
REMARK VINA RESULT:    -8.327      0.000      0.000
REMARK INTER + INTRA:         -12.297
REMARK INTER:                 -11.247
REMARK INTRA:                  -1.050
REMARK UNBOUND:                -1.050
REMARK  Name = 
REMARK  6 active torsions:
REMARK  status: ('A' for Active; 'I' for Inactive)
REMARK    1  A    between atoms: C_2  and  C_25
REMARK    2  A    between atoms: N_3  and  C_4
REMARK    3  A    between atoms: C_4  and  C_5
REMARK    4  A    between atoms: C_8  and  C_9
REMARK    5  A    between atoms: C_9  and  N_10
REMARK    6  A    between atoms: C_11  and  C_13
REMARK                            x       y       z     vdW  Elec       q    Type
REMARK                         _______ _______ _______ _____ _____    ______ ____
ROOT
ATOM      1  C   UNL     1      44.880   6.152  11.117  0.00  0.00    +0.000 A 
ATOM      2  C   UNL     1      44.418   7.370  11.635  0.00  0.00    +0.000 A 
ATOM      3  C   UNL     1      45.215   8.122  12.504  0.00  0.00    +0.000 A 
ATOM      4  C   UNL     1      46.498   7.680  12.855  0.00  0.00    +0.000 A 
ATOM      5  C   UNL     1      46.951   6.456  12.350  0.00  0.00    +0.000 A 
ATOM      6  C   UNL     1      46.155   5.705  11.481  0.00  0.00    +0.000 A 
ENDROOT
BRANCH   1   7
ATOM      7  C   UNL     1      44.028   5.347  10.173  0.00  0.00    +0.000 C 
BRANCH   7  10
ATOM      8  O   UNL     1      44.449   2.577  10.192  0.00  0.00    +0.000 OA
ATOM      9  C   UNL     1      44.953   3.249   9.299  0.00  0.00    +0.000 C 
ATOM     10  N   UNL     1      44.817   4.618   9.215  0.00  0.00    +0.000 N 
ATOM     11  H   UNL     1      45.272   5.090   8.439  0.00  0.00    +0.000 HD
BRANCH   9  12
ATOM     12  C   UNL     1      45.760   2.617   8.205  0.00  0.00    +0.000 A 
ATOM     13  C   UNL     1      46.099   3.368   7.085  0.00  0.00    +0.000 A 
ATOM     14  C   UNL     1      46.864   2.763   6.093  0.00  0.00    +0.000 A 
ATOM     15  C   UNL     1      47.263   1.441   6.254  0.00  0.00    +0.000 A 
ATOM     16  C   UNL     1      46.875   0.768   7.405  0.00  0.00    +0.000 A 
ATOM     17  N   UNL     1      46.132   1.319   8.390  0.00  0.00    +0.000 NA
ENDBRANCH   9  12
ENDBRANCH   7  10
ENDBRANCH   1   7
BRANCH   4  18
ATOM     18  C   UNL     1      47.365   8.487  13.785  0.00  0.00    +0.000 C 
BRANCH  18  19
ATOM     19  N   UNL     1      47.754   7.720  14.940  0.00  0.00    +0.000 N 
ATOM     20  C   UNL     1      49.014   7.186  15.042  0.00  0.00    +0.000 C 
ATOM     21  O   UNL     1      49.873   7.378  14.184  0.00  0.00    +0.000 OA
ATOM     22  H   UNL     1      47.012   7.369  15.535  0.00  0.00    +0.000 HD
BRANCH  20  23
ATOM     23  C   UNL     1      49.311   6.420  16.260  0.00  0.00    +0.000 A 
ATOM     24  C   UNL     1      50.337   6.835  17.099  0.00  0.00    +0.000 A 
ATOM     25  S   UNL     1      50.514   5.871  18.494  0.00  0.00    +0.000 S 
ATOM     26  C   UNL     1      49.261   4.832  18.001  0.00  0.00    +0.000 A 
ATOM     27  N   UNL     1      48.911   3.755  18.753  0.00  0.00    +0.000 NA
ATOM     28  C   UNL     1      47.967   3.034  18.246  0.00  0.00    +0.000 A 
ATOM     29  N   UNL     1      47.338   3.296  17.056  0.00  0.00    +0.000 N 
ATOM     30  C   UNL     1      47.638   4.387  16.277  0.00  0.00    +0.000 A 
ATOM     31  O   UNL     1      47.031   4.613  15.235  0.00  0.00    +0.000 OA
ATOM     32  C   UNL     1      48.704   5.226  16.798  0.00  0.00    +0.000 A 
ATOM     33  H   UNL     1      46.602   2.695  16.718  0.00  0.00    +0.000 HD
ENDBRANCH  20  23
ENDBRANCH  18  19
ENDBRANCH   4  18
TORSDOF 6
ENDMDL
MODEL 2
REMARK VINA RESULT:    -7.841      2.500      3.048
REMARK INTER + INTRA:         -11.641
REMARK INTER:                 -10.667
REMARK INTRA:                  -0.974
REMARK UNBOUND:                -1.050
REMARK  Name = 
REMARK  6 active torsions:
REMARK  status: ('A' for Active; 'I' for Inactive)
REMARK    1  A    between atoms: C_2  and  C_25
REMARK    2  A    between atoms: N_3  and  C_4
REMARK    3  A    between atoms: C_4  and  C_5
REMARK    4  A    between atoms: C_8  and  C_9
REMARK    5  A    between atoms: C_9  and  N_10
REMARK    6  A    between atoms: C_11  and  C_13
REMARK                            x       y       z     vdW  Elec       q    Type
REMARK                         _______ _______ _______ _____ _____    ______ ____
ROOT
ATOM      1  C   UNL     1      45.524   4.316  12.440  0.00  0.00    +0.000 A 
ATOM      2  C   UNL     1      46.397   3.736  13.371  0.00  0.00    +0.000 A 
ATOM      3  C   UNL     1      47.290   4.529  14.098  0.00  0.00    +0.000 A 
ATOM      4  C   UNL     1      47.313   5.919  13.924  0.00  0.00    +0.000 A 
ATOM      5  C   UNL     1      46.451   6.495  12.983  0.00  0.00    +0.000 A 
ATOM      6  C   UNL     1      45.558   5.703  12.256  0.00  0.00    +0.000 A 
ENDROOT
BRANCH   1   7
ATOM      7  C   UNL     1      44.555   3.465  11.664  0.00  0.00    +0.000 C 
BRANCH   7  10
ATOM      8  O   UNL     1      44.413   4.409   9.029  0.00  0.00    +0.000 OA
ATOM      9  C   UNL     1      45.058   3.392   9.263  0.00  0.00    +0.000 C 
ATOM     10  N   UNL     1      45.171   2.842  10.522  0.00  0.00    +0.000 N 
ATOM     11  H   UNL     1      45.727   1.996  10.619  0.00  0.00    +0.000 HD
BRANCH   9  12
ATOM     12  C   UNL     1      45.793   2.666   8.178  0.00  0.00    +0.000 A 
ATOM     13  C   UNL     1      46.089   3.328   6.991  0.00  0.00    +0.000 A 
ATOM     14  C   UNL     1      46.789   2.636   6.008  0.00  0.00    +0.000 A 
ATOM     15  C   UNL     1      47.167   1.319   6.242  0.00  0.00    +0.000 A 
ATOM     16  C   UNL     1      46.826   0.738   7.455  0.00  0.00    +0.000 A 
ATOM     17  N   UNL     1      46.147   1.374   8.435  0.00  0.00    +0.000 NA
ENDBRANCH   9  12
ENDBRANCH   7  10
ENDBRANCH   1   7
BRANCH   4  18
ATOM     18  C   UNL     1      48.267   6.781  14.708  0.00  0.00    +0.000 C 
BRANCH  18  19
ATOM     19  N   UNL     1      48.079   6.619  16.126  0.00  0.00    +0.000 N 
ATOM     20  C   UNL     1      49.029   5.998  16.898  0.00  0.00    +0.000 C 
ATOM     21  O   UNL     1      50.092   5.601  16.427  0.00  0.00    +0.000 OA
ATOM     22  H   UNL     1      47.137   6.732  16.485  0.00  0.00    +0.000 HD
BRANCH  20  23
ATOM     23  C   UNL     1      48.741   5.883  18.334  0.00  0.00    +0.000 A 
ATOM     24  C   UNL     1      48.975   4.679  18.986  0.00  0.00    +0.000 A 
ATOM     25  S   UNL     1      48.642   4.728  20.657  0.00  0.00    +0.000 S 
ATOM     26  C   UNL     1      48.122   6.344  20.561  0.00  0.00    +0.000 A 
ATOM     27  N   UNL     1      47.669   6.999  21.664  0.00  0.00    +0.000 NA
ATOM     28  C   UNL     1      47.277   8.209  21.442  0.00  0.00    +0.000 A 
ATOM     29  N   UNL     1      47.300   8.825  20.217  0.00  0.00    +0.000 N 
ATOM     30  C   UNL     1      47.774   8.214  19.082  0.00  0.00    +0.000 A 
ATOM     31  O   UNL     1      47.815   8.806  18.008  0.00  0.00    +0.000 OA
ATOM     32  C   UNL     1      48.218   6.845  19.275  0.00  0.00    +0.000 A 
ATOM     33  H   UNL     1      46.984   9.778  20.112  0.00  0.00    +0.000 HD
ENDBRANCH  20  23
ENDBRANCH  18  19
ENDBRANCH   4  18
TORSDOF 6
ENDMDL
MODEL 3
REMARK VINA RESULT:    -7.803      2.104      2.491
REMARK INTER + INTRA:         -11.589
REMARK INTER:                 -10.774
REMARK INTRA:                  -0.815
REMARK UNBOUND:                -1.050
REMARK  Name = 
REMARK  6 active torsions:
REMARK  status: ('A' for Active; 'I' for Inactive)
REMARK    1  A    between atoms: C_2  and  C_25
REMARK    2  A    between atoms: N_3  and  C_4
REMARK    3  A    between atoms: C_4  and  C_5
REMARK    4  A    between atoms: C_8  and  C_9
REMARK    5  A    between atoms: C_9  and  N_10
REMARK    6  A    between atoms: C_11  and  C_13
REMARK                            x       y       z     vdW  Elec       q    Type
REMARK                         _______ _______ _______ _____ _____    ______ ____
ROOT
ATOM      1  C   UNL     1      45.863   5.088  12.561  0.00  0.00    +0.000 A 
ATOM      2  C   UNL     1      46.468   4.443  13.648  0.00  0.00    +0.000 A 
ATOM      3  C   UNL     1      47.343   5.137  14.490  0.00  0.00    +0.000 A 
ATOM      4  C   UNL     1      47.613   6.495  14.274  0.00  0.00    +0.000 A 
ATOM      5  C   UNL     1      47.020   7.134  13.178  0.00  0.00    +0.000 A 
ATOM      6  C   UNL     1      46.145   6.440  12.337  0.00  0.00    +0.000 A 
ENDROOT
BRANCH   1   7
ATOM      7  C   UNL     1      44.913   4.345  11.660  0.00  0.00    +0.000 C 
BRANCH   7  10
ATOM      8  O   UNL     1      43.863   2.415   9.922  0.00  0.00    +0.000 OA
ATOM      9  C   UNL     1      44.957   2.909   9.671  0.00  0.00    +0.000 C 
ATOM     10  N   UNL     1      45.562   3.851  10.474  0.00  0.00    +0.000 N 
ATOM     11  H   UNL     1      46.472   4.203  10.186  0.00  0.00    +0.000 HD
BRANCH   9  12
ATOM     12  C   UNL     1      45.726   2.526   8.442  0.00  0.00    +0.000 A 
ATOM     13  C   UNL     1      45.895   3.457   7.424  0.00  0.00    +0.000 A 
ATOM     14  C   UNL     1      46.629   3.081   6.303  0.00  0.00    +0.000 A 
ATOM     15  C   UNL     1      47.163   1.800   6.239  0.00  0.00    +0.000 A 
ATOM     16  C   UNL     1      46.940   0.935   7.302  0.00  0.00    +0.000 A 
ATOM     17  N   UNL     1      46.234   1.261   8.407  0.00  0.00    +0.000 NA
ENDBRANCH   9  12
ENDBRANCH   7  10
ENDBRANCH   1   7
BRANCH   4  18
ATOM     18  C   UNL     1      48.549   7.251  15.179  0.00  0.00    +0.000 C 
BRANCH  18  19
ATOM     19  N   UNL     1      49.607   6.406  15.667  0.00  0.00    +0.000 N 
ATOM     20  C   UNL     1      49.654   6.020  16.982  0.00  0.00    +0.000 C 
ATOM     21  O   UNL     1      48.777   6.334  17.784  0.00  0.00    +0.000 OA
ATOM     22  H   UNL     1      50.438   6.326  15.091  0.00  0.00    +0.000 HD
BRANCH  20  23
ATOM     23  C   UNL     1      50.775   5.157  17.378  0.00  0.00    +0.000 A 
ATOM     24  C   UNL     1      51.954   5.732  17.836  0.00  0.00    +0.000 A 
ATOM     25  S   UNL     1      53.134   4.594  18.305  0.00  0.00    +0.000 S 
ATOM     26  C   UNL     1      52.133   3.292  17.865  0.00  0.00    +0.000 A 
ATOM     27  N   UNL     1      52.560   2.007  17.993  0.00  0.00    +0.000 NA
ATOM     28  C   UNL     1      51.712   1.121  17.591  0.00  0.00    +0.000 A 
ATOM     29  N   UNL     1      50.472   1.402  17.077  0.00  0.00    +0.000 N 
ATOM     30  C   UNL     1      49.987   2.682  16.954  0.00  0.00    +0.000 A 
ATOM     31  O   UNL     1      48.859   2.897  16.524  0.00  0.00    +0.000 OA
ATOM     32  C   UNL     1      50.908   3.720  17.382  0.00  0.00    +0.000 A 
ATOM     33  H   UNL     1      49.853   0.660  16.786  0.00  0.00    +0.000 HD
ENDBRANCH  20  23
ENDBRANCH  18  19
ENDBRANCH   4  18
TORSDOF 6
ENDMDL
MODEL 4
REMARK VINA RESULT:    -7.790      1.841      2.332
REMARK INTER + INTRA:         -11.572
REMARK INTER:                 -10.553
REMARK INTRA:                  -1.020
REMARK UNBOUND:                -1.050
REMARK  Name = 
REMARK  6 active torsions:
REMARK  status: ('A' for Active; 'I' for Inactive)
REMARK    1  A    between atoms: C_2  and  C_25
REMARK    2  A    between atoms: N_3  and  C_4
REMARK    3  A    between atoms: C_4  and  C_5
REMARK    4  A    between atoms: C_8  and  C_9
REMARK    5  A    between atoms: C_9  and  N_10
REMARK    6  A    between atoms: C_11  and  C_13
REMARK                            x       y       z     vdW  Elec       q    Type
REMARK                         _______ _______ _______ _____ _____    ______ ____
ROOT
ATOM      1  C   UNL     1      44.870   5.023  11.914  0.00  0.00    +0.000 A 
ATOM      2  C   UNL     1      45.985   4.996  12.763  0.00  0.00    +0.000 A 
ATOM      3  C   UNL     1      46.568   6.186  13.210  0.00  0.00    +0.000 A 
ATOM      4  C   UNL     1      46.035   7.426  12.833  0.00  0.00    +0.000 A 
ATOM      5  C   UNL     1      44.931   7.452  11.973  0.00  0.00    +0.000 A 
ATOM      6  C   UNL     1      44.347   6.263  11.527  0.00  0.00    +0.000 A 
ENDROOT
BRANCH   1   7
ATOM      7  C   UNL     1      44.234   3.744  11.441  0.00  0.00    +0.000 C 
BRANCH   7  10
ATOM      8  O   UNL     1      44.047   4.274   8.696  0.00  0.00    +0.000 OA
ATOM      9  C   UNL     1      44.857   3.440   9.087  0.00  0.00    +0.000 C 
ATOM     10  N   UNL     1      45.009   3.099  10.413  0.00  0.00    +0.000 N 
ATOM     11  H   UNL     1      45.706   2.395  10.643  0.00  0.00    +0.000 HD
BRANCH   9  12
ATOM     12  C   UNL     1      45.765   2.724   8.133  0.00  0.00    +0.000 A 
ATOM     13  C   UNL     1      46.253   3.398   7.019  0.00  0.00    +0.000 A 
ATOM     14  C   UNL     1      47.109   2.716   6.160  0.00  0.00    +0.000 A 
ATOM     15  C   UNL     1      47.447   1.398   6.441  0.00  0.00    +0.000 A 
ATOM     16  C   UNL     1      46.909   0.805   7.575  0.00  0.00    +0.000 A 
ATOM     17  N   UNL     1      46.074   1.431   8.434  0.00  0.00    +0.000 NA
ENDBRANCH   9  12
ENDBRANCH   7  10
ENDBRANCH   1   7
BRANCH   4  18
ATOM     18  C   UNL     1      46.653   8.712  13.315  0.00  0.00    +0.000 C 
BRANCH  18  19
ATOM     19  N   UNL     1      47.160   8.582  14.656  0.00  0.00    +0.000 N 
ATOM     20  C   UNL     1      48.271   9.278  15.063  0.00  0.00    +0.000 C 
ATOM     21  O   UNL     1      48.848  10.070  14.323  0.00  0.00    +0.000 OA
ATOM     22  H   UNL     1      46.843   7.784  15.197  0.00  0.00    +0.000 HD
BRANCH  20  23
ATOM     23  C   UNL     1      48.706   9.075  16.451  0.00  0.00    +0.000 A 
ATOM     24  C   UNL     1      48.763  10.159  17.318  0.00  0.00    +0.000 A 
ATOM     25  S   UNL     1      49.233   9.745  18.903  0.00  0.00    +0.000 S 
ATOM     26  C   UNL     1      49.428   8.110  18.477  0.00  0.00    +0.000 A 
ATOM     27  N   UNL     1      49.849   7.195  19.392  0.00  0.00    +0.000 NA
ATOM     28  C   UNL     1      49.985   5.999  18.925  0.00  0.00    +0.000 A 
ATOM     29  N   UNL     1      49.733   5.633  17.628  0.00  0.00    +0.000 N 
ATOM     30  C   UNL     1      49.281   6.516  16.677  0.00  0.00    +0.000 A 
ATOM     31  O   UNL     1      49.031   6.148  15.533  0.00  0.00    +0.000 OA
ATOM     32  C   UNL     1      49.122   7.880  17.148  0.00  0.00    +0.000 A 
ATOM     33  H   UNL     1      49.854   4.677  17.328  0.00  0.00    +0.000 HD
ENDBRANCH  20  23
ENDBRANCH  18  19
ENDBRANCH   4  18
TORSDOF 6
ENDMDL
MODEL 5
REMARK VINA RESULT:    -7.381      2.714      3.745
REMARK INTER + INTRA:         -11.020
REMARK INTER:                 -10.034
REMARK INTRA:                  -0.986
REMARK UNBOUND:                -1.050
REMARK  Name = 
REMARK  6 active torsions:
REMARK  status: ('A' for Active; 'I' for Inactive)
REMARK    1  A    between atoms: C_2  and  C_25
REMARK    2  A    between atoms: N_3  and  C_4
REMARK    3  A    between atoms: C_4  and  C_5
REMARK    4  A    between atoms: C_8  and  C_9
REMARK    5  A    between atoms: C_9  and  N_10
REMARK    6  A    between atoms: C_11  and  C_13
REMARK                            x       y       z     vdW  Elec       q    Type
REMARK                         _______ _______ _______ _____ _____    ______ ____
ROOT
ATOM      1  C   UNL     1      45.789   5.347  12.152  0.00  0.00    +0.000 A 
ATOM      2  C   UNL     1      46.748   6.321  12.464  0.00  0.00    +0.000 A 
ATOM      3  C   UNL     1      47.494   6.233  13.644  0.00  0.00    +0.000 A 
ATOM      4  C   UNL     1      47.311   5.157  14.524  0.00  0.00    +0.000 A 
ATOM      5  C   UNL     1      46.342   4.194  14.219  0.00  0.00    +0.000 A 
ATOM      6  C   UNL     1      45.597   4.282  13.040  0.00  0.00    +0.000 A 
ENDROOT
BRANCH   1   7
ATOM      7  C   UNL     1      44.992   5.435  10.879  0.00  0.00    +0.000 C 
BRANCH   7  10
ATOM      8  O   UNL     1      44.255   2.869  10.030  0.00  0.00    +0.000 OA
ATOM      9  C   UNL     1      45.163   3.450   9.446  0.00  0.00    +0.000 C 
ATOM     10  N   UNL     1      45.608   4.705   9.801  0.00  0.00    +0.000 N 
ATOM     11  H   UNL     1      46.368   5.108   9.259  0.00  0.00    +0.000 HD
BRANCH   9  12
ATOM     12  C   UNL     1      45.862   2.831   8.274  0.00  0.00    +0.000 A 
ATOM     13  C   UNL     1      46.116   3.601   7.144  0.00  0.00    +0.000 A 
ATOM     14  C   UNL     1      46.782   3.007   6.078  0.00  0.00    +0.000 A 
ATOM     15  C   UNL     1      47.170   1.676   6.175  0.00  0.00    +0.000 A 
ATOM     16  C   UNL     1      46.872   0.983   7.341  0.00  0.00    +0.000 A 
ATOM     17  N   UNL     1      46.226   1.523   8.398  0.00  0.00    +0.000 NA
ENDBRANCH   9  12
ENDBRANCH   7  10
ENDBRANCH   1   7
BRANCH   4  18
ATOM     18  C   UNL     1      48.115   5.051  15.793  0.00  0.00    +0.000 C 
BRANCH  18  19
ATOM     19  N   UNL     1      47.773   6.096  16.722  0.00  0.00    +0.000 N 
ATOM     20  C   UNL     1      48.514   6.301  17.859  0.00  0.00    +0.000 C 
ATOM     21  O   UNL     1      49.520   5.642  18.107  0.00  0.00    +0.000 OA
ATOM     22  H   UNL     1      46.841   6.491  16.652  0.00  0.00    +0.000 HD
BRANCH  20  23
ATOM     23  C   UNL     1      48.080   7.393  18.741  0.00  0.00    +0.000 A 
ATOM     24  C   UNL     1      47.793   7.126  20.074  0.00  0.00    +0.000 A 
ATOM     25  S   UNL     1      47.359   8.507  20.972  0.00  0.00    +0.000 S 
ATOM     26  C   UNL     1      47.487   9.506  19.601  0.00  0.00    +0.000 A 
ATOM     27  N   UNL     1      47.216  10.837  19.678  0.00  0.00    +0.000 NA
ATOM     28  C   UNL     1      47.321  11.468  18.557  0.00  0.00    +0.000 A 
ATOM     29  N   UNL     1      47.677  10.890  17.366  0.00  0.00    +0.000 N 
ATOM     30  C   UNL     1      47.987   9.557  17.245  0.00  0.00    +0.000 A 
ATOM     31  O   UNL     1      48.337   9.078  16.171  0.00  0.00    +0.000 OA
ATOM     32  C   UNL     1      47.872   8.797  18.477  0.00  0.00    +0.000 A 
ATOM     33  H   UNL     1      47.747  11.443  16.524  0.00  0.00    +0.000 HD
ENDBRANCH  20  23
ENDBRANCH  18  19
ENDBRANCH   4  18
TORSDOF 6
ENDMDL
MODEL 6
REMARK VINA RESULT:    -7.319      3.578      4.960
REMARK INTER + INTRA:         -10.937
REMARK INTER:                  -9.807
REMARK INTRA:                  -1.129
REMARK UNBOUND:                -1.050
REMARK  Name = 
REMARK  6 active torsions:
REMARK  status: ('A' for Active; 'I' for Inactive)
REMARK    1  A    between atoms: C_2  and  C_25
REMARK    2  A    between atoms: N_3  and  C_4
REMARK    3  A    between atoms: C_4  and  C_5
REMARK    4  A    between atoms: C_8  and  C_9
REMARK    5  A    between atoms: C_9  and  N_10
REMARK    6  A    between atoms: C_11  and  C_13
REMARK                            x       y       z     vdW  Elec       q    Type
REMARK                         _______ _______ _______ _____ _____    ______ ____
ROOT
ATOM      1  C   UNL     1      44.984   6.088  11.536  0.00  0.00    +0.000 A 
ATOM      2  C   UNL     1      46.014   5.624  12.365  0.00  0.00    +0.000 A 
ATOM      3  C   UNL     1      46.758   6.516  13.143  0.00  0.00    +0.000 A 
ATOM      4  C   UNL     1      46.472   7.887  13.124  0.00  0.00    +0.000 A 
ATOM      5  C   UNL     1      45.453   8.352  12.284  0.00  0.00    +0.000 A 
ATOM      6  C   UNL     1      44.708   7.460  11.507  0.00  0.00    +0.000 A 
ENDROOT
BRANCH   1   7
ATOM      7  C   UNL     1      44.175   5.128  10.706  0.00  0.00    +0.000 C 
BRANCH   7  10
ATOM      8  O   UNL     1      43.996   2.425   9.992  0.00  0.00    +0.000 OA
ATOM      9  C   UNL     1      44.797   3.143   9.405  0.00  0.00    +0.000 C 
ATOM     10  N   UNL     1      44.970   4.479   9.696  0.00  0.00    +0.000 N 
ATOM     11  H   UNL     1      45.660   4.994   9.156  0.00  0.00    +0.000 HD
BRANCH   9  12
ATOM     12  C   UNL     1      45.657   2.613   8.297  0.00  0.00    +0.000 A 
ATOM     13  C   UNL     1      45.951   3.429   7.210  0.00  0.00    +0.000 A 
ATOM     14  C   UNL     1      46.766   2.919   6.205  0.00  0.00    +0.000 A 
ATOM     15  C   UNL     1      47.256   1.623   6.319  0.00  0.00    +0.000 A 
ATOM     16  C   UNL     1      46.907   0.880   7.438  0.00  0.00    +0.000 A 
ATOM     17  N   UNL     1      46.118   1.338   8.435  0.00  0.00    +0.000 NA
ENDBRANCH   9  12
ENDBRANCH   7  10
ENDBRANCH   1   7
BRANCH   4  18
ATOM     18  C   UNL     1      47.265   8.854  13.964  0.00  0.00    +0.000 C 
BRANCH  18  19
ATOM     19  N   UNL     1      48.583   9.063  13.425  0.00  0.00    +0.000 N 
ATOM     20  C   UNL     1      48.844  10.115  12.584  0.00  0.00    +0.000 C 
ATOM     21  O   UNL     1      47.986  10.946  12.296  0.00  0.00    +0.000 OA
ATOM     22  H   UNL     1      49.230   8.282  13.467  0.00  0.00    +0.000 HD
BRANCH  20  23
ATOM     23  C   UNL     1      50.222  10.238  12.089  0.00  0.00    +0.000 A 
ATOM     24  C   UNL     1      50.858  11.472  12.131  0.00  0.00    +0.000 A 
ATOM     25  S   UNL     1      52.468  11.433  11.570  0.00  0.00    +0.000 S 
ATOM     26  C   UNL     1      52.357   9.777  11.202  0.00  0.00    +0.000 A 
ATOM     27  N   UNL     1      53.408   9.111  10.653  0.00  0.00    +0.000 NA
ATOM     28  C   UNL     1      53.175   7.867  10.394  0.00  0.00    +0.000 A 
ATOM     29  N   UNL     1      51.988   7.228  10.639  0.00  0.00    +0.000 N 
ATOM     30  C   UNL     1      50.908   7.851  11.217  0.00  0.00    +0.000 A 
ATOM     31  O   UNL     1      49.871   7.240  11.456  0.00  0.00    +0.000 OA
ATOM     32  C   UNL     1      51.114   9.257  11.518  0.00  0.00    +0.000 A 
ATOM     33  H   UNL     1      51.872   6.250  10.419  0.00  0.00    +0.000 HD
ENDBRANCH  20  23
ENDBRANCH  18  19
ENDBRANCH   4  18
TORSDOF 6
ENDMDL
MODEL 7
REMARK VINA RESULT:    -7.157      3.949      6.916
REMARK INTER + INTRA:         -10.717
REMARK INTER:                  -9.775
REMARK INTRA:                  -0.942
REMARK UNBOUND:                -1.050
REMARK  Name = 
REMARK  6 active torsions:
REMARK  status: ('A' for Active; 'I' for Inactive)
REMARK    1  A    between atoms: C_2  and  C_25
REMARK    2  A    between atoms: N_3  and  C_4
REMARK    3  A    between atoms: C_4  and  C_5
REMARK    4  A    between atoms: C_8  and  C_9
REMARK    5  A    between atoms: C_9  and  N_10
REMARK    6  A    between atoms: C_11  and  C_13
REMARK                            x       y       z     vdW  Elec       q    Type
REMARK                         _______ _______ _______ _____ _____    ______ ____
ROOT
ATOM      1  C   UNL     1      44.983   9.186  11.818  0.00  0.00    +0.000 A 
ATOM      2  C   UNL     1      44.270   8.043  11.429  0.00  0.00    +0.000 A 
ATOM      3  C   UNL     1      44.688   6.771  11.833  0.00  0.00    +0.000 A 
ATOM      4  C   UNL     1      45.815   6.619  12.653  0.00  0.00    +0.000 A 
ATOM      5  C   UNL     1      46.535   7.760  13.028  0.00  0.00    +0.000 A 
ATOM      6  C   UNL     1      46.117   9.031  12.624  0.00  0.00    +0.000 A 
ENDROOT
BRANCH   1   7
ATOM      7  C   UNL     1      44.529  10.556  11.392  0.00  0.00    +0.000 C 
BRANCH   7  10
ATOM      8  O   UNL     1      42.049  10.527  10.089  0.00  0.00    +0.000 OA
ATOM      9  C   UNL     1      42.097  10.859  11.268  0.00  0.00    +0.000 C 
ATOM     10  N   UNL     1      43.270  10.921  11.988  0.00  0.00    +0.000 N 
ATOM     11  H   UNL     1      43.212  11.208  12.962  0.00  0.00    +0.000 HD
BRANCH   9  12
ATOM     12  C   UNL     1      40.857  11.218  12.031  0.00  0.00    +0.000 A 
ATOM     13  C   UNL     1      39.638  10.670  11.649  0.00  0.00    +0.000 A 
ATOM     14  C   UNL     1      38.506  11.005  12.385  0.00  0.00    +0.000 A 
ATOM     15  C   UNL     1      38.630  11.868  13.468  0.00  0.00    +0.000 A 
ATOM     16  C   UNL     1      39.888  12.369  13.774  0.00  0.00    +0.000 A 
ATOM     17  N   UNL     1      41.011  12.069  13.085  0.00  0.00    +0.000 NA
ENDBRANCH   9  12
ENDBRANCH   7  10
ENDBRANCH   1   7
BRANCH   4  18
ATOM     18  C   UNL     1      46.268   5.254  13.098  0.00  0.00    +0.000 C 
BRANCH  18  19
ATOM     19  N   UNL     1      46.853   5.296  14.413  0.00  0.00    +0.000 N 
ATOM     20  C   UNL     1      47.307   4.154  15.022  0.00  0.00    +0.000 C 
ATOM     21  O   UNL     1      47.281   3.062  14.459  0.00  0.00    +0.000 OA
ATOM     22  H   UNL     1      46.681   6.127  14.970  0.00  0.00    +0.000 HD
BRANCH  20  23
ATOM     23  C   UNL     1      47.886   4.306  16.364  0.00  0.00    +0.000 A 
ATOM     24  C   UNL     1      47.472   3.465  17.389  0.00  0.00    +0.000 A 
ATOM     25  S   UNL     1      48.279   3.735  18.866  0.00  0.00    +0.000 S 
ATOM     26  C   UNL     1      49.174   5.022  18.204  0.00  0.00    +0.000 A 
ATOM     27  N   UNL     1      50.057   5.723  18.964  0.00  0.00    +0.000 NA
ATOM     28  C   UNL     1      50.643   6.692  18.345  0.00  0.00    +0.000 A 
ATOM     29  N   UNL     1      50.429   7.021  17.031  0.00  0.00    +0.000 N 
ATOM     30  C   UNL     1      49.568   6.326  16.217  0.00  0.00    +0.000 A 
ATOM     31  O   UNL     1      49.426   6.624  15.035  0.00  0.00    +0.000 OA
ATOM     32  C   UNL     1      48.873   5.230  16.870  0.00  0.00    +0.000 A 
ATOM     33  H   UNL     1      50.925   7.789  16.603  0.00  0.00    +0.000 HD
ENDBRANCH  20  23
ENDBRANCH  18  19
ENDBRANCH   4  18
TORSDOF 6
ENDMDL
MODEL 8
REMARK VINA RESULT:    -6.991      4.062      6.506
REMARK INTER + INTRA:         -10.494
REMARK INTER:                  -9.737
REMARK INTRA:                  -0.756
REMARK UNBOUND:                -1.050
REMARK  Name = 
REMARK  6 active torsions:
REMARK  status: ('A' for Active; 'I' for Inactive)
REMARK    1  A    between atoms: C_2  and  C_25
REMARK    2  A    between atoms: N_3  and  C_4
REMARK    3  A    between atoms: C_4  and  C_5
REMARK    4  A    between atoms: C_8  and  C_9
REMARK    5  A    between atoms: C_9  and  N_10
REMARK    6  A    between atoms: C_11  and  C_13
REMARK                            x       y       z     vdW  Elec       q    Type
REMARK                         _______ _______ _______ _____ _____    ______ ____
ROOT
ATOM      1  C   UNL     1      45.358   7.725  12.042  0.00  0.00    +0.000 A 
ATOM      2  C   UNL     1      44.505   6.613  12.042  0.00  0.00    +0.000 A 
ATOM      3  C   UNL     1      44.847   5.453  12.745  0.00  0.00    +0.000 A 
ATOM      4  C   UNL     1      46.039   5.391  13.479  0.00  0.00    +0.000 A 
ATOM      5  C   UNL     1      46.897   6.498  13.466  0.00  0.00    +0.000 A 
ATOM      6  C   UNL     1      46.555   7.657  12.764  0.00  0.00    +0.000 A 
ENDROOT
BRANCH   1   7
ATOM      7  C   UNL     1      44.986   8.977  11.295  0.00  0.00    +0.000 C 
BRANCH   7  10
ATOM      8  O   UNL     1      44.007  11.601  11.209  0.00  0.00    +0.000 OA
ATOM      9  C   UNL     1      43.229  10.684  11.448  0.00  0.00    +0.000 C 
ATOM     10  N   UNL     1      43.619   9.365  11.529  0.00  0.00    +0.000 N 
ATOM     11  H   UNL     1      42.903   8.672  11.733  0.00  0.00    +0.000 HD
BRANCH   9  12
ATOM     12  C   UNL     1      41.767  10.934  11.664  0.00  0.00    +0.000 A 
ATOM     13  C   UNL     1      40.834  10.181  10.959  0.00  0.00    +0.000 A 
ATOM     14  C   UNL     1      39.483  10.421  11.192  0.00  0.00    +0.000 A 
ATOM     15  C   UNL     1      39.115  11.395  12.113  0.00  0.00    +0.000 A 
ATOM     16  C   UNL     1      40.116  12.100  12.767  0.00  0.00    +0.000 A 
ATOM     17  N   UNL     1      41.437  11.898  12.570  0.00  0.00    +0.000 NA
ENDBRANCH   9  12
ENDBRANCH   7  10
ENDBRANCH   1   7
BRANCH   4  18
ATOM     18  C   UNL     1      46.412   4.149  14.244  0.00  0.00    +0.000 C 
BRANCH  18  19
ATOM     19  N   UNL     1      47.540   4.382  15.108  0.00  0.00    +0.000 N 
ATOM     20  C   UNL     1      47.501   4.025  16.433  0.00  0.00    +0.000 C 
ATOM     21  O   UNL     1      46.531   3.453  16.924  0.00  0.00    +0.000 OA
ATOM     22  H   UNL     1      48.242   5.039  14.787  0.00  0.00    +0.000 HD
BRANCH  20  23
ATOM     23  C   UNL     1      48.704   4.306  17.228  0.00  0.00    +0.000 A 
ATOM     24  C   UNL     1      48.795   5.498  17.936  0.00  0.00    +0.000 A 
ATOM     25  S   UNL     1      50.227   5.645  18.849  0.00  0.00    +0.000 S 
ATOM     26  C   UNL     1      50.801   4.145  18.291  0.00  0.00    +0.000 A 
ATOM     27  N   UNL     1      52.016   3.673  18.681  0.00  0.00    +0.000 NA
ATOM     28  C   UNL     1      52.341   2.539  18.156  0.00  0.00    +0.000 A 
ATOM     29  N   UNL     1      51.559   1.831  17.280  0.00  0.00    +0.000 N 
ATOM     30  C   UNL     1      50.314   2.254  16.880  0.00  0.00    +0.000 A 
ATOM     31  O   UNL     1      49.625   1.579  16.122  0.00  0.00    +0.000 OA
ATOM     32  C   UNL     1      49.905   3.533  17.433  0.00  0.00    +0.000 A 
ATOM     33  H   UNL     1      51.870   0.945  16.910  0.00  0.00    +0.000 HD
ENDBRANCH  20  23
ENDBRANCH  18  19
ENDBRANCH   4  18
TORSDOF 6
ENDMDL
MODEL 9
REMARK VINA RESULT:    -6.981      1.904      2.592
REMARK INTER + INTRA:         -10.480
REMARK INTER:                 -10.263
REMARK INTRA:                  -0.216
REMARK UNBOUND:                -1.050
REMARK  Name = 
REMARK  6 active torsions:
REMARK  status: ('A' for Active; 'I' for Inactive)
REMARK    1  A    between atoms: C_2  and  C_25
REMARK    2  A    between atoms: N_3  and  C_4
REMARK    3  A    between atoms: C_4  and  C_5
REMARK    4  A    between atoms: C_8  and  C_9
REMARK    5  A    between atoms: C_9  and  N_10
REMARK    6  A    between atoms: C_11  and  C_13
REMARK                            x       y       z     vdW  Elec       q    Type
REMARK                         _______ _______ _______ _____ _____    ______ ____
ROOT
ATOM      1  C   UNL     1      44.777   5.384  11.299  0.00  0.00    +0.000 A 
ATOM      2  C   UNL     1      45.165   4.720  12.471  0.00  0.00    +0.000 A 
ATOM      3  C   UNL     1      46.037   5.329  13.379  0.00  0.00    +0.000 A 
ATOM      4  C   UNL     1      46.520   6.624  13.143  0.00  0.00    +0.000 A 
ATOM      5  C   UNL     1      46.143   7.279  11.965  0.00  0.00    +0.000 A 
ATOM      6  C   UNL     1      45.272   6.671  11.058  0.00  0.00    +0.000 A 
ENDROOT
BRANCH   1   7
ATOM      7  C   UNL     1      43.831   4.733  10.327  0.00  0.00    +0.000 C 
BRANCH   7  10
ATOM      8  O   UNL     1      45.804   5.277   8.413  0.00  0.00    +0.000 OA
ATOM      9  C   UNL     1      45.460   4.115   8.599  0.00  0.00    +0.000 C 
ATOM     10  N   UNL     1      44.487   3.751   9.504  0.00  0.00    +0.000 N 
ATOM     11  H   UNL     1      44.267   2.762   9.588  0.00  0.00    +0.000 HD
BRANCH   9  12
ATOM     12  C   UNL     1      46.093   2.983   7.848  0.00  0.00    +0.000 A 
ATOM     13  C   UNL     1      46.702   3.231   6.623  0.00  0.00    +0.000 A 
ATOM     14  C   UNL     1      47.298   2.166   5.956  0.00  0.00    +0.000 A 
ATOM     15  C   UNL     1      47.267   0.901   6.531  0.00  0.00    +0.000 A 
ATOM     16  C   UNL     1      46.634   0.746   7.756  0.00  0.00    +0.000 A 
ATOM     17  N   UNL     1      46.043   1.753   8.435  0.00  0.00    +0.000 NA
ENDBRANCH   9  12
ENDBRANCH   7  10
ENDBRANCH   1   7
BRANCH   4  18
ATOM     18  C   UNL     1      47.454   7.290  14.119  0.00  0.00    +0.000 C 
BRANCH  18  19
ATOM     19  N   UNL     1      48.052   6.333  15.013  0.00  0.00    +0.000 N 
ATOM     20  C   UNL     1      48.832   6.741  16.065  0.00  0.00    +0.000 C 
ATOM     21  O   UNL     1      49.014   7.929  16.318  0.00  0.00    +0.000 OA
ATOM     22  H   UNL     1      48.100   5.370  14.697  0.00  0.00    +0.000 HD
BRANCH  20  23
ATOM     23  C   UNL     1      49.396   5.685  16.918  0.00  0.00    +0.000 A 
ATOM     24  C   UNL     1      48.544   4.834  17.609  0.00  0.00    +0.000 A 
ATOM     25  S   UNL     1      49.354   3.632  18.507  0.00  0.00    +0.000 S 
ATOM     26  C   UNL     1      50.875   4.238  18.046  0.00  0.00    +0.000 A 
ATOM     27  N   UNL     1      52.022   3.665  18.500  0.00  0.00    +0.000 NA
ATOM     28  C   UNL     1      53.104   4.245  18.098  0.00  0.00    +0.000 A 
ATOM     29  N   UNL     1      53.142   5.344  17.279  0.00  0.00    +0.000 N 
ATOM     30  C   UNL     1      52.012   5.939  16.773  0.00  0.00    +0.000 A 
ATOM     31  O   UNL     1      52.082   6.899  16.013  0.00  0.00    +0.000 OA
ATOM     32  C   UNL     1      50.766   5.331  17.205  0.00  0.00    +0.000 A 
ATOM     33  H   UNL     1      54.023   5.747  16.996  0.00  0.00    +0.000 HD
ENDBRANCH  20  23
ENDBRANCH  18  19
ENDBRANCH   4  18
TORSDOF 6
ENDMDL
