MODEL 1
REMARK VINA RESULT:    -8.699      0.000      0.000
REMARK INTER + INTRA:         -11.955
REMARK INTER:                 -11.241
REMARK INTRA:                  -0.714
REMARK UNBOUND:                -0.714
REMARK  Name = 
REMARK  6 active torsions:
REMARK  status: ('A' for Active; 'I' for Inactive)
REMARK    1  A    between atoms: C_1  and  C_2
REMARK    2  A    between atoms: C_5  and  N_6
REMARK    3  A    between atoms: N_6  and  C_7
REMARK    4  A    between atoms: C_7  and  C_8
REMARK    5  A    between atoms: C_12  and  C_13
REMARK    6  A    between atoms: C_21  and  C_22
REMARK                            x       y       z     vdW  Elec       q    Type
REMARK                         _______ _______ _______ _____ _____    ______ ____
ROOT
ATOM      1  N   UNL     1      44.615   7.115  11.064  0.00  0.00    +0.000 N 
ATOM      2  H   UNL     1      45.082   7.016  10.165  0.00  0.00    +0.000 HD
ENDROOT
BRANCH   1   7
ATOM      3  C   UNL     1      49.102   6.818  14.479  0.00  0.00    +0.000 C 
ATOM      4  C   UNL     1      47.804   6.949  13.740  0.00  0.00    +0.000 A 
ATOM      5  C   UNL     1      47.583   7.992  12.858  0.00  0.00    +0.000 A 
ATOM      6  N   UNL     1      46.538   8.047  11.986  0.00  0.00    +0.000 NA
ATOM      7  C   UNL     1      45.585   7.099  12.049  0.00  0.00    +0.000 A 
ATOM      8  C   UNL     1      45.623   6.137  13.025  0.00  0.00    +0.000 A 
ATOM      9  C   UNL     1      46.800   5.986  13.754  0.00  0.00    +0.000 A 
BRANCH   9  10
ATOM     10  C   UNL     1      47.038   4.618  14.244  0.00  0.00    +0.000 C 
ATOM     11  N   UNL     1      46.637   4.443  15.551  0.00  0.00    +0.000 N 
ATOM     12  O   UNL     1      47.481   3.720  13.542  0.00  0.00    +0.000 OA
ATOM     13  H   UNL     1      46.119   5.155  16.052  0.00  0.00    +0.000 HD
ATOM     14  H   UNL     1      46.683   3.518  15.960  0.00  0.00    +0.000 HD
ENDBRANCH   9  10
ENDBRANCH   1   7
BRANCH   1  15
ATOM     15  C   UNL     1      43.385   6.347  11.206  0.00  0.00    +0.000 C 
BRANCH  15  16
ATOM     16  C   UNL     1      43.613   4.917  10.796  0.00  0.00    +0.000 A 
ATOM     17  C   UNL     1      43.107   3.892  11.586  0.00  0.00    +0.000 A 
ATOM     18  N   UNL     1      43.292   2.587  11.330  0.00  0.00    +0.000 NA
ATOM     19  C   UNL     1      44.052   2.284  10.249  0.00  0.00    +0.000 A 
ATOM     20  C   UNL     1      44.673   3.200   9.390  0.00  0.00    +0.000 A 
ATOM     21  C   UNL     1      44.384   4.551   9.676  0.00  0.00    +0.000 A 
BRANCH  20  22
ATOM     22  C   UNL     1      45.665   2.761   8.353  0.00  0.00    +0.000 A 
ATOM     23  C   UNL     1      46.033   3.611   7.286  0.00  0.00    +0.000 A 
ATOM     24  C   UNL     1      46.798   3.169   6.198  0.00  0.00    +0.000 A 
ATOM     25  C   UNL     1      47.246   1.860   6.154  0.00  0.00    +0.000 A 
ATOM     26  C   UNL     1      46.972   1.012   7.222  0.00  0.00    +0.000 A 
ATOM     27  C   UNL     1      46.206   1.462   8.312  0.00  0.00    +0.000 A 
ENDBRANCH  20  22
ENDBRANCH  15  16
ENDBRANCH   1  15
TORSDOF 5
ENDMDL
MODEL 2
REMARK VINA RESULT:    -8.599      1.669      2.352
REMARK INTER + INTRA:         -11.826
REMARK INTER:                 -11.088
REMARK INTRA:                  -0.738
REMARK UNBOUND:                -0.714
REMARK  Name = 
REMARK  6 active torsions:
REMARK  status: ('A' for Active; 'I' for Inactive)
REMARK    1  A    between atoms: C_1  and  C_2
REMARK    2  A    between atoms: C_5  and  N_6
REMARK    3  A    between atoms: N_6  and  C_7
REMARK    4  A    between atoms: C_7  and  C_8
REMARK    5  A    between atoms: C_12  and  C_13
REMARK    6  A    between atoms: C_21  and  C_22
REMARK                            x       y       z     vdW  Elec       q    Type
REMARK                         _______ _______ _______ _____ _____    ______ ____
ROOT
ATOM      1  N   UNL     1      46.839   5.792  12.687  0.00  0.00    +0.000 N 
ATOM      2  H   UNL     1      47.287   5.043  12.164  0.00  0.00    +0.000 HD
ENDROOT
BRANCH   1   7
ATOM      3  C   UNL     1      49.497   5.408  17.653  0.00  0.00    +0.000 C 
ATOM      4  C   UNL     1      48.622   5.547  16.445  0.00  0.00    +0.000 A 
ATOM      5  C   UNL     1      48.727   6.641  15.604  0.00  0.00    +0.000 A 
ATOM      6  N   UNL     1      48.141   6.721  14.377  0.00  0.00    +0.000 NA
ATOM      7  C   UNL     1      47.308   5.740  13.987  0.00  0.00    +0.000 A 
ATOM      8  C   UNL     1      46.992   4.713  14.840  0.00  0.00    +0.000 A 
ATOM      9  C   UNL     1      47.763   4.552  15.987  0.00  0.00    +0.000 A 
BRANCH   9  10
ATOM     10  C   UNL     1      47.856   3.162  16.464  0.00  0.00    +0.000 C 
ATOM     11  N   UNL     1      46.951   2.881  17.465  0.00  0.00    +0.000 N 
ATOM     12  O   UNL     1      48.610   2.332  15.976  0.00  0.00    +0.000 OA
ATOM     13  H   UNL     1      46.227   3.536  17.732  0.00  0.00    +0.000 HD
ATOM     14  H   UNL     1      46.878   1.930  17.809  0.00  0.00    +0.000 HD
ENDBRANCH   9  10
ENDBRANCH   1   7
BRANCH   1  15
ATOM     15  C   UNL     1      45.420   5.975  12.405  0.00  0.00    +0.000 C 
BRANCH  15  16
ATOM     16  C   UNL     1      44.904   4.836  11.567  0.00  0.00    +0.000 A 
ATOM     17  C   UNL     1      43.902   4.017  12.072  0.00  0.00    +0.000 A 
ATOM     18  N   UNL     1      43.405   2.953  11.421  0.00  0.00    +0.000 NA
ATOM     19  C   UNL     1      43.959   2.666  10.217  0.00  0.00    +0.000 A 
ATOM     20  C   UNL     1      45.008   3.361   9.601  0.00  0.00    +0.000 A 
ATOM     21  C   UNL     1      45.437   4.505  10.306  0.00  0.00    +0.000 A 
BRANCH  20  22
ATOM     22  C   UNL     1      45.688   2.835   8.372  0.00  0.00    +0.000 A 
ATOM     23  C   UNL     1      46.141   1.498   8.301  0.00  0.00    +0.000 A 
ATOM     24  C   UNL     1      46.950   1.029   7.257  0.00  0.00    +0.000 A 
ATOM     25  C   UNL     1      47.313   1.881   6.228  0.00  0.00    +0.000 A 
ATOM     26  C   UNL     1      46.823   3.182   6.218  0.00  0.00    +0.000 A 
ATOM     27  C   UNL     1      46.010   3.646   7.268  0.00  0.00    +0.000 A 
ENDBRANCH  20  22
ENDBRANCH  15  16
ENDBRANCH   1  15
TORSDOF 5
ENDMDL
MODEL 3
REMARK VINA RESULT:    -8.593      1.656      2.568
REMARK INTER + INTRA:         -11.818
REMARK INTER:                 -10.847
REMARK INTRA:                  -0.972
REMARK UNBOUND:                -0.714
REMARK  Name = 
REMARK  6 active torsions:
REMARK  status: ('A' for Active; 'I' for Inactive)
REMARK    1  A    between atoms: C_1  and  C_2
REMARK    2  A    between atoms: C_5  and  N_6
REMARK    3  A    between atoms: N_6  and  C_7
REMARK    4  A    between atoms: C_7  and  C_8
REMARK    5  A    between atoms: C_12  and  C_13
REMARK    6  A    between atoms: C_21  and  C_22
REMARK                            x       y       z     vdW  Elec       q    Type
REMARK                         _______ _______ _______ _____ _____    ______ ____
ROOT
ATOM      1  N   UNL     1      43.991   6.614  12.526  0.00  0.00    +0.000 N 
ATOM      2  H   UNL     1      43.600   7.388  13.059  0.00  0.00    +0.000 HD
ENDROOT
BRANCH   1   7
ATOM      3  C   UNL     1      49.505   7.228  13.573  0.00  0.00    +0.000 C 
ATOM      4  C   UNL     1      48.098   7.018  13.103  0.00  0.00    +0.000 A 
ATOM      5  C   UNL     1      47.358   5.924  13.517  0.00  0.00    +0.000 A 
ATOM      6  N   UNL     1      46.017   5.791  13.325  0.00  0.00    +0.000 NA
ATOM      7  C   UNL     1      45.369   6.711  12.586  0.00  0.00    +0.000 A 
ATOM      8  C   UNL     1      46.061   7.724  11.972  0.00  0.00    +0.000 A 
ATOM      9  C   UNL     1      47.378   7.948  12.359  0.00  0.00    +0.000 A 
BRANCH   9  10
ATOM     10  C   UNL     1      47.820   9.346  12.223  0.00  0.00    +0.000 C 
ATOM     11  N   UNL     1      47.345  10.155  13.232  0.00  0.00    +0.000 N 
ATOM     12  O   UNL     1      48.581   9.729  11.346  0.00  0.00    +0.000 OA
ATOM     13  H   UNL     1      46.857   9.779  14.036  0.00  0.00    +0.000 HD
ATOM     14  H   UNL     1      47.654  11.120  13.277  0.00  0.00    +0.000 HD
ENDBRANCH   9  10
ENDBRANCH   1   7
BRANCH   1  15
ATOM     15  C   UNL     1      43.311   6.328  11.269  0.00  0.00    +0.000 C 
BRANCH  15  16
ATOM     16  C   UNL     1      43.559   4.902  10.855  0.00  0.00    +0.000 A 
ATOM     17  C   UNL     1      43.079   3.868  11.648  0.00  0.00    +0.000 A 
ATOM     18  N   UNL     1      43.283   2.566  11.388  0.00  0.00    +0.000 NA
ATOM     19  C   UNL     1      44.036   2.278  10.298  0.00  0.00    +0.000 A 
ATOM     20  C   UNL     1      44.632   3.206   9.434  0.00  0.00    +0.000 A 
ATOM     21  C   UNL     1      44.323   4.551   9.725  0.00  0.00    +0.000 A 
BRANCH  20  22
ATOM     22  C   UNL     1      45.620   2.785   8.385  0.00  0.00    +0.000 A 
ATOM     23  C   UNL     1      46.045   1.442   8.277  0.00  0.00    +0.000 A 
ATOM     24  C   UNL     1      47.105   1.050   7.448  0.00  0.00    +0.000 A 
ATOM     25  C   UNL     1      47.761   1.992   6.673  0.00  0.00    +0.000 A 
ATOM     26  C   UNL     1      47.322   3.311   6.690  0.00  0.00    +0.000 A 
ATOM     27  C   UNL     1      46.257   3.698   7.523  0.00  0.00    +0.000 A 
ENDBRANCH  20  22
ENDBRANCH  15  16
ENDBRANCH   1  15
TORSDOF 5
ENDMDL
MODEL 4
REMARK VINA RESULT:    -8.250      1.745      2.463
REMARK INTER + INTRA:         -11.375
REMARK INTER:                 -10.651
REMARK INTRA:                  -0.724
REMARK UNBOUND:                -0.714
REMARK  Name = 
REMARK  6 active torsions:
REMARK  status: ('A' for Active; 'I' for Inactive)
REMARK    1  A    between atoms: C_1  and  C_2
REMARK    2  A    between atoms: C_5  and  N_6
REMARK    3  A    between atoms: N_6  and  C_7
REMARK    4  A    between atoms: C_7  and  C_8
REMARK    5  A    between atoms: C_12  and  C_13
REMARK    6  A    between atoms: C_21  and  C_22
REMARK                            x       y       z     vdW  Elec       q    Type
REMARK                         _______ _______ _______ _____ _____    ______ ____
ROOT
ATOM      1  N   UNL     1      44.563   6.674  12.583  0.00  0.00    +0.000 N 
ATOM      2  H   UNL     1      44.071   6.724  13.472  0.00  0.00    +0.000 HD
ENDROOT
BRANCH   1   7
ATOM      3  C   UNL     1      48.479  10.657  11.760  0.00  0.00    +0.000 C 
ATOM      4  C   UNL     1      47.483   9.619  12.179  0.00  0.00    +0.000 A 
ATOM      5  C   UNL     1      46.122   9.856  12.098  0.00  0.00    +0.000 A 
ATOM      6  N   UNL     1      45.168   8.894  12.234  0.00  0.00    +0.000 NA
ATOM      7  C   UNL     1      45.542   7.650  12.585  0.00  0.00    +0.000 A 
ATOM      8  C   UNL     1      46.853   7.373  12.877  0.00  0.00    +0.000 A 
ATOM      9  C   UNL     1      47.817   8.313  12.525  0.00  0.00    +0.000 A 
BRANCH   9  10
ATOM     10  C   UNL     1      49.140   7.741  12.223  0.00  0.00    +0.000 C 
ATOM     11  N   UNL     1      49.799   7.298  13.349  0.00  0.00    +0.000 N 
ATOM     12  O   UNL     1      49.573   7.613  11.086  0.00  0.00    +0.000 OA
ATOM     13  H   UNL     1      49.347   7.261  14.255  0.00  0.00    +0.000 HD
ATOM     14  H   UNL     1      50.684   6.815  13.243  0.00  0.00    +0.000 HD
ENDBRANCH   9  10
ENDBRANCH   1   7
BRANCH   1  15
ATOM     15  C   UNL     1      43.710   6.465  11.419  0.00  0.00    +0.000 C 
BRANCH  15  16
ATOM     16  C   UNL     1      43.794   5.033  10.961  0.00  0.00    +0.000 A 
ATOM     17  C   UNL     1      43.234   4.033  11.745  0.00  0.00    +0.000 A 
ATOM     18  N   UNL     1      43.292   2.724  11.446  0.00  0.00    +0.000 NA
ATOM     19  C   UNL     1      43.977   2.391  10.324  0.00  0.00    +0.000 A 
ATOM     20  C   UNL     1      44.640   3.275   9.463  0.00  0.00    +0.000 A 
ATOM     21  C   UNL     1      44.482   4.636   9.798  0.00  0.00    +0.000 A 
BRANCH  20  22
ATOM     22  C   UNL     1      45.545   2.784   8.372  0.00  0.00    +0.000 A 
ATOM     23  C   UNL     1      46.000   1.447   8.345  0.00  0.00    +0.000 A 
ATOM     24  C   UNL     1      46.995   1.006   7.461  0.00  0.00    +0.000 A 
ATOM     25  C   UNL     1      47.552   1.889   6.551  0.00  0.00    +0.000 A 
ATOM     26  C   UNL     1      47.076   3.194   6.492  0.00  0.00    +0.000 A 
ATOM     27  C   UNL     1      46.076   3.629   7.379  0.00  0.00    +0.000 A 
ENDBRANCH  20  22
ENDBRANCH  15  16
ENDBRANCH   1  15
TORSDOF 5
ENDMDL
MODEL 5
REMARK VINA RESULT:    -7.860      1.959      2.869
REMARK INTER + INTRA:         -10.871
REMARK INTER:                 -10.168
REMARK INTRA:                  -0.703
REMARK UNBOUND:                -0.714
REMARK  Name = 
REMARK  6 active torsions:
REMARK  status: ('A' for Active; 'I' for Inactive)
REMARK    1  A    between atoms: C_1  and  C_2
REMARK    2  A    between atoms: C_5  and  N_6
REMARK    3  A    between atoms: N_6  and  C_7
REMARK    4  A    between atoms: C_7  and  C_8
REMARK    5  A    between atoms: C_12  and  C_13
REMARK    6  A    between atoms: C_21  and  C_22
REMARK                            x       y       z     vdW  Elec       q    Type
REMARK                         _______ _______ _______ _____ _____    ______ ____
ROOT
ATOM      1  N   UNL     1      46.347   6.054  12.809  0.00  0.00    +0.000 N 
ATOM      2  H   UNL     1      46.853   5.709  11.996  0.00  0.00    +0.000 HD
ENDROOT
BRANCH   1   7
ATOM      3  C   UNL     1      48.485   4.647  17.841  0.00  0.00    +0.000 C 
ATOM      4  C   UNL     1      48.101   4.966  16.429  0.00  0.00    +0.000 A 
ATOM      5  C   UNL     1      47.196   4.181  15.735  0.00  0.00    +0.000 A 
ATOM      6  N   UNL     1      46.626   4.536  14.551  0.00  0.00    +0.000 NA
ATOM      7  C   UNL     1      47.041   5.660  13.938  0.00  0.00    +0.000 A 
ATOM      8  C   UNL     1      48.074   6.396  14.458  0.00  0.00    +0.000 A 
ATOM      9  C   UNL     1      48.483   6.126  15.761  0.00  0.00    +0.000 A 
BRANCH   9  10
ATOM     10  C   UNL     1      49.043   7.287  16.473  0.00  0.00    +0.000 C 
ATOM     11  N   UNL     1      48.070   8.119  16.983  0.00  0.00    +0.000 N 
ATOM     12  O   UNL     1      50.242   7.454  16.649  0.00  0.00    +0.000 OA
ATOM     13  H   UNL     1      47.089   7.869  16.969  0.00  0.00    +0.000 HD
ATOM     14  H   UNL     1      48.347   8.906  17.559  0.00  0.00    +0.000 HD
ENDBRANCH   9  10
ENDBRANCH   1   7
BRANCH   1  15
ATOM     15  C   UNL     1      44.897   5.922  12.731  0.00  0.00    +0.000 C 
BRANCH  15  16
ATOM     16  C   UNL     1      44.526   4.754  11.857  0.00  0.00    +0.000 A 
ATOM     17  C   UNL     1      43.623   3.810  12.327  0.00  0.00    +0.000 A 
ATOM     18  N   UNL     1      43.260   2.713  11.643  0.00  0.00    +0.000 NA
ATOM     19  C   UNL     1      43.855   2.527  10.439  0.00  0.00    +0.000 A 
ATOM     20  C   UNL     1      44.820   3.358   9.854  0.00  0.00    +0.000 A 
ATOM     21  C   UNL     1      45.105   4.524  10.594  0.00  0.00    +0.000 A 
BRANCH  20  22
ATOM     22  C   UNL     1      45.568   2.949   8.619  0.00  0.00    +0.000 A 
ATOM     23  C   UNL     1      46.016   1.621   8.441  0.00  0.00    +0.000 A 
ATOM     24  C   UNL     1      46.882   1.249   7.403  0.00  0.00    +0.000 A 
ATOM     25  C   UNL     1      47.310   2.196   6.487  0.00  0.00    +0.000 A 
ATOM     26  C   UNL     1      46.830   3.497   6.581  0.00  0.00    +0.000 A 
ATOM     27  C   UNL     1      45.959   3.863   7.623  0.00  0.00    +0.000 A 
ENDBRANCH  20  22
ENDBRANCH  15  16
ENDBRANCH   1  15
TORSDOF 5
ENDMDL
MODEL 6
REMARK VINA RESULT:    -7.811      2.655      3.771
REMARK INTER + INTRA:         -10.808
REMARK INTER:                 -10.060
REMARK INTRA:                  -0.748
REMARK UNBOUND:                -0.714
REMARK  Name = 
REMARK  6 active torsions:
REMARK  status: ('A' for Active; 'I' for Inactive)
REMARK    1  A    between atoms: C_1  and  C_2
REMARK    2  A    between atoms: C_5  and  N_6
REMARK    3  A    between atoms: N_6  and  C_7
REMARK    4  A    between atoms: C_7  and  C_8
REMARK    5  A    between atoms: C_12  and  C_13
REMARK    6  A    between atoms: C_21  and  C_22
REMARK                            x       y       z     vdW  Elec       q    Type
REMARK                         _______ _______ _______ _____ _____    ______ ____
ROOT
ATOM      1  N   UNL     1      44.514   6.441  12.927  0.00  0.00    +0.000 N 
ATOM      2  H   UNL     1      43.580   6.348  12.535  0.00  0.00    +0.000 HD
ENDROOT
BRANCH   1   7
ATOM      3  C   UNL     1      46.561  11.575  11.774  0.00  0.00    +0.000 C 
ATOM      4  C   UNL     1      46.064  10.166  11.885  0.00  0.00    +0.000 A 
ATOM      5  C   UNL     1      46.745   9.221  12.633  0.00  0.00    +0.000 A 
ATOM      6  N   UNL     1      46.239   8.003  12.970  0.00  0.00    +0.000 NA
ATOM      7  C   UNL     1      45.054   7.625  12.458  0.00  0.00    +0.000 A 
ATOM      8  C   UNL     1      44.402   8.419  11.550  0.00  0.00    +0.000 A 
ATOM      9  C   UNL     1      44.836   9.732  11.394  0.00  0.00    +0.000 A 
BRANCH   9  10
ATOM     10  C   UNL     1      43.780  10.676  10.992  0.00  0.00    +0.000 C 
ATOM     11  N   UNL     1      42.933  11.001  12.028  0.00  0.00    +0.000 N 
ATOM     12  O   UNL     1      43.708  11.168   9.874  0.00  0.00    +0.000 OA
ATOM     13  H   UNL     1      43.116  10.711  12.982  0.00  0.00    +0.000 HD
ATOM     14  H   UNL     1      42.218  11.704  11.879  0.00  0.00    +0.000 HD
ENDBRANCH   9  10
ENDBRANCH   1   7
BRANCH   1  15
ATOM     15  C   UNL     1      45.298   5.212  12.949  0.00  0.00    +0.000 C 
BRANCH  15  16
ATOM     16  C   UNL     1      44.774   4.242  11.924  0.00  0.00    +0.000 A 
ATOM     17  C   UNL     1      43.721   3.400  12.258  0.00  0.00    +0.000 A 
ATOM     18  N   UNL     1      43.211   2.473  11.430  0.00  0.00    +0.000 NA
ATOM     19  C   UNL     1      43.804   2.353  10.217  0.00  0.00    +0.000 A 
ATOM     20  C   UNL     1      44.904   3.089   9.756  0.00  0.00    +0.000 A 
ATOM     21  C   UNL     1      45.347   4.088  10.647  0.00  0.00    +0.000 A 
BRANCH  20  22
ATOM     22  C   UNL     1      45.615   2.731   8.484  0.00  0.00    +0.000 A 
ATOM     23  C   UNL     1      46.204   1.458   8.307  0.00  0.00    +0.000 A 
ATOM     24  C   UNL     1      47.039   1.156   7.223  0.00  0.00    +0.000 A 
ATOM     25  C   UNL     1      47.295   2.117   6.259  0.00  0.00    +0.000 A 
ATOM     26  C   UNL     1      46.673   3.357   6.353  0.00  0.00    +0.000 A 
ATOM     27  C   UNL     1      45.833   3.653   7.443  0.00  0.00    +0.000 A 
ENDBRANCH  20  22
ENDBRANCH  15  16
ENDBRANCH   1  15
TORSDOF 5
ENDMDL
MODEL 7
REMARK VINA RESULT:    -7.125      2.507      4.839
REMARK INTER + INTRA:          -9.921
REMARK INTER:                  -9.179
REMARK INTRA:                  -0.742
REMARK UNBOUND:                -0.714
REMARK  Name = 
REMARK  6 active torsions:
REMARK  status: ('A' for Active; 'I' for Inactive)
REMARK    1  A    between atoms: C_1  and  C_2
REMARK    2  A    between atoms: C_5  and  N_6
REMARK    3  A    between atoms: N_6  and  C_7
REMARK    4  A    between atoms: C_7  and  C_8
REMARK    5  A    between atoms: C_12  and  C_13
REMARK    6  A    between atoms: C_21  and  C_22
REMARK                            x       y       z     vdW  Elec       q    Type
REMARK                         _______ _______ _______ _____ _____    ______ ____
ROOT
ATOM      1  N   UNL     1      48.379   7.440  15.299  0.00  0.00    +0.000 N 
ATOM      2  H   UNL     1      48.444   8.318  15.809  0.00  0.00    +0.000 HD
ENDROOT
BRANCH   1   7
ATOM      3  C   UNL     1      50.989   3.165  17.906  0.00  0.00    +0.000 C 
ATOM      4  C   UNL     1      50.196   4.328  17.391  0.00  0.00    +0.000 A 
ATOM      5  C   UNL     1      50.793   5.552  17.144  0.00  0.00    +0.000 A 
ATOM      6  N   UNL     1      50.197   6.569  16.463  0.00  0.00    +0.000 NA
ATOM      7  C   UNL     1      48.907   6.445  16.101  0.00  0.00    +0.000 A 
ATOM      8  C   UNL     1      48.181   5.344  16.478  0.00  0.00    +0.000 A 
ATOM      9  C   UNL     1      48.868   4.244  16.981  0.00  0.00    +0.000 A 
BRANCH   9  10
ATOM     10  C   UNL     1      48.211   2.951  16.726  0.00  0.00    +0.000 C 
ATOM     11  N   UNL     1      47.142   2.722  17.565  0.00  0.00    +0.000 N 
ATOM     12  O   UNL     1      48.540   2.196  15.822  0.00  0.00    +0.000 OA
ATOM     13  H   UNL     1      46.789   3.437  18.190  0.00  0.00    +0.000 HD
ATOM     14  H   UNL     1      46.572   1.897  17.423  0.00  0.00    +0.000 HD
ENDBRANCH   9  10
ENDBRANCH   1   7
BRANCH   1  15
ATOM     15  C   UNL     1      48.717   7.525  13.884  0.00  0.00    +0.000 C 
BRANCH  15  16
ATOM     16  C   UNL     1      47.464   7.544  13.049  0.00  0.00    +0.000 A 
ATOM     17  C   UNL     1      46.564   8.593  13.195  0.00  0.00    +0.000 A 
ATOM     18  N   UNL     1      45.401   8.681  12.529  0.00  0.00    +0.000 NA
ATOM     19  C   UNL     1      45.100   7.651  11.700  0.00  0.00    +0.000 A 
ATOM     20  C   UNL     1      45.875   6.503  11.487  0.00  0.00    +0.000 A 
ATOM     21  C   UNL     1      47.112   6.507  12.165  0.00  0.00    +0.000 A 
BRANCH  20  22
ATOM     22  C   UNL     1      45.350   5.329  10.715  0.00  0.00    +0.000 A 
ATOM     23  C   UNL     1      44.712   4.250  11.367  0.00  0.00    +0.000 A 
ATOM     24  C   UNL     1      44.388   3.055  10.709  0.00  0.00    +0.000 A 
ATOM     25  C   UNL     1      44.671   2.910   9.361  0.00  0.00    +0.000 A 
ATOM     26  C   UNL     1      45.226   3.977   8.664  0.00  0.00    +0.000 A 
ATOM     27  C   UNL     1      45.547   5.174   9.329  0.00  0.00    +0.000 A 
ENDBRANCH  20  22
ENDBRANCH  15  16
ENDBRANCH   1  15
TORSDOF 5
ENDMDL
MODEL 8
REMARK VINA RESULT:    -6.972      2.063      2.990
REMARK INTER + INTRA:          -9.723
REMARK INTER:                  -9.067
REMARK INTRA:                  -0.657
REMARK UNBOUND:                -0.714
REMARK  Name = 
REMARK  6 active torsions:
REMARK  status: ('A' for Active; 'I' for Inactive)
REMARK    1  A    between atoms: C_1  and  C_2
REMARK    2  A    between atoms: C_5  and  N_6
REMARK    3  A    between atoms: N_6  and  C_7
REMARK    4  A    between atoms: C_7  and  C_8
REMARK    5  A    between atoms: C_12  and  C_13
REMARK    6  A    between atoms: C_21  and  C_22
REMARK                            x       y       z     vdW  Elec       q    Type
REMARK                         _______ _______ _______ _____ _____    ______ ____
ROOT
ATOM      1  N   UNL     1      46.651   7.432  11.577  0.00  0.00    +0.000 N 
ATOM      2  H   UNL     1      46.937   7.010  10.696  0.00  0.00    +0.000 HD
ENDROOT
BRANCH   1   7
ATOM      3  C   UNL     1      50.315   6.994  15.850  0.00  0.00    +0.000 C 
ATOM      4  C   UNL     1      49.461   6.973  14.619  0.00  0.00    +0.000 A 
ATOM      5  C   UNL     1      48.207   6.388  14.623  0.00  0.00    +0.000 A 
ATOM      6  N   UNL     1      47.291   6.535  13.627  0.00  0.00    +0.000 NA
ATOM      7  C   UNL     1      47.646   7.189  12.506  0.00  0.00    +0.000 A 
ATOM      8  C   UNL     1      48.933   7.632  12.335  0.00  0.00    +0.000 A 
ATOM      9  C   UNL     1      49.772   7.653  13.444  0.00  0.00    +0.000 A 
BRANCH   9  10
ATOM     10  C   UNL     1      50.809   8.697  13.400  0.00  0.00    +0.000 C 
ATOM     11  N   UNL     1      50.447   9.837  14.085  0.00  0.00    +0.000 N 
ATOM     12  O   UNL     1      51.899   8.541  12.869  0.00  0.00    +0.000 OA
ATOM     13  H   UNL     1      49.611   9.876  14.656  0.00  0.00    +0.000 HD
ATOM     14  H   UNL     1      51.120  10.588  14.184  0.00  0.00    +0.000 HD
ENDBRANCH   9  10
ENDBRANCH   1   7
BRANCH   1  15
ATOM     15  C   UNL     1      45.244   7.254  11.916  0.00  0.00    +0.000 C 
BRANCH  15  16
ATOM     16  C   UNL     1      44.738   5.946  11.368  0.00  0.00    +0.000 A 
ATOM     17  C   UNL     1      43.756   5.250  12.061  0.00  0.00    +0.000 A 
ATOM     18  N   UNL     1      43.269   4.058  11.678  0.00  0.00    +0.000 NA
ATOM     19  C   UNL     1      43.815   3.512  10.564  0.00  0.00    +0.000 A 
ATOM     20  C   UNL     1      44.846   4.062   9.790  0.00  0.00    +0.000 A 
ATOM     21  C   UNL     1      45.263   5.343  10.208  0.00  0.00    +0.000 A 
BRANCH  20  22
ATOM     22  C   UNL     1      45.521   3.277   8.704  0.00  0.00    +0.000 A 
ATOM     23  C   UNL     1      45.612   1.869   8.767  0.00  0.00    +0.000 A 
ATOM     24  C   UNL     1      46.401   1.122   7.880  0.00  0.00    +0.000 A 
ATOM     25  C   UNL     1      47.109   1.764   6.878  0.00  0.00    +0.000 A 
ATOM     26  C   UNL     1      46.986   3.141   6.733  0.00  0.00    +0.000 A 
ATOM     27  C   UNL     1      46.191   3.884   7.624  0.00  0.00    +0.000 A 
ENDBRANCH  20  22
ENDBRANCH  15  16
ENDBRANCH   1  15
TORSDOF 5
ENDMDL
MODEL 9
REMARK VINA RESULT:    -6.567      2.780      4.985
REMARK INTER + INTRA:          -9.200
REMARK INTER:                  -8.537
REMARK INTRA:                  -0.663
REMARK UNBOUND:                -0.714
REMARK  Name = 
REMARK  6 active torsions:
REMARK  status: ('A' for Active; 'I' for Inactive)
REMARK    1  A    between atoms: C_1  and  C_2
REMARK    2  A    between atoms: C_5  and  N_6
REMARK    3  A    between atoms: N_6  and  C_7
REMARK    4  A    between atoms: C_7  and  C_8
REMARK    5  A    between atoms: C_12  and  C_13
REMARK    6  A    between atoms: C_21  and  C_22
REMARK                            x       y       z     vdW  Elec       q    Type
REMARK                         _______ _______ _______ _____ _____    ______ ____
ROOT
ATOM      1  N   UNL     1      48.336   7.251  15.100  0.00  0.00    +0.000 N 
ATOM      2  H   UNL     1      48.793   7.940  15.694  0.00  0.00    +0.000 HD
ENDROOT
BRANCH   1   7
ATOM      3  C   UNL     1      47.778   2.455  18.027  0.00  0.00    +0.000 C 
ATOM      4  C   UNL     1      48.114   3.659  17.200  0.00  0.00    +0.000 A 
ATOM      5  C   UNL     1      47.500   3.887  15.980  0.00  0.00    +0.000 A 
ATOM      6  N   UNL     1      47.576   5.060  15.293  0.00  0.00    +0.000 NA
ATOM      7  C   UNL     1      48.387   6.031  15.749  0.00  0.00    +0.000 A 
ATOM      8  C   UNL     1      49.184   5.817  16.845  0.00  0.00    +0.000 A 
ATOM      9  C   UNL     1      48.926   4.702  17.636  0.00  0.00    +0.000 A 
BRANCH   9  10
ATOM     10  C   UNL     1      49.285   4.869  19.054  0.00  0.00    +0.000 C 
ATOM     11  N   UNL     1      50.493   4.286  19.370  0.00  0.00    +0.000 N 
ATOM     12  O   UNL     1      48.614   5.514  19.847  0.00  0.00    +0.000 OA
ATOM     13  H   UNL     1      51.107   3.906  18.660  0.00  0.00    +0.000 HD
ATOM     14  H   UNL     1      50.872   4.410  20.302  0.00  0.00    +0.000 HD
ENDBRANCH   9  10
ENDBRANCH   1   7
BRANCH   1  15
ATOM     15  C   UNL     1      48.644   7.362  13.680  0.00  0.00    +0.000 C 
BRANCH  15  16
ATOM     16  C   UNL     1      47.375   7.386  12.871  0.00  0.00    +0.000 A 
ATOM     17  C   UNL     1      46.456   8.408  13.074  0.00  0.00    +0.000 A 
ATOM     18  N   UNL     1      45.278   8.496  12.434  0.00  0.00    +0.000 NA
ATOM     19  C   UNL     1      44.982   7.492  11.572  0.00  0.00    +0.000 A 
ATOM     20  C   UNL     1      45.777   6.371  11.301  0.00  0.00    +0.000 A 
ATOM     21  C   UNL     1      47.027   6.375  11.954  0.00  0.00    +0.000 A 
BRANCH  20  22
ATOM     22  C   UNL     1      45.261   5.215  10.494  0.00  0.00    +0.000 A 
ATOM     23  C   UNL     1      44.526   4.171  11.098  0.00  0.00    +0.000 A 
ATOM     24  C   UNL     1      44.201   2.987  10.421  0.00  0.00    +0.000 A 
ATOM     25  C   UNL     1      44.581   2.819   9.100  0.00  0.00    +0.000 A 
ATOM     26  C   UNL     1      45.237   3.855   8.445  0.00  0.00    +0.000 A 
ATOM     27  C   UNL     1      45.558   5.042   9.129  0.00  0.00    +0.000 A 
ENDBRANCH  20  22
ENDBRANCH  15  16
ENDBRANCH   1  15
TORSDOF 5
ENDMDL
