MODEL 1
REMARK VINA RESULT:    -8.774      0.000      0.000
REMARK INTER + INTRA:         -13.295
REMARK INTER:                 -12.365
REMARK INTRA:                  -0.930
REMARK UNBOUND:                -0.930
REMARK  Name = 
REMARK  8 active torsions:
REMARK  status: ('A' for Active; 'I' for Inactive)
REMARK    1  A    between atoms: C_1  and  N_2
REMARK    2  A    between atoms: C_4  and  O_5
REMARK    3  A    between atoms: O_5  and  C_6
REMARK    4  A    between atoms: C_11  and  C_12
REMARK    5  A    between atoms: C_12  and  C_13
REMARK    6  A    between atoms: C_13  and  O_14
REMARK    7  A    between atoms: O_14  and  C_15
REMARK    8  A    between atoms: C_18  and  C_19
REMARK                            x       y       z     vdW  Elec       q    Type
REMARK                         _______ _______ _______ _____ _____    ______ ____
ROOT
ATOM      1  C   UNL     1      43.349   4.887  12.354  0.00  0.00    +0.000 C 
ENDROOT
BRANCH   1   7
ATOM      2  C   UNL     1      46.925   4.734  13.797  0.00  0.00    +0.000 A 
ATOM      3  C   UNL     1      47.459   5.918  13.299  0.00  0.00    +0.000 A 
ATOM      4  C   UNL     1      46.665   6.756  12.512  0.00  0.00    +0.000 A 
ATOM      5  C   UNL     1      45.347   6.406  12.229  0.00  0.00    +0.000 A 
ATOM      6  F   UNL     1      44.610   7.236  11.478  0.00  0.00    +0.000 F 
ATOM      7  C   UNL     1      44.788   5.217  12.706  0.00  0.00    +0.000 A 
ATOM      8  C   UNL     1      45.606   4.384  13.492  0.00  0.00    +0.000 A 
BRANCH   2   9
ATOM      9  O   UNL     1      47.609   3.830  14.570  0.00  0.00    +0.000 OA
BRANCH   9  13
ATOM     10  C   UNL     1      49.828   4.036  18.353  0.00  0.00    +0.000 C 
ATOM     11  N   UNL     1      49.322   3.977  16.989  0.00  0.00    +0.000 NA
ATOM     12  C   UNL     1      48.250   4.976  16.780  0.00  0.00    +0.000 C 
ATOM     13  C   UNL     1      47.449   3.894  16.009  0.00  0.00    +0.000 C 
ATOM     14  C   UNL     1      48.317   2.900  16.829  0.00  0.00    +0.000 C 
ENDBRANCH   9  13
ENDBRANCH   2   9
ENDBRANCH   1   7
BRANCH   1  15
ATOM     15  C   UNL     1      43.205   3.996  11.121  0.00  0.00    +0.000 C 
BRANCH  15  16
ATOM     16  O   UNL     1      43.531   4.676   9.903  0.00  0.00    +0.000 OA
BRANCH  16  17
ATOM     17  C   UNL     1      44.485   3.955   9.201  0.00  0.00    +0.000 A 
ATOM     18  C   UNL     1      44.569   2.592   9.428  0.00  0.00    +0.000 A 
ATOM     19  C   UNL     1      45.522   1.862   8.711  0.00  0.00    +0.000 A 
ATOM     20  C   UNL     1      46.353   2.509   7.789  0.00  0.00    +0.000 A 
ATOM     21  C   UNL     1      46.189   3.874   7.638  0.00  0.00    +0.000 A 
ATOM     22  N   UNL     1      45.281   4.605   8.322  0.00  0.00    +0.000 NA
BRANCH  20  23
ATOM     23  C   UNL     1      47.356   1.732   7.023  0.00  0.00    +0.000 C 
ATOM     24  N   UNL     1      48.441   2.380   6.499  0.00  0.00    +0.000 N 
ATOM     25  O   UNL     1      47.222   0.527   6.853  0.00  0.00    +0.000 OA
ATOM     26  H   UNL     1      48.641   3.366   6.561  0.00  0.00    +0.000 HD
ATOM     27  H   UNL     1      49.094   1.811   5.974  0.00  0.00    +0.000 HD
ENDBRANCH  20  23
ENDBRANCH  16  17
ENDBRANCH  15  16
ENDBRANCH   1  15
TORSDOF 7
ENDMDL
MODEL 2
REMARK VINA RESULT:    -7.612      3.110      5.126
REMARK INTER + INTRA:         -11.657
REMARK INTER:                 -10.861
REMARK INTRA:                  -0.796
REMARK UNBOUND:                -0.930
REMARK  Name = 
REMARK  8 active torsions:
REMARK  status: ('A' for Active; 'I' for Inactive)
REMARK    1  A    between atoms: C_1  and  N_2
REMARK    2  A    between atoms: C_4  and  O_5
REMARK    3  A    between atoms: O_5  and  C_6
REMARK    4  A    between atoms: C_11  and  C_12
REMARK    5  A    between atoms: C_12  and  C_13
REMARK    6  A    between atoms: C_13  and  O_14
REMARK    7  A    between atoms: O_14  and  C_15
REMARK    8  A    between atoms: C_18  and  C_19
REMARK                            x       y       z     vdW  Elec       q    Type
REMARK                         _______ _______ _______ _____ _____    ______ ____
ROOT
ATOM      1  C   UNL     1      44.644   4.485  12.402  0.00  0.00    +0.000 C 
ENDROOT
BRANCH   1   7
ATOM      2  C   UNL     1      45.905   8.079  13.027  0.00  0.00    +0.000 A 
ATOM      3  C   UNL     1      47.197   7.828  13.474  0.00  0.00    +0.000 A 
ATOM      4  C   UNL     1      47.654   6.511  13.563  0.00  0.00    +0.000 A 
ATOM      5  C   UNL     1      46.818   5.456  13.206  0.00  0.00    +0.000 A 
ATOM      6  F   UNL     1      47.289   4.204  13.297  0.00  0.00    +0.000 F 
ATOM      7  C   UNL     1      45.510   5.677  12.766  0.00  0.00    +0.000 A 
ATOM      8  C   UNL     1      45.067   7.010  12.688  0.00  0.00    +0.000 A 
BRANCH   2   9
ATOM      9  O   UNL     1      45.345   9.325  12.907  0.00  0.00    +0.000 OA
BRANCH   9  13
ATOM     10  C   UNL     1      43.417  12.600  10.706  0.00  0.00    +0.000 C 
ATOM     11  N   UNL     1      43.978  11.638  11.644  0.00  0.00    +0.000 NA
ATOM     12  C   UNL     1      45.392  11.345  11.317  0.00  0.00    +0.000 C 
ATOM     13  C   UNL     1      45.098   9.844  11.576  0.00  0.00    +0.000 C 
ATOM     14  C   UNL     1      43.629  10.248  11.271  0.00  0.00    +0.000 C 
ENDBRANCH   9  13
ENDBRANCH   2   9
ENDBRANCH   1   7
BRANCH   1  15
ATOM     15  C   UNL     1      43.791   4.700  11.154  0.00  0.00    +0.000 C 
BRANCH  15  16
ATOM     16  O   UNL     1      43.471   3.476  10.482  0.00  0.00    +0.000 OA
BRANCH  16  17
ATOM     17  C   UNL     1      44.436   3.196   9.525  0.00  0.00    +0.000 A 
ATOM     18  C   UNL     1      44.958   4.252   8.799  0.00  0.00    +0.000 A 
ATOM     19  C   UNL     1      45.940   3.973   7.843  0.00  0.00    +0.000 A 
ATOM     20  C   UNL     1      46.372   2.656   7.646  0.00  0.00    +0.000 A 
ATOM     21  C   UNL     1      45.783   1.674   8.423  0.00  0.00    +0.000 A 
ATOM     22  N   UNL     1      44.830   1.914   9.349  0.00  0.00    +0.000 NA
BRANCH  20  23
ATOM     23  C   UNL     1      47.418   2.363   6.639  0.00  0.00    +0.000 C 
ATOM     24  N   UNL     1      47.462   3.103   5.489  0.00  0.00    +0.000 N 
ATOM     25  O   UNL     1      48.235   1.469   6.822  0.00  0.00    +0.000 OA
ATOM     26  H   UNL     1      46.832   3.845   5.227  0.00  0.00    +0.000 HD
ATOM     27  H   UNL     1      48.186   2.860   4.825  0.00  0.00    +0.000 HD
ENDBRANCH  20  23
ENDBRANCH  16  17
ENDBRANCH  15  16
ENDBRANCH   1  15
TORSDOF 7
ENDMDL
MODEL 3
REMARK VINA RESULT:    -7.347      2.752      4.049
REMARK INTER + INTRA:         -11.284
REMARK INTER:                 -10.435
REMARK INTRA:                  -0.849
REMARK UNBOUND:                -0.930
REMARK  Name = 
REMARK  8 active torsions:
REMARK  status: ('A' for Active; 'I' for Inactive)
REMARK    1  A    between atoms: C_1  and  N_2
REMARK    2  A    between atoms: C_4  and  O_5
REMARK    3  A    between atoms: O_5  and  C_6
REMARK    4  A    between atoms: C_11  and  C_12
REMARK    5  A    between atoms: C_12  and  C_13
REMARK    6  A    between atoms: C_13  and  O_14
REMARK    7  A    between atoms: O_14  and  C_15
REMARK    8  A    between atoms: C_18  and  C_19
REMARK                            x       y       z     vdW  Elec       q    Type
REMARK                         _______ _______ _______ _____ _____    ______ ____
ROOT
ATOM      1  C   UNL     1      43.679   4.682  12.360  0.00  0.00    +0.000 C 
ENDROOT
BRANCH   1   7
ATOM      2  C   UNL     1      46.520   7.119  13.300  0.00  0.00    +0.000 A 
ATOM      3  C   UNL     1      47.540   6.225  13.607  0.00  0.00    +0.000 A 
ATOM      4  C   UNL     1      47.310   4.851  13.502  0.00  0.00    +0.000 A 
ATOM      5  C   UNL     1      46.064   4.381  13.092  0.00  0.00    +0.000 A 
ATOM      6  F   UNL     1      45.877   3.058  12.995  0.00  0.00    +0.000 F 
ATOM      7  C   UNL     1      45.017   5.256  12.790  0.00  0.00    +0.000 A 
ATOM      8  C   UNL     1      45.267   6.636  12.907  0.00  0.00    +0.000 A 
BRANCH   2   9
ATOM      9  O   UNL     1      46.626   8.485  13.375  0.00  0.00    +0.000 OA
BRANCH   9  13
ATOM     10  C   UNL     1      49.965  10.930  11.907  0.00  0.00    +0.000 C 
ATOM     11  N   UNL     1      48.994  10.102  12.609  0.00  0.00    +0.000 NA
ATOM     12  C   UNL     1      48.585   8.948  11.776  0.00  0.00    +0.000 C 
ATOM     13  C   UNL     1      47.120   9.202  12.217  0.00  0.00    +0.000 C 
ATOM     14  C   UNL     1      47.623  10.648  12.482  0.00  0.00    +0.000 C 
ENDBRANCH   9  13
ENDBRANCH   2   9
ENDBRANCH   1   7
BRANCH   1  15
ATOM     15  C   UNL     1      43.530   4.530  10.848  0.00  0.00    +0.000 C 
BRANCH  15  16
ATOM     16  O   UNL     1      43.509   3.161  10.427  0.00  0.00    +0.000 OA
BRANCH  16  17
ATOM     17  C   UNL     1      44.479   2.949   9.458  0.00  0.00    +0.000 A 
ATOM     18  C   UNL     1      45.046   4.056   8.852  0.00  0.00    +0.000 A 
ATOM     19  C   UNL     1      46.034   3.844   7.885  0.00  0.00    +0.000 A 
ATOM     20  C   UNL     1      46.425   2.541   7.556  0.00  0.00    +0.000 A 
ATOM     21  C   UNL     1      45.793   1.504   8.219  0.00  0.00    +0.000 A 
ATOM     22  N   UNL     1      44.833   1.680   9.154  0.00  0.00    +0.000 NA
BRANCH  20  23
ATOM     23  C   UNL     1      47.477   2.318   6.537  0.00  0.00    +0.000 C 
ATOM     24  N   UNL     1      47.398   2.981   5.343  0.00  0.00    +0.000 N 
ATOM     25  O   UNL     1      48.407   1.550   6.750  0.00  0.00    +0.000 OA
ATOM     26  H   UNL     1      46.672   3.618   5.056  0.00  0.00    +0.000 HD
ATOM     27  H   UNL     1      48.133   2.790   4.672  0.00  0.00    +0.000 HD
ENDBRANCH  20  23
ENDBRANCH  16  17
ENDBRANCH  15  16
ENDBRANCH   1  15
TORSDOF 7
ENDMDL
MODEL 4
REMARK VINA RESULT:    -6.986      1.587      1.863
REMARK INTER + INTRA:         -10.776
REMARK INTER:                 -10.036
REMARK INTRA:                  -0.740
REMARK UNBOUND:                -0.930
REMARK  Name = 
REMARK  8 active torsions:
REMARK  status: ('A' for Active; 'I' for Inactive)
REMARK    1  A    between atoms: C_1  and  N_2
REMARK    2  A    between atoms: C_4  and  O_5
REMARK    3  A    between atoms: O_5  and  C_6
REMARK    4  A    between atoms: C_11  and  C_12
REMARK    5  A    between atoms: C_12  and  C_13
REMARK    6  A    between atoms: C_13  and  O_14
REMARK    7  A    between atoms: O_14  and  C_15
REMARK    8  A    between atoms: C_18  and  C_19
REMARK                            x       y       z     vdW  Elec       q    Type
REMARK                         _______ _______ _______ _____ _____    ______ ____
ROOT
ATOM      1  C   UNL     1      43.535   5.771  12.019  0.00  0.00    +0.000 C 
ENDROOT
BRANCH   1   7
ATOM      2  C   UNL     1      47.041   6.816  13.246  0.00  0.00    +0.000 A 
ATOM      3  C   UNL     1      47.143   8.088  12.694  0.00  0.00    +0.000 A 
ATOM      4  C   UNL     1      46.084   8.601  11.941  0.00  0.00    +0.000 A 
ATOM      5  C   UNL     1      44.933   7.840  11.745  0.00  0.00    +0.000 A 
ATOM      6  F   UNL     1      43.933   8.364  11.023  0.00  0.00    +0.000 F 
ATOM      7  C   UNL     1      44.809   6.554  12.277  0.00  0.00    +0.000 A 
ATOM      8  C   UNL     1      45.889   6.054  13.028  0.00  0.00    +0.000 A 
BRANCH   2   9
ATOM      9  O   UNL     1      48.017   6.206  13.994  0.00  0.00    +0.000 OA
BRANCH   9  13
ATOM     10  C   UNL     1      50.863   5.879  17.322  0.00  0.00    +0.000 C 
ATOM     11  N   UNL     1      50.021   5.768  16.139  0.00  0.00    +0.000 NA
ATOM     12  C   UNL     1      50.030   7.029  15.364  0.00  0.00    +0.000 C 
ATOM     13  C   UNL     1      48.497   6.881  15.183  0.00  0.00    +0.000 C 
ATOM     14  C   UNL     1      48.595   6.006  16.463  0.00  0.00    +0.000 C 
ENDBRANCH   9  13
ENDBRANCH   2   9
ENDBRANCH   1   7
BRANCH   1  15
ATOM     15  C   UNL     1      43.632   4.806  10.839  0.00  0.00    +0.000 C 
BRANCH  15  16
ATOM     16  O   UNL     1      44.442   5.314   9.772  0.00  0.00    +0.000 OA
BRANCH  16  17
ATOM     17  C   UNL     1      45.113   4.271   9.151  0.00  0.00    +0.000 A 
ATOM     18  C   UNL     1      44.891   2.986   9.614  0.00  0.00    +0.000 A 
ATOM     19  C   UNL     1      45.557   1.932   8.980  0.00  0.00    +0.000 A 
ATOM     20  C   UNL     1      46.417   2.191   7.906  0.00  0.00    +0.000 A 
ATOM     21  C   UNL     1      46.571   3.512   7.524  0.00  0.00    +0.000 A 
ATOM     22  N   UNL     1      45.944   4.549   8.121  0.00  0.00    +0.000 NA
BRANCH  20  23
ATOM     23  C   UNL     1      47.115   1.073   7.231  0.00  0.00    +0.000 C 
ATOM     24  N   UNL     1      46.770  -0.214   7.544  0.00  0.00    +0.000 N 
ATOM     25  O   UNL     1      47.994   1.287   6.404  0.00  0.00    +0.000 OA
ATOM     26  H   UNL     1      46.080  -0.504   8.218  0.00  0.00    +0.000 HD
ATOM     27  H   UNL     1      47.282  -0.946   7.065  0.00  0.00    +0.000 HD
ENDBRANCH  20  23
ENDBRANCH  16  17
ENDBRANCH  15  16
ENDBRANCH   1  15
TORSDOF 7
ENDMDL
MODEL 5
REMARK VINA RESULT:    -6.819      1.895      8.307
REMARK INTER + INTRA:         -10.540
REMARK INTER:                  -9.866
REMARK INTRA:                  -0.673
REMARK UNBOUND:                -0.930
REMARK  Name = 
REMARK  8 active torsions:
REMARK  status: ('A' for Active; 'I' for Inactive)
REMARK    1  A    between atoms: C_1  and  N_2
REMARK    2  A    between atoms: C_4  and  O_5
REMARK    3  A    between atoms: O_5  and  C_6
REMARK    4  A    between atoms: C_11  and  C_12
REMARK    5  A    between atoms: C_12  and  C_13
REMARK    6  A    between atoms: C_13  and  O_14
REMARK    7  A    between atoms: O_14  and  C_15
REMARK    8  A    between atoms: C_18  and  C_19
REMARK                            x       y       z     vdW  Elec       q    Type
REMARK                         _______ _______ _______ _____ _____    ______ ____
ROOT
ATOM      1  C   UNL     1      46.257   6.559  12.982  0.00  0.00    +0.000 C 
ENDROOT
BRANCH   1   7
ATOM      2  C   UNL     1      45.045   4.977   9.677  0.00  0.00    +0.000 A 
ATOM      3  C   UNL     1      43.764   4.574  10.034  0.00  0.00    +0.000 A 
ATOM      4  C   UNL     1      43.298   4.821  11.328  0.00  0.00    +0.000 A 
ATOM      5  C   UNL     1      44.115   5.466  12.253  0.00  0.00    +0.000 A 
ATOM      6  F   UNL     1      43.635   5.694  13.484  0.00  0.00    +0.000 F 
ATOM      7  C   UNL     1      45.412   5.870  11.926  0.00  0.00    +0.000 A 
ATOM      8  C   UNL     1      45.864   5.608  10.620  0.00  0.00    +0.000 A 
BRANCH   2   9
ATOM      9  O   UNL     1      45.613   4.781   8.443  0.00  0.00    +0.000 OA
BRANCH   9  13
ATOM     10  C   UNL     1      47.359   1.003   7.042  0.00  0.00    +0.000 C 
ATOM     11  N   UNL     1      47.010   2.299   7.608  0.00  0.00    +0.000 NA
ATOM     12  C   UNL     1      45.750   2.215   8.381  0.00  0.00    +0.000 C 
ATOM     13  C   UNL     1      45.312   3.554   7.733  0.00  0.00    +0.000 C 
ATOM     14  C   UNL     1      46.317   3.155   6.618  0.00  0.00    +0.000 C 
ENDBRANCH   9  13
ENDBRANCH   2   9
ENDBRANCH   1   7
BRANCH   1  15
ATOM     15  C   UNL     1      47.556   5.825  13.307  0.00  0.00    +0.000 C 
BRANCH  15  16
ATOM     16  O   UNL     1      47.337   4.576  13.973  0.00  0.00    +0.000 OA
BRANCH  16  17
ATOM     17  C   UNL     1      47.634   4.700  15.322  0.00  0.00    +0.000 A 
ATOM     18  C   UNL     1      47.072   3.790  16.199  0.00  0.00    +0.000 A 
ATOM     19  C   UNL     1      47.381   3.906  17.558  0.00  0.00    +0.000 A 
ATOM     20  C   UNL     1      48.240   4.921  17.997  0.00  0.00    +0.000 A 
ATOM     21  C   UNL     1      48.746   5.781  17.038  0.00  0.00    +0.000 A 
ATOM     22  N   UNL     1      48.460   5.694  15.721  0.00  0.00    +0.000 NA
BRANCH  20  23
ATOM     23  C   UNL     1      48.574   5.038  19.436  0.00  0.00    +0.000 C 
ATOM     24  N   UNL     1      49.622   4.316  19.938  0.00  0.00    +0.000 N 
ATOM     25  O   UNL     1      47.923   5.767  20.175  0.00  0.00    +0.000 OA
ATOM     26  H   UNL     1      50.209   3.675  19.428  0.00  0.00    +0.000 HD
ATOM     27  H   UNL     1      49.805   4.419  20.929  0.00  0.00    +0.000 HD
ENDBRANCH  20  23
ENDBRANCH  16  17
ENDBRANCH  15  16
ENDBRANCH   1  15
TORSDOF 7
ENDMDL
MODEL 6
REMARK VINA RESULT:    -6.759      1.818      7.701
REMARK INTER + INTRA:         -10.456
REMARK INTER:                  -9.519
REMARK INTRA:                  -0.937
REMARK UNBOUND:                -0.930
REMARK  Name = 
REMARK  8 active torsions:
REMARK  status: ('A' for Active; 'I' for Inactive)
REMARK    1  A    between atoms: C_1  and  N_2
REMARK    2  A    between atoms: C_4  and  O_5
REMARK    3  A    between atoms: O_5  and  C_6
REMARK    4  A    between atoms: C_11  and  C_12
REMARK    5  A    between atoms: C_12  and  C_13
REMARK    6  A    between atoms: C_13  and  O_14
REMARK    7  A    between atoms: O_14  and  C_15
REMARK    8  A    between atoms: C_18  and  C_19
REMARK                            x       y       z     vdW  Elec       q    Type
REMARK                         _______ _______ _______ _____ _____    ______ ____
ROOT
ATOM      1  C   UNL     1      45.018   6.923  11.390  0.00  0.00    +0.000 C 
ENDROOT
BRANCH   1   7
ATOM      2  C   UNL     1      44.442   3.387   9.952  0.00  0.00    +0.000 A 
ATOM      3  C   UNL     1      43.671   2.818  10.959  0.00  0.00    +0.000 A 
ATOM      4  C   UNL     1      43.337   3.575  12.085  0.00  0.00    +0.000 A 
ATOM      5  C   UNL     1      43.775   4.893  12.196  0.00  0.00    +0.000 A 
ATOM      6  F   UNL     1      43.431   5.594  13.285  0.00  0.00    +0.000 F 
ATOM      7  C   UNL     1      44.562   5.487  11.206  0.00  0.00    +0.000 A 
ATOM      8  C   UNL     1      44.893   4.706  10.083  0.00  0.00    +0.000 A 
BRANCH   2   9
ATOM      9  O   UNL     1      44.840   2.741   8.809  0.00  0.00    +0.000 OA
BRANCH   9  13
ATOM     10  C   UNL     1      47.579   2.442   5.390  0.00  0.00    +0.000 C 
ATOM     11  N   UNL     1      46.487   2.507   6.351  0.00  0.00    +0.000 NA
ATOM     12  C   UNL     1      46.617   3.700   7.217  0.00  0.00    +0.000 C 
ATOM     13  C   UNL     1      46.237   2.811   8.430  0.00  0.00    +0.000 C 
ATOM     14  C   UNL     1      46.751   1.651   7.532  0.00  0.00    +0.000 C 
ENDBRANCH   9  13
ENDBRANCH   2   9
ENDBRANCH   1   7
BRANCH   1  15
ATOM     15  C   UNL     1      46.045   7.106  12.505  0.00  0.00    +0.000 C 
BRANCH  15  16
ATOM     16  O   UNL     1      47.083   6.119  12.471  0.00  0.00    +0.000 OA
BRANCH  16  17
ATOM     17  C   UNL     1      47.408   5.731  13.763  0.00  0.00    +0.000 A 
ATOM     18  C   UNL     1      46.762   4.628  14.293  0.00  0.00    +0.000 A 
ATOM     19  C   UNL     1      47.098   4.227  15.590  0.00  0.00    +0.000 A 
ATOM     20  C   UNL     1      48.068   4.933  16.313  0.00  0.00    +0.000 A 
ATOM     21  C   UNL     1      48.652   6.022  15.691  0.00  0.00    +0.000 A 
ATOM     22  N   UNL     1      48.343   6.434  14.442  0.00  0.00    +0.000 NA
BRANCH  20  23
ATOM     23  C   UNL     1      48.429   4.502  17.683  0.00  0.00    +0.000 C 
ATOM     24  N   UNL     1      47.443   4.064  18.525  0.00  0.00    +0.000 N 
ATOM     25  O   UNL     1      49.591   4.538  18.069  0.00  0.00    +0.000 OA
ATOM     26  H   UNL     1      46.458   4.011  18.321  0.00  0.00    +0.000 HD
ATOM     27  H   UNL     1      47.735   3.791  19.456  0.00  0.00    +0.000 HD
ENDBRANCH  20  23
ENDBRANCH  16  17
ENDBRANCH  15  16
ENDBRANCH   1  15
TORSDOF 7
ENDMDL
MODEL 7
REMARK VINA RESULT:    -6.130      3.483      7.528
REMARK INTER + INTRA:          -9.568
REMARK INTER:                  -8.543
REMARK INTRA:                  -1.025
REMARK UNBOUND:                -0.930
REMARK  Name = 
REMARK  8 active torsions:
REMARK  status: ('A' for Active; 'I' for Inactive)
REMARK    1  A    between atoms: C_1  and  N_2
REMARK    2  A    between atoms: C_4  and  O_5
REMARK    3  A    between atoms: O_5  and  C_6
REMARK    4  A    between atoms: C_11  and  C_12
REMARK    5  A    between atoms: C_12  and  C_13
REMARK    6  A    between atoms: C_13  and  O_14
REMARK    7  A    between atoms: O_14  and  C_15
REMARK    8  A    between atoms: C_18  and  C_19
REMARK                            x       y       z     vdW  Elec       q    Type
REMARK                         _______ _______ _______ _____ _____    ______ ____
ROOT
ATOM      1  C   UNL     1      49.167   8.001  11.924  0.00  0.00    +0.000 C 
ENDROOT
BRANCH   1   7
ATOM      2  C   UNL     1      45.313   7.827  11.857  0.00  0.00    +0.000 A 
ATOM      3  C   UNL     1      44.988   9.174  11.977  0.00  0.00    +0.000 A 
ATOM      4  C   UNL     1      46.007  10.124  12.069  0.00  0.00    +0.000 A 
ATOM      5  C   UNL     1      47.341   9.723  12.043  0.00  0.00    +0.000 A 
ATOM      6  F   UNL     1      48.295  10.661  12.127  0.00  0.00    +0.000 F 
ATOM      7  C   UNL     1      47.697   8.376  11.937  0.00  0.00    +0.000 A 
ATOM      8  C   UNL     1      46.655   7.434  11.850  0.00  0.00    +0.000 A 
BRANCH   2   9
ATOM      9  O   UNL     1      44.401   6.806  11.768  0.00  0.00    +0.000 OA
BRANCH   9  13
ATOM     10  C   UNL     1      43.298   2.557  11.647  0.00  0.00    +0.000 C 
ATOM     11  N   UNL     1      43.430   4.001  11.782  0.00  0.00    +0.000 NA
ATOM     12  C   UNL     1      43.926   4.605  10.525  0.00  0.00    +0.000 C 
ATOM     13  C   UNL     1      44.873   5.493  11.375  0.00  0.00    +0.000 C 
ATOM     14  C   UNL     1      44.707   4.370  12.436  0.00  0.00    +0.000 C 
ENDBRANCH   9  13
ENDBRANCH   2   9
ENDBRANCH   1   7
BRANCH   1  15
ATOM     15  C   UNL     1      49.607   7.189  13.140  0.00  0.00    +0.000 C 
BRANCH  15  16
ATOM     16  O   UNL     1      49.069   7.693  14.369  0.00  0.00    +0.000 OA
BRANCH  16  17
ATOM     17  C   UNL     1      48.699   6.638  15.190  0.00  0.00    +0.000 A 
ATOM     18  C   UNL     1      49.175   6.627  16.490  0.00  0.00    +0.000 A 
ATOM     19  C   UNL     1      48.793   5.571  17.323  0.00  0.00    +0.000 A 
ATOM     20  C   UNL     1      47.947   4.566  16.838  0.00  0.00    +0.000 A 
ATOM     21  C   UNL     1      47.530   4.670  15.523  0.00  0.00    +0.000 A 
ATOM     22  N   UNL     1      47.888   5.676  14.695  0.00  0.00    +0.000 NA
BRANCH  20  23
ATOM     23  C   UNL     1      47.536   3.452  17.724  0.00  0.00    +0.000 C 
ATOM     24  N   UNL     1      48.330   3.121  18.788  0.00  0.00    +0.000 N 
ATOM     25  O   UNL     1      46.503   2.828  17.513  0.00  0.00    +0.000 OA
ATOM     26  H   UNL     1      49.205   3.551  19.043  0.00  0.00    +0.000 HD
ATOM     27  H   UNL     1      48.015   2.346  19.360  0.00  0.00    +0.000 HD
ENDBRANCH  20  23
ENDBRANCH  16  17
ENDBRANCH  15  16
ENDBRANCH   1  15
TORSDOF 7
ENDMDL
MODEL 8
REMARK VINA RESULT:    -6.129      3.934      6.479
REMARK INTER + INTRA:          -9.568
REMARK INTER:                  -8.940
REMARK INTRA:                  -0.627
REMARK UNBOUND:                -0.930
REMARK  Name = 
REMARK  8 active torsions:
REMARK  status: ('A' for Active; 'I' for Inactive)
REMARK    1  A    between atoms: C_1  and  N_2
REMARK    2  A    between atoms: C_4  and  O_5
REMARK    3  A    between atoms: O_5  and  C_6
REMARK    4  A    between atoms: C_11  and  C_12
REMARK    5  A    between atoms: C_12  and  C_13
REMARK    6  A    between atoms: C_13  and  O_14
REMARK    7  A    between atoms: O_14  and  C_15
REMARK    8  A    between atoms: C_18  and  C_19
REMARK                            x       y       z     vdW  Elec       q    Type
REMARK                         _______ _______ _______ _____ _____    ______ ____
ROOT
ATOM      1  C   UNL     1      48.300   2.643  16.713  0.00  0.00    +0.000 C 
ENDROOT
BRANCH   1   7
ATOM      2  C   UNL     1      50.256   5.256  18.773  0.00  0.00    +0.000 A 
ATOM      3  C   UNL     1      51.528   4.695  18.767  0.00  0.00    +0.000 A 
ATOM      4  C   UNL     1      51.748   3.490  18.097  0.00  0.00    +0.000 A 
ATOM      5  C   UNL     1      50.697   2.854  17.439  0.00  0.00    +0.000 A 
ATOM      6  F   UNL     1      50.943   1.702  16.799  0.00  0.00    +0.000 F 
ATOM      7  C   UNL     1      49.406   3.388  17.439  0.00  0.00    +0.000 A 
ATOM      8  C   UNL     1      49.204   4.600  18.124  0.00  0.00    +0.000 A 
BRANCH   2   9
ATOM      9  O   UNL     1      49.918   6.427  19.403  0.00  0.00    +0.000 OA
BRANCH   9  13
ATOM     10  C   UNL     1      47.057   9.626  20.336  0.00  0.00    +0.000 C 
ATOM     11  N   UNL     1      48.179   8.752  20.020  0.00  0.00    +0.000 NA
ATOM     12  C   UNL     1      47.853   7.867  18.879  0.00  0.00    +0.000 C 
ATOM     13  C   UNL     1      48.516   6.696  19.652  0.00  0.00    +0.000 C 
ATOM     14  C   UNL     1      48.206   7.563  20.904  0.00  0.00    +0.000 C 
ENDBRANCH   9  13
ENDBRANCH   2   9
ENDBRANCH   1   7
BRANCH   1  15
ATOM     15  C   UNL     1      47.463   3.526  15.791  0.00  0.00    +0.000 C 
BRANCH  15  16
ATOM     16  O   UNL     1      47.583   3.160  14.411  0.00  0.00    +0.000 OA
BRANCH  16  17
ATOM     17  C   UNL     1      46.628   3.829  13.660  0.00  0.00    +0.000 A 
ATOM     18  C   UNL     1      46.626   5.212  13.691  0.00  0.00    +0.000 A 
ATOM     19  C   UNL     1      45.672   5.888  12.923  0.00  0.00    +0.000 A 
ATOM     20  C   UNL     1      44.755   5.165  12.150  0.00  0.00    +0.000 A 
ATOM     21  C   UNL     1      44.841   3.785  12.192  0.00  0.00    +0.000 A 
ATOM     22  N   UNL     1      45.749   3.107  12.928  0.00  0.00    +0.000 NA
BRANCH  20  23
ATOM     23  C   UNL     1      43.750   5.882  11.331  0.00  0.00    +0.000 C 
ATOM     24  N   UNL     1      43.732   7.250  11.346  0.00  0.00    +0.000 N 
ATOM     25  O   UNL     1      42.939   5.267  10.650  0.00  0.00    +0.000 OA
ATOM     26  H   UNL     1      44.337   7.854  11.881  0.00  0.00    +0.000 HD
ATOM     27  H   UNL     1      43.021   7.697  10.780  0.00  0.00    +0.000 HD
ENDBRANCH  20  23
ENDBRANCH  16  17
ENDBRANCH  15  16
ENDBRANCH   1  15
TORSDOF 7
ENDMDL
MODEL 9
REMARK VINA RESULT:    -5.791      2.126      7.790
REMARK INTER + INTRA:          -9.091
REMARK INTER:                  -8.371
REMARK INTRA:                  -0.720
REMARK UNBOUND:                -0.930
REMARK  Name = 
REMARK  8 active torsions:
REMARK  status: ('A' for Active; 'I' for Inactive)
REMARK    1  A    between atoms: C_1  and  N_2
REMARK    2  A    between atoms: C_4  and  O_5
REMARK    3  A    between atoms: O_5  and  C_6
REMARK    4  A    between atoms: C_11  and  C_12
REMARK    5  A    between atoms: C_12  and  C_13
REMARK    6  A    between atoms: C_13  and  O_14
REMARK    7  A    between atoms: O_14  and  C_15
REMARK    8  A    between atoms: C_18  and  C_19
REMARK                            x       y       z     vdW  Elec       q    Type
REMARK                         _______ _______ _______ _____ _____    ______ ____
ROOT
ATOM      1  C   UNL     1      47.891   7.684  11.925  0.00  0.00    +0.000 C 
ENDROOT
BRANCH   1   7
ATOM      2  C   UNL     1      45.034   5.160  11.324  0.00  0.00    +0.000 A 
ATOM      3  C   UNL     1      43.927   5.998  11.386  0.00  0.00    +0.000 A 
ATOM      4  C   UNL     1      44.107   7.365  11.613  0.00  0.00    +0.000 A 
ATOM      5  C   UNL     1      45.391   7.883  11.775  0.00  0.00    +0.000 A 
ATOM      6  F   UNL     1      45.530   9.199  11.984  0.00  0.00    +0.000 F 
ATOM      7  C   UNL     1      46.521   7.062  11.730  0.00  0.00    +0.000 A 
ATOM      8  C   UNL     1      46.317   5.688  11.506  0.00  0.00    +0.000 A 
BRANCH   2   9
ATOM      9  O   UNL     1      44.981   3.805  11.117  0.00  0.00    +0.000 OA
BRANCH   9  13
ATOM     10  C   UNL     1      46.059   2.951   6.946  0.00  0.00    +0.000 C 
ATOM     11  N   UNL     1      45.947   3.295   8.357  0.00  0.00    +0.000 NA
ATOM     12  C   UNL     1      45.256   2.223   9.108  0.00  0.00    +0.000 C 
ATOM     13  C   UNL     1      44.455   3.321   9.856  0.00  0.00    +0.000 C 
ATOM     14  C   UNL     1      44.790   4.185   8.609  0.00  0.00    +0.000 C 
ENDBRANCH   9  13
ENDBRANCH   2   9
ENDBRANCH   1   7
BRANCH   1  15
ATOM     15  C   UNL     1      48.704   7.045  13.049  0.00  0.00    +0.000 C 
BRANCH  15  16
ATOM     16  O   UNL     1      48.276   7.462  14.351  0.00  0.00    +0.000 OA
BRANCH  16  17
ATOM     17  C   UNL     1      48.439   6.424  15.257  0.00  0.00    +0.000 A 
ATOM     18  C   UNL     1      49.273   6.633  16.341  0.00  0.00    +0.000 A 
ATOM     19  C   UNL     1      49.428   5.592  17.263  0.00  0.00    +0.000 A 
ATOM     20  C   UNL     1      48.747   4.383  17.076  0.00  0.00    +0.000 A 
ATOM     21  C   UNL     1      47.940   4.277  15.957  0.00  0.00    +0.000 A 
ATOM     22  N   UNL     1      47.776   5.264  15.049  0.00  0.00    +0.000 NA
BRANCH  20  23
ATOM     23  C   UNL     1      48.906   3.284  18.057  0.00  0.00    +0.000 C 
ATOM     24  N   UNL     1      48.447   3.460  19.334  0.00  0.00    +0.000 N 
ATOM     25  O   UNL     1      49.445   2.230  17.740  0.00  0.00    +0.000 OA
ATOM     26  H   UNL     1      48.007   4.287  19.707  0.00  0.00    +0.000 HD
ATOM     27  H   UNL     1      48.587   2.687  19.973  0.00  0.00    +0.000 HD
ENDBRANCH  20  23
ENDBRANCH  16  17
ENDBRANCH  15  16
ENDBRANCH   1  15
TORSDOF 7
ENDMDL
