MODEL 1
REMARK VINA RESULT:    -8.931      0.000      0.000
REMARK INTER + INTRA:         -11.955
REMARK INTER:                 -11.541
REMARK INTRA:                  -0.414
REMARK UNBOUND:                -0.414
REMARK  Name = 
REMARK  5 active torsions:
REMARK  status: ('A' for Active; 'I' for Inactive)
REMARK    1  A    between atoms: C_2  and  C_4
REMARK    2  A    between atoms: N_8  and  C_9
REMARK    3  A    between atoms: C_9  and  C_10
REMARK    4  A    between atoms: C_10  and  C_11
REMARK    5  A    between atoms: C_15  and  C_16
REMARK                            x       y       z     vdW  Elec       q    Type
REMARK                         _______ _______ _______ _____ _____    ______ ____
ROOT
ATOM      1  C   UNL     1      43.180   4.587  10.897  0.00  0.00    +0.000 C 
ENDROOT
BRANCH   1   6
ATOM      2  C   UNL     1      46.518   2.501   7.661  0.00  0.00    +0.000 A 
ATOM      3  C   UNL     1      45.735   1.939   8.662  0.00  0.00    +0.000 A 
ATOM      4  C   UNL     1      44.917   2.771   9.423  0.00  0.00    +0.000 A 
ATOM      5  C   UNL     1      44.883   4.142   9.166  0.00  0.00    +0.000 A 
ATOM      6  N   UNL     1      44.091   5.014   9.864  0.00  0.00    +0.000 N 
ATOM      7  N   UNL     1      45.648   4.692   8.207  0.00  0.00    +0.000 NA
ATOM      8  C   UNL     1      46.455   3.871   7.486  0.00  0.00    +0.000 A 
ATOM      9  H   UNL     1      44.141   5.976   9.553  0.00  0.00    +0.000 HD
BRANCH   2  11
ATOM     10  N   UNL     1      48.471   2.330   6.232  0.00  0.00    +0.000 N 
ATOM     11  C   UNL     1      47.403   1.696   6.798  0.00  0.00    +0.000 C 
ATOM     12  O   UNL     1      47.204   0.500   6.621  0.00  0.00    +0.000 OA
ATOM     13  H   UNL     1      49.130   1.743   5.735  0.00  0.00    +0.000 HD
ATOM     14  H   UNL     1      48.802   3.228   6.557  0.00  0.00    +0.000 HD
ENDBRANCH   2  11
ENDBRANCH   1   6
BRANCH   1  15
ATOM     15  C   UNL     1      43.103   5.568  12.067  0.00  0.00    +0.000 C 
BRANCH  15  16
ATOM     16  C   UNL     1      44.464   5.584  12.723  0.00  0.00    +0.000 A 
ATOM     17  C   UNL     1      45.055   4.380  13.116  0.00  0.00    +0.000 A 
ATOM     18  C   UNL     1      46.397   4.353  13.470  0.00  0.00    +0.000 A 
ATOM     19  C   UNL     1      47.147   5.531  13.461  0.00  0.00    +0.000 A 
ATOM     20  C   UNL     1      46.561   6.772  13.171  0.00  0.00    +0.000 A 
ATOM     21  C   UNL     1      45.214   6.772  12.771  0.00  0.00    +0.000 A 
BRANCH  20  22
ATOM     22  C   UNL     1      47.332   8.093  13.226  0.00  0.00    +0.000 C 
ATOM     23  C   UNL     1      48.140   8.460  11.966  0.00  0.00    +0.000 C 
ATOM     24  C   UNL     1      49.393   7.591  11.802  0.00  0.00    +0.000 C 
ATOM     25  N   UNL     1      50.260   7.626  12.977  0.00  0.00    +0.000 NA
ATOM     26  C   UNL     1      49.536   7.282  14.203  0.00  0.00    +0.000 C 
ATOM     27  C   UNL     1      48.306   8.163  14.421  0.00  0.00    +0.000 C 
ATOM     28  H   UNL     1      50.661   8.558  13.071  0.00  0.00    +0.000 HD
ENDBRANCH  20  22
ENDBRANCH  15  16
ENDBRANCH   1  15
TORSDOF 5
ENDMDL
MODEL 2
REMARK VINA RESULT:    -8.299      1.583      2.315
REMARK INTER + INTRA:         -11.139
REMARK INTER:                 -10.221
REMARK INTRA:                  -0.918
REMARK UNBOUND:                -0.414
REMARK  Name = 
REMARK  5 active torsions:
REMARK  status: ('A' for Active; 'I' for Inactive)
REMARK    1  A    between atoms: C_2  and  C_4
REMARK    2  A    between atoms: N_8  and  C_9
REMARK    3  A    between atoms: C_9  and  C_10
REMARK    4  A    between atoms: C_10  and  C_11
REMARK    5  A    between atoms: C_15  and  C_16
REMARK                            x       y       z     vdW  Elec       q    Type
REMARK                         _______ _______ _______ _____ _____    ______ ____
ROOT
ATOM      1  C   UNL     1      43.392   3.522  11.315  0.00  0.00    +0.000 C 
ENDROOT
BRANCH   1   6
ATOM      2  C   UNL     1      46.459   2.776   7.316  0.00  0.00    +0.000 A 
ATOM      3  C   UNL     1      45.813   3.916   7.777  0.00  0.00    +0.000 A 
ATOM      4  C   UNL     1      44.999   3.818   8.904  0.00  0.00    +0.000 A 
ATOM      5  C   UNL     1      44.855   2.594   9.557  0.00  0.00    +0.000 A 
ATOM      6  N   UNL     1      44.085   2.430  10.677  0.00  0.00    +0.000 N 
ATOM      7  N   UNL     1      45.468   1.485   9.106  0.00  0.00    +0.000 NA
ATOM      8  C   UNL     1      46.243   1.592   7.995  0.00  0.00    +0.000 A 
ATOM      9  H   UNL     1      44.094   1.495  11.067  0.00  0.00    +0.000 HD
BRANCH   2  11
ATOM     10  N   UNL     1      48.648   2.416   6.333  0.00  0.00    +0.000 N 
ATOM     11  C   UNL     1      47.349   2.789   6.139  0.00  0.00    +0.000 C 
ATOM     12  O   UNL     1      46.932   3.093   5.028  0.00  0.00    +0.000 OA
ATOM     13  H   UNL     1      49.217   2.323   5.501  0.00  0.00    +0.000 HD
ATOM     14  H   UNL     1      48.952   1.924   7.161  0.00  0.00    +0.000 HD
ENDBRANCH   2  11
ENDBRANCH   1   6
BRANCH   1  15
ATOM     15  C   UNL     1      44.191   4.147  12.459  0.00  0.00    +0.000 C 
BRANCH  15  16
ATOM     16  C   UNL     1      44.719   5.472  11.960  0.00  0.00    +0.000 A 
ATOM     17  C   UNL     1      43.820   6.471  11.573  0.00  0.00    +0.000 A 
ATOM     18  C   UNL     1      44.274   7.766  11.369  0.00  0.00    +0.000 A 
ATOM     19  C   UNL     1      45.630   8.065  11.522  0.00  0.00    +0.000 A 
ATOM     20  C   UNL     1      46.574   7.068  11.810  0.00  0.00    +0.000 A 
ATOM     21  C   UNL     1      46.088   5.772  12.058  0.00  0.00    +0.000 A 
BRANCH  20  22
ATOM     22  C   UNL     1      48.076   7.343  11.909  0.00  0.00    +0.000 C 
ATOM     23  C   UNL     1      48.835   6.576  13.010  0.00  0.00    +0.000 C 
ATOM     24  C   UNL     1      48.517   7.104  14.414  0.00  0.00    +0.000 C 
ATOM     25  N   UNL     1      48.765   8.537  14.546  0.00  0.00    +0.000 NA
ATOM     26  C   UNL     1      48.062   9.312  13.520  0.00  0.00    +0.000 C 
ATOM     27  C   UNL     1      48.393   8.840  12.104  0.00  0.00    +0.000 C 
ATOM     28  H   UNL     1      49.766   8.713  14.476  0.00  0.00    +0.000 HD
ENDBRANCH  20  22
ENDBRANCH  15  16
ENDBRANCH   1  15
TORSDOF 5
ENDMDL
MODEL 3
REMARK VINA RESULT:    -6.932      3.958      7.370
REMARK INTER + INTRA:          -9.372
REMARK INTER:                  -8.277
REMARK INTRA:                  -1.095
REMARK UNBOUND:                -0.414
REMARK  Name = 
REMARK  5 active torsions:
REMARK  status: ('A' for Active; 'I' for Inactive)
REMARK    1  A    between atoms: C_2  and  C_4
REMARK    2  A    between atoms: N_8  and  C_9
REMARK    3  A    between atoms: C_9  and  C_10
REMARK    4  A    between atoms: C_10  and  C_11
REMARK    5  A    between atoms: C_15  and  C_16
REMARK                            x       y       z     vdW  Elec       q    Type
REMARK                         _______ _______ _______ _____ _____    ______ ____
ROOT
ATOM      1  C   UNL     1      49.281   7.579  12.663  0.00  0.00    +0.000 C 
ENDROOT
BRANCH   1   6
ATOM      2  C   UNL     1      47.884   4.764  16.673  0.00  0.00    +0.000 A 
ATOM      3  C   UNL     1      47.438   4.772  15.357  0.00  0.00    +0.000 A 
ATOM      4  C   UNL     1      47.994   5.686  14.465  0.00  0.00    +0.000 A 
ATOM      5  C   UNL     1      48.989   6.565  14.894  0.00  0.00    +0.000 A 
ATOM      6  N   UNL     1      49.588   7.478  14.068  0.00  0.00    +0.000 N 
ATOM      7  N   UNL     1      49.413   6.569  16.171  0.00  0.00    +0.000 NA
ATOM      8  C   UNL     1      48.849   5.685  17.034  0.00  0.00    +0.000 A 
ATOM      9  H   UNL     1      50.316   8.031  14.503  0.00  0.00    +0.000 HD
BRANCH   2  11
ATOM     10  N   UNL     1      47.866   3.917  18.947  0.00  0.00    +0.000 N 
ATOM     11  C   UNL     1      47.362   3.822  17.682  0.00  0.00    +0.000 C 
ATOM     12  O   UNL     1      46.489   3.008  17.403  0.00  0.00    +0.000 OA
ATOM     13  H   UNL     1      47.422   3.342  19.652  0.00  0.00    +0.000 HD
ATOM     14  H   UNL     1      48.383   4.725  19.264  0.00  0.00    +0.000 HD
ENDBRANCH   2  11
ENDBRANCH   1   6
BRANCH   1  15
ATOM     15  C   UNL     1      48.575   8.886  12.300  0.00  0.00    +0.000 C 
BRANCH  15  16
ATOM     16  C   UNL     1      47.106   8.570  12.148  0.00  0.00    +0.000 A 
ATOM     17  C   UNL     1      46.167   9.603  12.222  0.00  0.00    +0.000 A 
ATOM     18  C   UNL     1      44.857   9.374  11.824  0.00  0.00    +0.000 A 
ATOM     19  C   UNL     1      44.471   8.108  11.379  0.00  0.00    +0.000 A 
ATOM     20  C   UNL     1      45.361   7.024  11.389  0.00  0.00    +0.000 A 
ATOM     21  C   UNL     1      46.694   7.286  11.752  0.00  0.00    +0.000 A 
BRANCH  20  22
ATOM     22  C   UNL     1      44.955   5.606  10.983  0.00  0.00    +0.000 C 
ATOM     23  C   UNL     1      43.454   5.380  10.717  0.00  0.00    +0.000 C 
ATOM     24  C   UNL     1      42.626   5.381  12.008  0.00  0.00    +0.000 C 
ATOM     25  N   UNL     1      43.109   4.412  12.988  0.00  0.00    +0.000 NA
ATOM     26  C   UNL     1      44.535   4.587  13.276  0.00  0.00    +0.000 C 
ATOM     27  C   UNL     1      45.395   4.544  12.012  0.00  0.00    +0.000 C 
ATOM     28  H   UNL     1      42.949   3.470  12.636  0.00  0.00    +0.000 HD
ENDBRANCH  20  22
ENDBRANCH  15  16
ENDBRANCH   1  15
TORSDOF 5
ENDMDL
MODEL 4
REMARK VINA RESULT:    -6.819      3.273      5.590
REMARK INTER + INTRA:          -9.226
REMARK INTER:                  -8.105
REMARK INTRA:                  -1.121
REMARK UNBOUND:                -0.414
REMARK  Name = 
REMARK  5 active torsions:
REMARK  status: ('A' for Active; 'I' for Inactive)
REMARK    1  A    between atoms: C_2  and  C_4
REMARK    2  A    between atoms: N_8  and  C_9
REMARK    3  A    between atoms: C_9  and  C_10
REMARK    4  A    between atoms: C_10  and  C_11
REMARK    5  A    between atoms: C_15  and  C_16
REMARK                            x       y       z     vdW  Elec       q    Type
REMARK                         _______ _______ _______ _____ _____    ______ ____
ROOT
ATOM      1  C   UNL     1      47.465   8.050  13.907  0.00  0.00    +0.000 C 
ENDROOT
BRANCH   1   6
ATOM      2  C   UNL     1      44.968   4.294  11.539  0.00  0.00    +0.000 A 
ATOM      3  C   UNL     1      45.405   4.420  12.851  0.00  0.00    +0.000 A 
ATOM      4  C   UNL     1      46.100   5.571  13.220  0.00  0.00    +0.000 A 
ATOM      5  C   UNL     1      46.334   6.577  12.282  0.00  0.00    +0.000 A 
ATOM      6  N   UNL     1      46.995   7.738  12.580  0.00  0.00    +0.000 N 
ATOM      7  N   UNL     1      45.924   6.451  11.007  0.00  0.00    +0.000 NA
ATOM      8  C   UNL     1      45.265   5.317  10.657  0.00  0.00    +0.000 A 
ATOM      9  H   UNL     1      47.068   8.395  11.813  0.00  0.00    +0.000 HD
BRANCH   2  11
ATOM     10  N   UNL     1      44.791   2.358  10.086  0.00  0.00    +0.000 N 
ATOM     11  C   UNL     1      44.214   3.118  11.063  0.00  0.00    +0.000 C 
ATOM     12  O   UNL     1      43.129   2.818  11.546  0.00  0.00    +0.000 OA
ATOM     13  H   UNL     1      44.317   1.496   9.848  0.00  0.00    +0.000 HD
ATOM     14  H   UNL     1      45.773   2.427   9.856  0.00  0.00    +0.000 HD
ENDBRANCH   2  11
ENDBRANCH   1   6
BRANCH   1  15
ATOM     15  C   UNL     1      48.959   8.372  13.949  0.00  0.00    +0.000 C 
BRANCH  15  16
ATOM     16  C   UNL     1      49.598   7.388  14.902  0.00  0.00    +0.000 A 
ATOM     17  C   UNL     1      50.955   7.515  15.217  0.00  0.00    +0.000 A 
ATOM     18  C   UNL     1      51.486   6.797  16.279  0.00  0.00    +0.000 A 
ATOM     19  C   UNL     1      50.676   5.928  17.012  0.00  0.00    +0.000 A 
ATOM     20  C   UNL     1      49.337   5.700  16.659  0.00  0.00    +0.000 A 
ATOM     21  C   UNL     1      48.805   6.471  15.611  0.00  0.00    +0.000 A 
BRANCH  20  22
ATOM     22  C   UNL     1      48.440   4.699  17.391  0.00  0.00    +0.000 C 
ATOM     23  C   UNL     1      49.158   3.536  18.101  0.00  0.00    +0.000 C 
ATOM     24  C   UNL     1      49.717   2.504  17.113  0.00  0.00    +0.000 C 
ATOM     25  N   UNL     1      48.696   1.980  16.209  0.00  0.00    +0.000 NA
ATOM     26  C   UNL     1      47.983   3.051  15.508  0.00  0.00    +0.000 C 
ATOM     27  C   UNL     1      47.373   4.073  16.468  0.00  0.00    +0.000 C 
ATOM     28  H   UNL     1      48.029   1.423  16.742  0.00  0.00    +0.000 HD
ENDBRANCH  20  22
ENDBRANCH  15  16
ENDBRANCH   1  15
TORSDOF 5
ENDMDL
MODEL 5
REMARK VINA RESULT:    -6.751      3.560      5.971
REMARK INTER + INTRA:          -9.138
REMARK INTER:                  -9.291
REMARK INTRA:                   0.152
REMARK UNBOUND:                -0.414
REMARK  Name = 
REMARK  5 active torsions:
REMARK  status: ('A' for Active; 'I' for Inactive)
REMARK    1  A    between atoms: C_2  and  C_4
REMARK    2  A    between atoms: N_8  and  C_9
REMARK    3  A    between atoms: C_9  and  C_10
REMARK    4  A    between atoms: C_10  and  C_11
REMARK    5  A    between atoms: C_15  and  C_16
REMARK                            x       y       z     vdW  Elec       q    Type
REMARK                         _______ _______ _______ _____ _____    ______ ____
ROOT
ATOM      1  C   UNL     1      48.125   7.587  13.972  0.00  0.00    +0.000 C 
ENDROOT
BRANCH   1   6
ATOM      2  C   UNL     1      44.973   4.640  11.263  0.00  0.00    +0.000 A 
ATOM      3  C   UNL     1      45.695   5.775  10.914  0.00  0.00    +0.000 A 
ATOM      4  C   UNL     1      46.470   6.403  11.887  0.00  0.00    +0.000 A 
ATOM      5  C   UNL     1      46.524   5.883  13.181  0.00  0.00    +0.000 A 
ATOM      6  N   UNL     1      47.276   6.440  14.180  0.00  0.00    +0.000 N 
ATOM      7  N   UNL     1      45.816   4.793  13.525  0.00  0.00    +0.000 NA
ATOM      8  C   UNL     1      45.049   4.202  12.572  0.00  0.00    +0.000 A 
ATOM      9  H   UNL     1      47.247   5.943  15.062  0.00  0.00    +0.000 HD
BRANCH   2  11
ATOM     10  N   UNL     1      44.057   4.404   9.028  0.00  0.00    +0.000 N 
ATOM     11  C   UNL     1      44.136   3.903  10.296  0.00  0.00    +0.000 C 
ATOM     12  O   UNL     1      43.561   2.868  10.609  0.00  0.00    +0.000 OA
ATOM     13  H   UNL     1      43.572   3.832   8.349  0.00  0.00    +0.000 HD
ATOM     14  H   UNL     1      44.708   5.092   8.676  0.00  0.00    +0.000 HD
ENDBRANCH   2  11
ENDBRANCH   1   6
BRANCH   1  15
ATOM     15  C   UNL     1      48.720   8.131  15.270  0.00  0.00    +0.000 C 
BRANCH  15  16
ATOM     16  C   UNL     1      49.710   7.105  15.770  0.00  0.00    +0.000 A 
ATOM     17  C   UNL     1      51.076   7.296  15.542  0.00  0.00    +0.000 A 
ATOM     18  C   UNL     1      52.003   6.513  16.216  0.00  0.00    +0.000 A 
ATOM     19  C   UNL     1      51.573   5.519  17.096  0.00  0.00    +0.000 A 
ATOM     20  C   UNL     1      50.210   5.232  17.271  0.00  0.00    +0.000 A 
ATOM     21  C   UNL     1      49.287   6.066  16.616  0.00  0.00    +0.000 A 
BRANCH  20  22
ATOM     22  C   UNL     1      49.702   4.101  18.168  0.00  0.00    +0.000 C 
ATOM     23  C   UNL     1      49.345   2.781  17.458  0.00  0.00    +0.000 C 
ATOM     24  C   UNL     1      48.049   2.887  16.644  0.00  0.00    +0.000 C 
ATOM     25  N   UNL     1      46.917   3.342  17.447  0.00  0.00    +0.000 NA
ATOM     26  C   UNL     1      47.207   4.598  18.142  0.00  0.00    +0.000 C 
ATOM     27  C   UNL     1      48.470   4.512  19.001  0.00  0.00    +0.000 C 
ATOM     28  H   UNL     1      46.679   2.625  18.130  0.00  0.00    +0.000 HD
ENDBRANCH  20  22
ENDBRANCH  15  16
ENDBRANCH   1  15
TORSDOF 5
ENDMDL
MODEL 6
REMARK VINA RESULT:    -6.548      3.381      5.583
REMARK INTER + INTRA:          -8.876
REMARK INTER:                  -8.317
REMARK INTRA:                  -0.559
REMARK UNBOUND:                -0.414
REMARK  Name = 
REMARK  5 active torsions:
REMARK  status: ('A' for Active; 'I' for Inactive)
REMARK    1  A    between atoms: C_2  and  C_4
REMARK    2  A    between atoms: N_8  and  C_9
REMARK    3  A    between atoms: C_9  and  C_10
REMARK    4  A    between atoms: C_10  and  C_11
REMARK    5  A    between atoms: C_15  and  C_16
REMARK                            x       y       z     vdW  Elec       q    Type
REMARK                         _______ _______ _______ _____ _____    ______ ____
ROOT
ATOM      1  C   UNL     1      47.315   8.320  13.020  0.00  0.00    +0.000 C 
ENDROOT
BRANCH   1   6
ATOM      2  C   UNL     1      44.683   4.272  11.396  0.00  0.00    +0.000 A 
ATOM      3  C   UNL     1      45.287   5.313  10.702  0.00  0.00    +0.000 A 
ATOM      4  C   UNL     1      45.929   6.318  11.422  0.00  0.00    +0.000 A 
ATOM      5  C   UNL     1      45.969   6.262  12.816  0.00  0.00    +0.000 A 
ATOM      6  N   UNL     1      46.595   7.206  13.585  0.00  0.00    +0.000 N 
ATOM      7  N   UNL     1      45.374   5.263  13.492  0.00  0.00    +0.000 NA
ATOM      8  C   UNL     1      44.736   4.300  12.777  0.00  0.00    +0.000 A 
ATOM      9  H   UNL     1      46.573   7.026  14.581  0.00  0.00    +0.000 HD
BRANCH   2  11
ATOM     10  N   UNL     1      44.318   2.926   9.411  0.00  0.00    +0.000 N 
ATOM     11  C   UNL     1      43.993   3.159  10.716  0.00  0.00    +0.000 C 
ATOM     12  O   UNL     1      43.184   2.454  11.307  0.00  0.00    +0.000 OA
ATOM     13  H   UNL     1      43.922   2.094   8.991  0.00  0.00    +0.000 HD
ATOM     14  H   UNL     1      45.148   3.313   8.982  0.00  0.00    +0.000 HD
ENDBRANCH   2  11
ENDBRANCH   1   6
BRANCH   1  15
ATOM     15  C   UNL     1      48.796   8.325  13.399  0.00  0.00    +0.000 C 
BRANCH  15  16
ATOM     16  C   UNL     1      48.869   8.387  14.907  0.00  0.00    +0.000 A 
ATOM     17  C   UNL     1      48.524   9.571  15.566  0.00  0.00    +0.000 A 
ATOM     18  C   UNL     1      48.330   9.564  16.940  0.00  0.00    +0.000 A 
ATOM     19  C   UNL     1      48.507   8.385  17.666  0.00  0.00    +0.000 A 
ATOM     20  C   UNL     1      48.952   7.204  17.052  0.00  0.00    +0.000 A 
ATOM     21  C   UNL     1      49.098   7.219  15.654  0.00  0.00    +0.000 A 
BRANCH  20  22
ATOM     22  C   UNL     1      49.230   5.914  17.826  0.00  0.00    +0.000 C 
ATOM     23  C   UNL     1      48.938   4.598  17.079  0.00  0.00    +0.000 C 
ATOM     24  C   UNL     1      47.435   4.332  16.931  0.00  0.00    +0.000 C 
ATOM     25  N   UNL     1      46.731   4.344  18.211  0.00  0.00    +0.000 NA
ATOM     26  C   UNL     1      46.978   5.579  18.960  0.00  0.00    +0.000 C 
ATOM     27  C   UNL     1      48.468   5.849  19.167  0.00  0.00    +0.000 C 
ATOM     28  H   UNL     1      47.033   3.546  18.767  0.00  0.00    +0.000 HD
ENDBRANCH  20  22
ENDBRANCH  15  16
ENDBRANCH   1  15
TORSDOF 5
ENDMDL
MODEL 7
REMARK VINA RESULT:    -6.248      3.816      6.316
REMARK INTER + INTRA:          -8.489
REMARK INTER:                  -7.537
REMARK INTRA:                  -0.951
REMARK UNBOUND:                -0.414
REMARK  Name = 
REMARK  5 active torsions:
REMARK  status: ('A' for Active; 'I' for Inactive)
REMARK    1  A    between atoms: C_2  and  C_4
REMARK    2  A    between atoms: N_8  and  C_9
REMARK    3  A    between atoms: C_9  and  C_10
REMARK    4  A    between atoms: C_10  and  C_11
REMARK    5  A    between atoms: C_15  and  C_16
REMARK                            x       y       z     vdW  Elec       q    Type
REMARK                         _______ _______ _______ _____ _____    ______ ____
ROOT
ATOM      1  C   UNL     1      49.169   7.108  13.850  0.00  0.00    +0.000 C 
ENDROOT
BRANCH   1   6
ATOM      2  C   UNL     1      44.911   4.642  12.529  0.00  0.00    +0.000 A 
ATOM      3  C   UNL     1      45.667   4.608  13.694  0.00  0.00    +0.000 A 
ATOM      4  C   UNL     1      46.822   5.384  13.768  0.00  0.00    +0.000 A 
ATOM      5  C   UNL     1      47.195   6.187  12.689  0.00  0.00    +0.000 A 
ATOM      6  N   UNL     1      48.308   6.985  12.701  0.00  0.00    +0.000 N 
ATOM      7  N   UNL     1      46.474   6.211  11.555  0.00  0.00    +0.000 NA
ATOM      8  C   UNL     1      45.361   5.435  11.490  0.00  0.00    +0.000 A 
ATOM      9  H   UNL     1      48.443   7.538  11.863  0.00  0.00    +0.000 HD
BRANCH   2  11
ATOM     10  N   UNL     1      42.597   4.505  11.814  0.00  0.00    +0.000 N 
ATOM     11  C   UNL     1      43.668   3.864  12.367  0.00  0.00    +0.000 C 
ATOM     12  O   UNL     1      43.609   2.683  12.687  0.00  0.00    +0.000 OA
ATOM     13  H   UNL     1      41.788   3.932  11.608  0.00  0.00    +0.000 HD
ATOM     14  H   UNL     1      42.687   5.379  11.315  0.00  0.00    +0.000 HD
ENDBRANCH   2  11
ENDBRANCH   1   6
BRANCH   1  15
ATOM     15  C   UNL     1      48.950   8.409  14.623  0.00  0.00    +0.000 C 
BRANCH  15  16
ATOM     16  C   UNL     1      48.775   8.037  16.077  0.00  0.00    +0.000 A 
ATOM     17  C   UNL     1      48.371   9.013  16.994  0.00  0.00    +0.000 A 
ATOM     18  C   UNL     1      47.953   8.635  18.262  0.00  0.00    +0.000 A 
ATOM     19  C   UNL     1      47.964   7.289  18.632  0.00  0.00    +0.000 A 
ATOM     20  C   UNL     1      48.459   6.296  17.773  0.00  0.00    +0.000 A 
ATOM     21  C   UNL     1      48.833   6.692  16.477  0.00  0.00    +0.000 A 
BRANCH  20  22
ATOM     22  C   UNL     1      48.557   4.821  18.169  0.00  0.00    +0.000 C 
ATOM     23  C   UNL     1      48.735   4.533  19.673  0.00  0.00    +0.000 C 
ATOM     24  C   UNL     1      50.139   4.892  20.174  0.00  0.00    +0.000 C 
ATOM     25  N   UNL     1      51.195   4.229  19.413  0.00  0.00    +0.000 NA
ATOM     26  C   UNL     1      51.070   4.474  17.974  0.00  0.00    +0.000 C 
ATOM     27  C   UNL     1      49.695   4.083  17.432  0.00  0.00    +0.000 C 
ATOM     28  H   UNL     1      51.158   3.227  19.589  0.00  0.00    +0.000 HD
ENDBRANCH  20  22
ENDBRANCH  15  16
ENDBRANCH   1  15
TORSDOF 5
ENDMDL
