MODEL 1
REMARK VINA RESULT:    -8.361      0.000      0.000
REMARK INTER + INTRA:         -13.676
REMARK INTER:                 -12.272
REMARK INTRA:                  -1.404
REMARK UNBOUND:                -1.404
REMARK  Name = 
REMARK  10 active torsions:
REMARK  status: ('A' for Active; 'I' for Inactive)
REMARK    1  A    between atoms: C_1  and  C_2
REMARK    2  A    between atoms: C_2  and  C_3
REMARK    3  A    between atoms: C_2  and  N_10
REMARK    4  A    between atoms: C_3  and  C_4
REMARK    5  A    between atoms: N_10  and  C_11
REMARK    6  A    between atoms: N_10  and  C_12
REMARK    7  A    between atoms: C_12  and  C_13
REMARK    8  A    between atoms: C_16  and  C_17
REMARK    9  A    between atoms: C_17  and  N_18
REMARK   10  A    between atoms: C_19  and  C_21
REMARK                            x       y       z     vdW  Elec       q    Type
REMARK                         _______ _______ _______ _____ _____    ______ ____
ROOT
ATOM      1  C   UNL     1      45.063   6.753  11.359  0.00  0.00    +0.000 A 
ATOM      2  C   UNL     1      46.381   6.277  11.377  0.00  0.00    +0.000 A 
ATOM      3  C   UNL     1      47.342   6.791  12.236  0.00  0.00    +0.000 A 
ATOM      4  C   UNL     1      47.030   7.881  13.039  0.00  0.00    +0.000 A 
ATOM      5  C   UNL     1      45.764   8.472  12.916  0.00  0.00    +0.000 A 
ATOM      6  C   UNL     1      44.781   7.901  12.104  0.00  0.00    +0.000 A 
ENDROOT
BRANCH   1   7
ATOM      7  C   UNL     1      43.956   6.044  10.588  0.00  0.00    +0.000 C 
BRANCH   7   8
ATOM      8  N   UNL     1      43.635   4.652  11.011  0.00  0.00    +0.000 NA
ATOM      9  C   UNL     1      43.147   4.661  12.399  0.00  0.00    +0.000 C 
BRANCH   8  11
ATOM     10  C   UNL     1      45.143   2.935  12.107  0.00  0.00    +0.000 C 
ATOM     11  C   UNL     1      44.742   3.675  10.817  0.00  0.00    +0.000 C 
BRANCH  11  12
ATOM     12  C   UNL     1      44.435   2.614   9.709  0.00  0.00    +0.000 C 
BRANCH  12  13
ATOM     13  C   UNL     1      45.441   2.530   8.576  0.00  0.00    +0.000 A 
ATOM     14  C   UNL     1      45.719   3.680   7.828  0.00  0.00    +0.000 A 
ATOM     15  C   UNL     1      46.650   3.638   6.789  0.00  0.00    +0.000 A 
ATOM     16  C   UNL     1      47.321   2.454   6.493  0.00  0.00    +0.000 A 
ATOM     17  C   UNL     1      47.075   1.312   7.245  0.00  0.00    +0.000 A 
ATOM     18  C   UNL     1      46.152   1.353   8.288  0.00  0.00    +0.000 A 
ENDBRANCH  12  13
ENDBRANCH  11  12
ENDBRANCH   8  11
ENDBRANCH   7   8
ENDBRANCH   1   7
BRANCH   4  19
ATOM     19  C   UNL     1      48.053   8.447  13.976  0.00  0.00    +0.000 C 
BRANCH  19  20
ATOM     20  N   UNL     1      48.216   7.596  15.120  0.00  0.00    +0.000 N 
ATOM     21  C   UNL     1      49.443   7.090  15.450  0.00  0.00    +0.000 C 
ATOM     22  O   UNL     1      50.457   7.366  14.814  0.00  0.00    +0.000 OA
ATOM     23  H   UNL     1      47.377   7.158  15.490  0.00  0.00    +0.000 HD
BRANCH  21  24
ATOM     24  C   UNL     1      49.487   6.247  16.650  0.00  0.00    +0.000 A 
ATOM     25  C   UNL     1      50.337   6.588  17.693  0.00  0.00    +0.000 A 
ATOM     26  S   UNL     1      50.230   5.525  19.023  0.00  0.00    +0.000 S 
ATOM     27  C   UNL     1      49.080   4.554  18.230  0.00  0.00    +0.000 A 
ATOM     28  N   UNL     1      48.579   3.438  18.819  0.00  0.00    +0.000 NA
ATOM     29  C   UNL     1      47.731   2.781  18.094  0.00  0.00    +0.000 A 
ATOM     30  N   UNL     1      47.338   3.149  16.834  0.00  0.00    +0.000 N 
ATOM     31  C   UNL     1      47.793   4.289  16.208  0.00  0.00    +0.000 A 
ATOM     32  O   UNL     1      47.381   4.613  15.106  0.00  0.00    +0.000 OA
ATOM     33  C   UNL     1      48.765   5.047  16.980  0.00  0.00    +0.000 A 
ATOM     34  H   UNL     1      46.657   2.605  16.325  0.00  0.00    +0.000 HD
ENDBRANCH  21  24
ENDBRANCH  19  20
ENDBRANCH   4  19
TORSDOF 8
ENDMDL
MODEL 2
REMARK VINA RESULT:    -7.791      2.780      3.525
REMARK INTER + INTRA:         -12.838
REMARK INTER:                 -11.785
REMARK INTRA:                  -1.053
REMARK UNBOUND:                -1.404
REMARK  Name = 
REMARK  10 active torsions:
REMARK  status: ('A' for Active; 'I' for Inactive)
REMARK    1  A    between atoms: C_1  and  C_2
REMARK    2  A    between atoms: C_2  and  C_3
REMARK    3  A    between atoms: C_2  and  N_10
REMARK    4  A    between atoms: C_3  and  C_4
REMARK    5  A    between atoms: N_10  and  C_11
REMARK    6  A    between atoms: N_10  and  C_12
REMARK    7  A    between atoms: C_12  and  C_13
REMARK    8  A    between atoms: C_16  and  C_17
REMARK    9  A    between atoms: C_17  and  N_18
REMARK   10  A    between atoms: C_19  and  C_21
REMARK                            x       y       z     vdW  Elec       q    Type
REMARK                         _______ _______ _______ _____ _____    ______ ____
ROOT
ATOM      1  C   UNL     1      46.932   4.770  14.019  0.00  0.00    +0.000 A 
ATOM      2  C   UNL     1      47.634   5.922  13.635  0.00  0.00    +0.000 A 
ATOM      3  C   UNL     1      48.550   6.544  14.473  0.00  0.00    +0.000 A 
ATOM      4  C   UNL     1      48.712   6.082  15.773  0.00  0.00    +0.000 A 
ATOM      5  C   UNL     1      47.899   5.033  16.226  0.00  0.00    +0.000 A 
ATOM      6  C   UNL     1      47.036   4.366  15.353  0.00  0.00    +0.000 A 
ENDROOT
BRANCH   1   7
ATOM      7  C   UNL     1      46.105   3.959  13.029  0.00  0.00    +0.000 C 
BRANCH   7   8
ATOM      8  N   UNL     1      45.306   4.733  12.038  0.00  0.00    +0.000 NA
ATOM      9  C   UNL     1      44.443   5.692  12.743  0.00  0.00    +0.000 C 
BRANCH   8  11
ATOM     10  C   UNL     1      43.035   3.809  11.399  0.00  0.00    +0.000 C 
ATOM     11  C   UNL     1      44.538   3.896  11.075  0.00  0.00    +0.000 C 
BRANCH  11  12
ATOM     12  C   UNL     1      44.700   4.365   9.591  0.00  0.00    +0.000 C 
BRANCH  12  13
ATOM     13  C   UNL     1      45.485   3.434   8.685  0.00  0.00    +0.000 A 
ATOM     14  C   UNL     1      46.243   3.980   7.643  0.00  0.00    +0.000 A 
ATOM     15  C   UNL     1      46.987   3.152   6.801  0.00  0.00    +0.000 A 
ATOM     16  C   UNL     1      46.991   1.773   6.997  0.00  0.00    +0.000 A 
ATOM     17  C   UNL     1      46.265   1.219   8.044  0.00  0.00    +0.000 A 
ATOM     18  C   UNL     1      45.528   2.045   8.890  0.00  0.00    +0.000 A 
ENDBRANCH  12  13
ENDBRANCH  11  12
ENDBRANCH   8  11
ENDBRANCH   7   8
ENDBRANCH   1   7
BRANCH   4  19
ATOM     19  C   UNL     1      49.699   6.738  16.691  0.00  0.00    +0.000 C 
BRANCH  19  20
ATOM     20  N   UNL     1      50.720   5.810  17.081  0.00  0.00    +0.000 N 
ATOM     21  C   UNL     1      50.839   5.402  18.382  0.00  0.00    +0.000 C 
ATOM     22  O   UNL     1      50.065   5.778  19.258  0.00  0.00    +0.000 OA
ATOM     23  H   UNL     1      51.505   5.697  16.447  0.00  0.00    +0.000 HD
BRANCH  21  24
ATOM     24  C   UNL     1      51.909   4.438  18.655  0.00  0.00    +0.000 A 
ATOM     25  C   UNL     1      52.992   4.822  19.435  0.00  0.00    +0.000 A 
ATOM     26  S   UNL     1      54.120   3.567  19.685  0.00  0.00    +0.000 S 
ATOM     27  C   UNL     1      53.221   2.487  18.725  0.00  0.00    +0.000 A 
ATOM     28  N   UNL     1      53.654   1.220  18.503  0.00  0.00    +0.000 NA
ATOM     29  C   UNL     1      52.885   0.515  17.736  0.00  0.00    +0.000 A 
ATOM     30  N   UNL     1      51.719   0.969  17.179  0.00  0.00    +0.000 N 
ATOM     31  C   UNL     1      51.222   2.234  17.402  0.00  0.00    +0.000 A 
ATOM     32  O   UNL     1      50.152   2.587  16.930  0.00  0.00    +0.000 OA
ATOM     33  C   UNL     1      52.067   3.069  18.242  0.00  0.00    +0.000 A 
ATOM     34  H   UNL     1      51.151   0.364  16.604  0.00  0.00    +0.000 HD
ENDBRANCH  21  24
ENDBRANCH  19  20
ENDBRANCH   4  19
TORSDOF 8
ENDMDL
MODEL 3
REMARK VINA RESULT:    -7.726      3.628      9.862
REMARK INTER + INTRA:         -12.744
REMARK INTER:                  -9.959
REMARK INTRA:                  -2.785
REMARK UNBOUND:                -1.404
REMARK  Name = 
REMARK  10 active torsions:
REMARK  status: ('A' for Active; 'I' for Inactive)
REMARK    1  A    between atoms: C_1  and  C_2
REMARK    2  A    between atoms: C_2  and  C_3
REMARK    3  A    between atoms: C_2  and  N_10
REMARK    4  A    between atoms: C_3  and  C_4
REMARK    5  A    between atoms: N_10  and  C_11
REMARK    6  A    between atoms: N_10  and  C_12
REMARK    7  A    between atoms: C_12  and  C_13
REMARK    8  A    between atoms: C_16  and  C_17
REMARK    9  A    between atoms: C_17  and  N_18
REMARK   10  A    between atoms: C_19  and  C_21
REMARK                            x       y       z     vdW  Elec       q    Type
REMARK                         _______ _______ _______ _____ _____    ______ ____
ROOT
ATOM      1  C   UNL     1      51.482   4.276  17.779  0.00  0.00    +0.000 A 
ATOM      2  C   UNL     1      50.668   5.333  17.346  0.00  0.00    +0.000 A 
ATOM      3  C   UNL     1      49.319   5.161  17.066  0.00  0.00    +0.000 A 
ATOM      4  C   UNL     1      48.767   3.887  17.114  0.00  0.00    +0.000 A 
ATOM      5  C   UNL     1      49.604   2.796  17.387  0.00  0.00    +0.000 A 
ATOM      6  C   UNL     1      50.941   2.988  17.741  0.00  0.00    +0.000 A 
ENDROOT
BRANCH   1   7
ATOM      7  C   UNL     1      52.894   4.505  18.302  0.00  0.00    +0.000 C 
BRANCH   7   8
ATOM      8  N   UNL     1      53.013   5.144  19.643  0.00  0.00    +0.000 NA
ATOM      9  C   UNL     1      54.383   5.644  19.829  0.00  0.00    +0.000 C 
BRANCH   8  11
ATOM     10  C   UNL     1      53.742   3.696  21.589  0.00  0.00    +0.000 C 
ATOM     11  C   UNL     1      52.574   4.287  20.779  0.00  0.00    +0.000 C 
BRANCH  11  12
ATOM     12  C   UNL     1      51.607   5.023  21.763  0.00  0.00    +0.000 C 
BRANCH  12  13
ATOM     13  C   UNL     1      50.331   5.570  21.152  0.00  0.00    +0.000 A 
ATOM     14  C   UNL     1      49.223   4.724  21.022  0.00  0.00    +0.000 A 
ATOM     15  C   UNL     1      48.030   5.201  20.476  0.00  0.00    +0.000 A 
ATOM     16  C   UNL     1      47.925   6.528  20.066  0.00  0.00    +0.000 A 
ATOM     17  C   UNL     1      49.008   7.387  20.214  0.00  0.00    +0.000 A 
ATOM     18  C   UNL     1      50.197   6.914  20.766  0.00  0.00    +0.000 A 
ENDBRANCH  12  13
ENDBRANCH  11  12
ENDBRANCH   8  11
ENDBRANCH   7   8
ENDBRANCH   1   7
BRANCH   4  19
ATOM     19  C   UNL     1      47.312   3.683  16.819  0.00  0.00    +0.000 C 
BRANCH  19  20
ATOM     20  N   UNL     1      46.863   4.616  15.825  0.00  0.00    +0.000 N 
ATOM     21  C   UNL     1      46.876   4.288  14.497  0.00  0.00    +0.000 C 
ATOM     22  O   UNL     1      47.233   3.181  14.100  0.00  0.00    +0.000 OA
ATOM     23  H   UNL     1      46.816   5.593  16.100  0.00  0.00    +0.000 HD
BRANCH  21  24
ATOM     24  C   UNL     1      46.377   5.316  13.579  0.00  0.00    +0.000 A 
ATOM     25  C   UNL     1      47.184   6.402  13.265  0.00  0.00    +0.000 A 
ATOM     26  S   UNL     1      46.464   7.477  12.154  0.00  0.00    +0.000 S 
ATOM     27  C   UNL     1      45.037   6.551  12.092  0.00  0.00    +0.000 A 
ATOM     28  N   UNL     1      43.983   6.938  11.329  0.00  0.00    +0.000 NA
ATOM     29  C   UNL     1      42.955   6.154  11.394  0.00  0.00    +0.000 A 
ATOM     30  N   UNL     1      42.896   5.014  12.150  0.00  0.00    +0.000 N 
ATOM     31  C   UNL     1      43.950   4.563  12.914  0.00  0.00    +0.000 A 
ATOM     32  O   UNL     1      43.879   3.514  13.536  0.00  0.00    +0.000 OA
ATOM     33  C   UNL     1      45.120   5.427  12.888  0.00  0.00    +0.000 A 
ATOM     34  H   UNL     1      42.071   4.431  12.145  0.00  0.00    +0.000 HD
ENDBRANCH  21  24
ENDBRANCH  19  20
ENDBRANCH   4  19
TORSDOF 8
ENDMDL
MODEL 4
REMARK VINA RESULT:    -7.561      3.591      8.967
REMARK INTER + INTRA:         -12.501
REMARK INTER:                  -9.283
REMARK INTRA:                  -3.218
REMARK UNBOUND:                -1.404
REMARK  Name = 
REMARK  10 active torsions:
REMARK  status: ('A' for Active; 'I' for Inactive)
REMARK    1  A    between atoms: C_1  and  C_2
REMARK    2  A    between atoms: C_2  and  C_3
REMARK    3  A    between atoms: C_2  and  N_10
REMARK    4  A    between atoms: C_3  and  C_4
REMARK    5  A    between atoms: N_10  and  C_11
REMARK    6  A    between atoms: N_10  and  C_12
REMARK    7  A    between atoms: C_12  and  C_13
REMARK    8  A    between atoms: C_16  and  C_17
REMARK    9  A    between atoms: C_17  and  N_18
REMARK   10  A    between atoms: C_19  and  C_21
REMARK                            x       y       z     vdW  Elec       q    Type
REMARK                         _______ _______ _______ _____ _____    ______ ____
ROOT
ATOM      1  C   UNL     1      48.520   5.700  20.110  0.00  0.00    +0.000 A 
ATOM      2  C   UNL     1      49.252   4.596  19.650  0.00  0.00    +0.000 A 
ATOM      3  C   UNL     1      48.952   3.956  18.455  0.00  0.00    +0.000 A 
ATOM      4  C   UNL     1      47.833   4.346  17.731  0.00  0.00    +0.000 A 
ATOM      5  C   UNL     1      46.997   5.340  18.260  0.00  0.00    +0.000 A 
ATOM      6  C   UNL     1      47.348   6.029  19.423  0.00  0.00    +0.000 A 
ENDROOT
BRANCH   1   7
ATOM      7  C   UNL     1      48.982   6.541  21.294  0.00  0.00    +0.000 C 
BRANCH   7   8
ATOM      8  N   UNL     1      49.903   7.671  20.989  0.00  0.00    +0.000 NA
ATOM      9  C   UNL     1      50.636   8.049  22.207  0.00  0.00    +0.000 C 
BRANCH   8  11
ATOM     10  C   UNL     1      49.094  10.054  21.288  0.00  0.00    +0.000 C 
ATOM     11  C   UNL     1      49.250   8.845  20.346  0.00  0.00    +0.000 C 
BRANCH  11  12
ATOM     12  C   UNL     1      49.981   9.317  19.047  0.00  0.00    +0.000 C 
BRANCH  12  13
ATOM     13  C   UNL     1      49.909   8.368  17.865  0.00  0.00    +0.000 A 
ATOM     14  C   UNL     1      48.867   8.510  16.942  0.00  0.00    +0.000 A 
ATOM     15  C   UNL     1      48.781   7.662  15.837  0.00  0.00    +0.000 A 
ATOM     16  C   UNL     1      49.739   6.672  15.635  0.00  0.00    +0.000 A 
ATOM     17  C   UNL     1      50.795   6.536  16.528  0.00  0.00    +0.000 A 
ATOM     18  C   UNL     1      50.887   7.387  17.628  0.00  0.00    +0.000 A 
ENDBRANCH  12  13
ENDBRANCH  11  12
ENDBRANCH   8  11
ENDBRANCH   7   8
ENDBRANCH   1   7
BRANCH   4  19
ATOM     19  C   UNL     1      47.496   3.669  16.437  0.00  0.00    +0.000 C 
BRANCH  19  20
ATOM     20  N   UNL     1      46.842   4.582  15.545  0.00  0.00    +0.000 N 
ATOM     21  C   UNL     1      46.828   4.357  14.196  0.00  0.00    +0.000 C 
ATOM     22  O   UNL     1      47.336   3.358  13.694  0.00  0.00    +0.000 OA
ATOM     23  H   UNL     1      46.653   5.515  15.900  0.00  0.00    +0.000 HD
BRANCH  21  24
ATOM     24  C   UNL     1      46.113   5.351  13.388  0.00  0.00    +0.000 A 
ATOM     25  C   UNL     1      46.705   6.583  13.140  0.00  0.00    +0.000 A 
ATOM     26  S   UNL     1      45.754   7.599  12.153  0.00  0.00    +0.000 S 
ATOM     27  C   UNL     1      44.506   6.446  12.065  0.00  0.00    +0.000 A 
ATOM     28  N   UNL     1      43.364   6.700  11.378  0.00  0.00    +0.000 NA
ATOM     29  C   UNL     1      42.490   5.746  11.414  0.00  0.00    +0.000 A 
ATOM     30  N   UNL     1      42.666   4.557  12.071  0.00  0.00    +0.000 N 
ATOM     31  C   UNL     1      43.820   4.239  12.753  0.00  0.00    +0.000 A 
ATOM     32  O   UNL     1      43.962   3.149  13.284  0.00  0.00    +0.000 OA
ATOM     33  C   UNL     1      44.821   5.294  12.757  0.00  0.00    +0.000 A 
ATOM     34  H   UNL     1      41.954   3.842  12.046  0.00  0.00    +0.000 HD
ENDBRANCH  21  24
ENDBRANCH  19  20
ENDBRANCH   4  19
TORSDOF 8
ENDMDL
MODEL 5
REMARK VINA RESULT:    -7.052      3.110      8.267
REMARK INTER + INTRA:         -11.755
REMARK INTER:                  -9.774
REMARK INTRA:                  -1.981
REMARK UNBOUND:                -1.404
REMARK  Name = 
REMARK  10 active torsions:
REMARK  status: ('A' for Active; 'I' for Inactive)
REMARK    1  A    between atoms: C_1  and  C_2
REMARK    2  A    between atoms: C_2  and  C_3
REMARK    3  A    between atoms: C_2  and  N_10
REMARK    4  A    between atoms: C_3  and  C_4
REMARK    5  A    between atoms: N_10  and  C_11
REMARK    6  A    between atoms: N_10  and  C_12
REMARK    7  A    between atoms: C_12  and  C_13
REMARK    8  A    between atoms: C_16  and  C_17
REMARK    9  A    between atoms: C_17  and  N_18
REMARK   10  A    between atoms: C_19  and  C_21
REMARK                            x       y       z     vdW  Elec       q    Type
REMARK                         _______ _______ _______ _____ _____    ______ ____
ROOT
ATOM      1  C   UNL     1      49.258   8.472  15.807  0.00  0.00    +0.000 A 
ATOM      2  C   UNL     1      48.905   7.194  15.351  0.00  0.00    +0.000 A 
ATOM      3  C   UNL     1      48.477   6.965  14.050  0.00  0.00    +0.000 A 
ATOM      4  C   UNL     1      48.291   8.041  13.192  0.00  0.00    +0.000 A 
ATOM      5  C   UNL     1      48.482   9.341  13.682  0.00  0.00    +0.000 A 
ATOM      6  C   UNL     1      48.985   9.555  14.968  0.00  0.00    +0.000 A 
ENDROOT
BRANCH   1   7
ATOM      7  C   UNL     1      49.940   8.692  17.152  0.00  0.00    +0.000 C 
BRANCH   7   8
ATOM      8  N   UNL     1      49.077   8.582  18.362  0.00  0.00    +0.000 NA
ATOM      9  C   UNL     1      49.282   9.760  19.219  0.00  0.00    +0.000 C 
BRANCH   8  11
ATOM     10  C   UNL     1      49.517   7.517  20.618  0.00  0.00    +0.000 C 
ATOM     11  C   UNL     1      49.232   7.309  19.119  0.00  0.00    +0.000 C 
BRANCH  11  12
ATOM     12  C   UNL     1      48.000   6.357  18.974  0.00  0.00    +0.000 C 
BRANCH  12  13
ATOM     13  C   UNL     1      48.256   5.048  18.250  0.00  0.00    +0.000 A 
ATOM     14  C   UNL     1      47.193   4.413  17.598  0.00  0.00    +0.000 A 
ATOM     15  C   UNL     1      47.400   3.215  16.911  0.00  0.00    +0.000 A 
ATOM     16  C   UNL     1      48.670   2.646  16.858  0.00  0.00    +0.000 A 
ATOM     17  C   UNL     1      49.740   3.279  17.478  0.00  0.00    +0.000 A 
ATOM     18  C   UNL     1      49.537   4.479  18.157  0.00  0.00    +0.000 A 
ENDBRANCH  12  13
ENDBRANCH  11  12
ENDBRANCH   8  11
ENDBRANCH   7   8
ENDBRANCH   1   7
BRANCH   4  19
ATOM     19  C   UNL     1      47.833   7.812  11.783  0.00  0.00    +0.000 C 
BRANCH  19  20
ATOM     20  N   UNL     1      47.091   6.589  11.685  0.00  0.00    +0.000 N 
ATOM     21  C   UNL     1      45.723   6.596  11.673  0.00  0.00    +0.000 C 
ATOM     22  O   UNL     1      45.074   7.639  11.706  0.00  0.00    +0.000 OA
ATOM     23  H   UNL     1      47.585   5.732  11.916  0.00  0.00    +0.000 HD
BRANCH  21  24
ATOM     24  C   UNL     1      45.076   5.285  11.552  0.00  0.00    +0.000 A 
ATOM     25  C   UNL     1      44.408   4.750  12.645  0.00  0.00    +0.000 A 
ATOM     26  S   UNL     1      43.683   3.241  12.317  0.00  0.00    +0.000 S 
ATOM     27  C   UNL     1      44.275   3.236  10.722  0.00  0.00    +0.000 A 
ATOM     28  N   UNL     1      44.031   2.194   9.887  0.00  0.00    +0.000 NA
ATOM     29  C   UNL     1      44.561   2.310   8.712  0.00  0.00    +0.000 A 
ATOM     30  N   UNL     1      45.307   3.382   8.300  0.00  0.00    +0.000 N 
ATOM     31  C   UNL     1      45.554   4.477   9.099  0.00  0.00    +0.000 A 
ATOM     32  O   UNL     1      46.180   5.438   8.680  0.00  0.00    +0.000 OA
ATOM     33  C   UNL     1      44.994   4.379  10.438  0.00  0.00    +0.000 A 
ATOM     34  H   UNL     1      45.678   3.425   7.362  0.00  0.00    +0.000 HD
ENDBRANCH  21  24
ENDBRANCH  19  20
ENDBRANCH   4  19
TORSDOF 8
ENDMDL
MODEL 6
REMARK VINA RESULT:    -6.865      3.851      8.545
REMARK INTER + INTRA:         -11.480
REMARK INTER:                  -8.503
REMARK INTRA:                  -2.978
REMARK UNBOUND:                -1.404
REMARK  Name = 
REMARK  10 active torsions:
REMARK  status: ('A' for Active; 'I' for Inactive)
REMARK    1  A    between atoms: C_1  and  C_2
REMARK    2  A    between atoms: C_2  and  C_3
REMARK    3  A    between atoms: C_2  and  N_10
REMARK    4  A    between atoms: C_3  and  C_4
REMARK    5  A    between atoms: N_10  and  C_11
REMARK    6  A    between atoms: N_10  and  C_12
REMARK    7  A    between atoms: C_12  and  C_13
REMARK    8  A    between atoms: C_16  and  C_17
REMARK    9  A    between atoms: C_17  and  N_18
REMARK   10  A    between atoms: C_19  and  C_21
REMARK                            x       y       z     vdW  Elec       q    Type
REMARK                         _______ _______ _______ _____ _____    ______ ____
ROOT
ATOM      1  C   UNL     1      50.255   8.879  11.419  0.00  0.00    +0.000 A 
ATOM      2  C   UNL     1      49.823   7.595  11.778  0.00  0.00    +0.000 A 
ATOM      3  C   UNL     1      48.543   7.352  12.259  0.00  0.00    +0.000 A 
ATOM      4  C   UNL     1      47.686   8.420  12.493  0.00  0.00    +0.000 A 
ATOM      5  C   UNL     1      48.159   9.725  12.294  0.00  0.00    +0.000 A 
ATOM      6  C   UNL     1      49.420   9.954  11.739  0.00  0.00    +0.000 A 
ENDROOT
BRANCH   1   7
ATOM      7  C   UNL     1      51.568   9.115  10.683  0.00  0.00    +0.000 C 
BRANCH   7   8
ATOM      8  N   UNL     1      52.754   9.439  11.524  0.00  0.00    +0.000 NA
ATOM      9  C   UNL     1      53.893   9.777  10.657  0.00  0.00    +0.000 C 
BRANCH   8  11
ATOM     10  C   UNL     1      54.482   7.745  12.277  0.00  0.00    +0.000 C 
ATOM     11  C   UNL     1      53.108   8.395  12.525  0.00  0.00    +0.000 C 
BRANCH  11  12
ATOM     12  C   UNL     1      53.064   8.920  13.998  0.00  0.00    +0.000 C 
BRANCH  12  13
ATOM     13  C   UNL     1      51.702   8.900  14.667  0.00  0.00    +0.000 A 
ATOM     14  C   UNL     1      51.167   7.675  15.083  0.00  0.00    +0.000 A 
ATOM     15  C   UNL     1      49.923   7.625  15.714  0.00  0.00    +0.000 A 
ATOM     16  C   UNL     1      49.207   8.796  15.948  0.00  0.00    +0.000 A 
ATOM     17  C   UNL     1      49.737  10.022  15.566  0.00  0.00    +0.000 A 
ATOM     18  C   UNL     1      50.983  10.074  14.943  0.00  0.00    +0.000 A 
ENDBRANCH  12  13
ENDBRANCH  11  12
ENDBRANCH   8  11
ENDBRANCH   7   8
ENDBRANCH   1   7
BRANCH   4  19
ATOM     19  C   UNL     1      46.299   8.177  13.008  0.00  0.00    +0.000 C 
BRANCH  19  20
ATOM     20  N   UNL     1      45.866   6.848  12.684  0.00  0.00    +0.000 N 
ATOM     21  C   UNL     1      44.871   6.637  11.768  0.00  0.00    +0.000 C 
ATOM     22  O   UNL     1      44.335   7.560  11.161  0.00  0.00    +0.000 OA
ATOM     23  H   UNL     1      46.104   6.114  13.344  0.00  0.00    +0.000 HD
BRANCH  21  24
ATOM     24  C   UNL     1      44.528   5.235  11.508  0.00  0.00    +0.000 A 
ATOM     25  C   UNL     1      43.798   4.525  12.451  0.00  0.00    +0.000 A 
ATOM     26  S   UNL     1      43.453   2.925  11.969  0.00  0.00    +0.000 S 
ATOM     27  C   UNL     1      44.304   3.118  10.508  0.00  0.00    +0.000 A 
ATOM     28  N   UNL     1      44.420   2.095   9.624  0.00  0.00    +0.000 NA
ATOM     29  C   UNL     1      45.114   2.374   8.567  0.00  0.00    +0.000 A 
ATOM     30  N   UNL     1      45.694   3.589   8.317  0.00  0.00    +0.000 N 
ATOM     31  C   UNL     1      45.576   4.667   9.168  0.00  0.00    +0.000 A 
ATOM     32  O   UNL     1      46.064   5.750   8.888  0.00  0.00    +0.000 OA
ATOM     33  C   UNL     1      44.822   4.391  10.381  0.00  0.00    +0.000 A 
ATOM     34  H   UNL     1      46.207   3.752   7.464  0.00  0.00    +0.000 HD
ENDBRANCH  21  24
ENDBRANCH  19  20
ENDBRANCH   4  19
TORSDOF 8
ENDMDL
MODEL 7
REMARK VINA RESULT:    -6.841      3.638      9.926
REMARK INTER + INTRA:         -11.445
REMARK INTER:                  -8.257
REMARK INTRA:                  -3.189
REMARK UNBOUND:                -1.404
REMARK  Name = 
REMARK  10 active torsions:
REMARK  status: ('A' for Active; 'I' for Inactive)
REMARK    1  A    between atoms: C_1  and  C_2
REMARK    2  A    between atoms: C_2  and  C_3
REMARK    3  A    between atoms: C_2  and  N_10
REMARK    4  A    between atoms: C_3  and  C_4
REMARK    5  A    between atoms: N_10  and  C_11
REMARK    6  A    between atoms: N_10  and  C_12
REMARK    7  A    between atoms: C_12  and  C_13
REMARK    8  A    between atoms: C_16  and  C_17
REMARK    9  A    between atoms: C_17  and  N_18
REMARK   10  A    between atoms: C_19  and  C_21
REMARK                            x       y       z     vdW  Elec       q    Type
REMARK                         _______ _______ _______ _____ _____    ______ ____
ROOT
ATOM      1  C   UNL     1      51.179   5.806  17.946  0.00  0.00    +0.000 A 
ATOM      2  C   UNL     1      51.120   4.406  17.984  0.00  0.00    +0.000 A 
ATOM      3  C   UNL     1      49.999   3.701  17.566  0.00  0.00    +0.000 A 
ATOM      4  C   UNL     1      48.855   4.394  17.191  0.00  0.00    +0.000 A 
ATOM      5  C   UNL     1      48.843   5.792  17.302  0.00  0.00    +0.000 A 
ATOM      6  C   UNL     1      49.999   6.494  17.651  0.00  0.00    +0.000 A 
ENDROOT
BRANCH   1   7
ATOM      7  C   UNL     1      52.477   6.568  18.185  0.00  0.00    +0.000 C 
BRANCH   7   8
ATOM      8  N   UNL     1      52.633   7.216  19.517  0.00  0.00    +0.000 NA
ATOM      9  C   UNL     1      53.772   8.145  19.481  0.00  0.00    +0.000 C 
BRANCH   8  11
ATOM     10  C   UNL     1      54.125   6.217  21.306  0.00  0.00    +0.000 C 
ATOM     11  C   UNL     1      52.728   6.265  20.660  0.00  0.00    +0.000 C 
BRANCH  11  12
ATOM     12  C   UNL     1      51.671   6.546  21.778  0.00  0.00    +0.000 C 
BRANCH  12  13
ATOM     13  C   UNL     1      50.219   6.353  21.381  0.00  0.00    +0.000 A 
ATOM     14  C   UNL     1      49.698   5.055  21.321  0.00  0.00    +0.000 A 
ATOM     15  C   UNL     1      48.363   4.846  20.972  0.00  0.00    +0.000 A 
ATOM     16  C   UNL     1      47.531   5.928  20.691  0.00  0.00    +0.000 A 
ATOM     17  C   UNL     1      48.028   7.223  20.773  0.00  0.00    +0.000 A 
ATOM     18  C   UNL     1      49.358   7.434  21.129  0.00  0.00    +0.000 A 
ENDBRANCH  12  13
ENDBRANCH  11  12
ENDBRANCH   8  11
ENDBRANCH   7   8
ENDBRANCH   1   7
BRANCH   4  19
ATOM     19  C   UNL     1      47.637   3.650  16.733  0.00  0.00    +0.000 C 
BRANCH  19  20
ATOM     20  N   UNL     1      46.884   4.440  15.802  0.00  0.00    +0.000 N 
ATOM     21  C   UNL     1      46.840   4.110  14.475  0.00  0.00    +0.000 C 
ATOM     22  O   UNL     1      47.406   3.115  14.030  0.00  0.00    +0.000 OA
ATOM     23  H   UNL     1      46.636   5.381  16.093  0.00  0.00    +0.000 HD
BRANCH  21  24
ATOM     24  C   UNL     1      46.023   4.982  13.625  0.00  0.00    +0.000 A 
ATOM     25  C   UNL     1      44.833   4.501  13.096  0.00  0.00    +0.000 A 
ATOM     26  S   UNL     1      43.992   5.659  12.168  0.00  0.00    +0.000 S 
ATOM     27  C   UNL     1      45.210   6.822  12.407  0.00  0.00    +0.000 A 
ATOM     28  N   UNL     1      45.121   8.056  11.847  0.00  0.00    +0.000 NA
ATOM     29  C   UNL     1      46.128   8.832  12.091  0.00  0.00    +0.000 A 
ATOM     30  N   UNL     1      47.211   8.481  12.852  0.00  0.00    +0.000 N 
ATOM     31  C   UNL     1      47.331   7.255  13.469  0.00  0.00    +0.000 A 
ATOM     32  O   UNL     1      48.287   6.996  14.183  0.00  0.00    +0.000 OA
ATOM     33  C   UNL     1      46.230   6.342  13.203  0.00  0.00    +0.000 A 
ATOM     34  H   UNL     1      47.958   9.139  13.024  0.00  0.00    +0.000 HD
ENDBRANCH  21  24
ENDBRANCH  19  20
ENDBRANCH   4  19
TORSDOF 8
ENDMDL
MODEL 8
REMARK VINA RESULT:    -6.836      3.656      5.434
REMARK INTER + INTRA:         -11.437
REMARK INTER:                 -11.042
REMARK INTRA:                  -0.395
REMARK UNBOUND:                -1.404
REMARK  Name = 
REMARK  10 active torsions:
REMARK  status: ('A' for Active; 'I' for Inactive)
REMARK    1  A    between atoms: C_1  and  C_2
REMARK    2  A    between atoms: C_2  and  C_3
REMARK    3  A    between atoms: C_2  and  N_10
REMARK    4  A    between atoms: C_3  and  C_4
REMARK    5  A    between atoms: N_10  and  C_11
REMARK    6  A    between atoms: N_10  and  C_12
REMARK    7  A    between atoms: C_12  and  C_13
REMARK    8  A    between atoms: C_16  and  C_17
REMARK    9  A    between atoms: C_17  and  N_18
REMARK   10  A    between atoms: C_19  and  C_21
REMARK                            x       y       z     vdW  Elec       q    Type
REMARK                         _______ _______ _______ _____ _____    ______ ____
ROOT
ATOM      1  C   UNL     1      45.926   5.079  12.692  0.00  0.00    +0.000 A 
ATOM      2  C   UNL     1      45.292   6.307  12.459  0.00  0.00    +0.000 A 
ATOM      3  C   UNL     1      45.850   7.515  12.855  0.00  0.00    +0.000 A 
ATOM      4  C   UNL     1      47.024   7.516  13.597  0.00  0.00    +0.000 A 
ATOM      5  C   UNL     1      47.585   6.289  13.979  0.00  0.00    +0.000 A 
ATOM      6  C   UNL     1      47.058   5.083  13.512  0.00  0.00    +0.000 A 
ENDROOT
BRANCH   1   7
ATOM      7  C   UNL     1      45.434   3.781  12.064  0.00  0.00    +0.000 C 
BRANCH   7   8
ATOM      8  N   UNL     1      44.179   3.862  11.264  0.00  0.00    +0.000 NA
ATOM      9  C   UNL     1      43.249   2.810  11.702  0.00  0.00    +0.000 C 
BRANCH   8  11
ATOM     10  C   UNL     1      45.468   4.827   9.308  0.00  0.00    +0.000 C 
ATOM     11  C   UNL     1      44.383   3.846   9.789  0.00  0.00    +0.000 C 
BRANCH  11  12
ATOM     12  C   UNL     1      44.716   2.423   9.233  0.00  0.00    +0.000 C 
BRANCH  12  13
ATOM     13  C   UNL     1      45.725   2.374   8.100  0.00  0.00    +0.000 A 
ATOM     14  C   UNL     1      46.596   1.282   8.012  0.00  0.00    +0.000 A 
ATOM     15  C   UNL     1      47.526   1.201   6.975  0.00  0.00    +0.000 A 
ATOM     16  C   UNL     1      47.588   2.202   6.007  0.00  0.00    +0.000 A 
ATOM     17  C   UNL     1      46.711   3.278   6.066  0.00  0.00    +0.000 A 
ATOM     18  C   UNL     1      45.777   3.356   7.097  0.00  0.00    +0.000 A 
ENDBRANCH  12  13
ENDBRANCH  11  12
ENDBRANCH   8  11
ENDBRANCH   7   8
ENDBRANCH   1   7
BRANCH   4  19
ATOM     19  C   UNL     1      47.643   8.811  14.030  0.00  0.00    +0.000 C 
BRANCH  19  20
ATOM     20  N   UNL     1      48.793   9.114  13.226  0.00  0.00    +0.000 N 
ATOM     21  C   UNL     1      48.693   9.942  12.142  0.00  0.00    +0.000 C 
ATOM     22  O   UNL     1      47.638  10.488  11.831  0.00  0.00    +0.000 OA
ATOM     23  H   UNL     1      49.588   8.486  13.307  0.00  0.00    +0.000 HD
BRANCH  21  24
ATOM     24  C   UNL     1      49.940  10.191  11.410  0.00  0.00    +0.000 A 
ATOM     25  C   UNL     1      50.261  11.486  11.028  0.00  0.00    +0.000 A 
ATOM     26  S   UNL     1      51.761  11.598  10.224  0.00  0.00    +0.000 S 
ATOM     27  C   UNL     1      52.007   9.917  10.322  0.00  0.00    +0.000 A 
ATOM     28  N   UNL     1      53.113   9.338   9.790  0.00  0.00    +0.000 NA
ATOM     29  C   UNL     1      53.160   8.050   9.915  0.00  0.00    +0.000 A 
ATOM     30  N   UNL     1      52.198   7.296  10.533  0.00  0.00    +0.000 N 
ATOM     31  C   UNL     1      51.075   7.840  11.116  0.00  0.00    +0.000 A 
ATOM     32  O   UNL     1      50.264   7.141  11.703  0.00  0.00    +0.000 OA
ATOM     33  C   UNL     1      50.971   9.285  10.979  0.00  0.00    +0.000 A 
ATOM     34  H   UNL     1      52.300   6.295  10.617  0.00  0.00    +0.000 HD
ENDBRANCH  21  24
ENDBRANCH  19  20
ENDBRANCH   4  19
TORSDOF 8
ENDMDL
MODEL 9
REMARK VINA RESULT:    -6.434      3.565      4.706
REMARK INTER + INTRA:         -10.847
REMARK INTER:                 -10.075
REMARK INTRA:                  -0.772
REMARK UNBOUND:                -1.404
REMARK  Name = 
REMARK  10 active torsions:
REMARK  status: ('A' for Active; 'I' for Inactive)
REMARK    1  A    between atoms: C_1  and  C_2
REMARK    2  A    between atoms: C_2  and  C_3
REMARK    3  A    between atoms: C_2  and  N_10
REMARK    4  A    between atoms: C_3  and  C_4
REMARK    5  A    between atoms: N_10  and  C_11
REMARK    6  A    between atoms: N_10  and  C_12
REMARK    7  A    between atoms: C_12  and  C_13
REMARK    8  A    between atoms: C_16  and  C_17
REMARK    9  A    between atoms: C_17  and  N_18
REMARK   10  A    between atoms: C_19  and  C_21
REMARK                            x       y       z     vdW  Elec       q    Type
REMARK                         _______ _______ _______ _____ _____    ______ ____
ROOT
ATOM      1  C   UNL     1      46.820   4.695  13.772  0.00  0.00    +0.000 A 
ATOM      2  C   UNL     1      46.976   4.169  15.062  0.00  0.00    +0.000 A 
ATOM      3  C   UNL     1      47.716   4.818  16.041  0.00  0.00    +0.000 A 
ATOM      4  C   UNL     1      48.411   5.977  15.718  0.00  0.00    +0.000 A 
ATOM      5  C   UNL     1      48.397   6.427  14.391  0.00  0.00    +0.000 A 
ATOM      6  C   UNL     1      47.591   5.810  13.432  0.00  0.00    +0.000 A 
ENDROOT
BRANCH   1   7
ATOM      7  C   UNL     1      45.831   4.107  12.773  0.00  0.00    +0.000 C 
BRANCH   7   8
ATOM      8  N   UNL     1      45.028   5.079  11.979  0.00  0.00    +0.000 NA
ATOM      9  C   UNL     1      44.603   6.188  12.847  0.00  0.00    +0.000 C 
BRANCH   8  11
ATOM     10  C   UNL     1      42.509   4.984  11.724  0.00  0.00    +0.000 C 
ATOM     11  C   UNL     1      43.882   4.479  11.242  0.00  0.00    +0.000 C 
BRANCH  11  12
ATOM     12  C   UNL     1      43.974   4.686   9.695  0.00  0.00    +0.000 C 
BRANCH  12  13
ATOM     13  C   UNL     1      44.927   3.763   8.959  0.00  0.00    +0.000 A 
ATOM     14  C   UNL     1      44.878   2.388   9.219  0.00  0.00    +0.000 A 
ATOM     15  C   UNL     1      45.732   1.511   8.549  0.00  0.00    +0.000 A 
ATOM     16  C   UNL     1      46.635   1.994   7.604  0.00  0.00    +0.000 A 
ATOM     17  C   UNL     1      46.677   3.353   7.316  0.00  0.00    +0.000 A 
ATOM     18  C   UNL     1      45.819   4.229   7.979  0.00  0.00    +0.000 A 
ENDBRANCH  12  13
ENDBRANCH  11  12
ENDBRANCH   8  11
ENDBRANCH   7   8
ENDBRANCH   1   7
BRANCH   4  19
ATOM     19  C   UNL     1      49.210   6.694  16.764  0.00  0.00    +0.000 C 
BRANCH  19  20
ATOM     20  N   UNL     1      48.619   7.965  17.067  0.00  0.00    +0.000 N 
ATOM     21  C   UNL     1      49.399   9.047  17.373  0.00  0.00    +0.000 C 
ATOM     22  O   UNL     1      50.626   8.992  17.367  0.00  0.00    +0.000 OA
ATOM     23  H   UNL     1      47.638   7.965  17.327  0.00  0.00    +0.000 HD
BRANCH  21  24
ATOM     24  C   UNL     1      48.681  10.297  17.648  0.00  0.00    +0.000 A 
ATOM     25  C   UNL     1      48.975  11.431  16.903  0.00  0.00    +0.000 A 
ATOM     26  S   UNL     1      48.020  12.779  17.326  0.00  0.00    +0.000 S 
ATOM     27  C   UNL     1      47.217  11.904  18.544  0.00  0.00    +0.000 A 
ATOM     28  N   UNL     1      46.271  12.490  19.321  0.00  0.00    +0.000 NA
ATOM     29  C   UNL     1      45.759  11.715  20.223  0.00  0.00    +0.000 A 
ATOM     30  N   UNL     1      46.108  10.404  20.408  0.00  0.00    +0.000 N 
ATOM     31  C   UNL     1      47.037   9.755  19.623  0.00  0.00    +0.000 A 
ATOM     32  O   UNL     1      47.285   8.571  19.783  0.00  0.00    +0.000 OA
ATOM     33  C   UNL     1      47.654  10.597  18.610  0.00  0.00    +0.000 A 
ATOM     34  H   UNL     1      45.658   9.843  21.117  0.00  0.00    +0.000 HD
ENDBRANCH  21  24
ENDBRANCH  19  20
ENDBRANCH   4  19
TORSDOF 8
ENDMDL
