MODEL 1
REMARK VINA RESULT:    -8.411      0.000      0.000
REMARK INTER + INTRA:         -13.090
REMARK INTER:                 -11.853
REMARK INTRA:                  -1.237
REMARK UNBOUND:                -1.237
REMARK  Name = 
REMARK  8 active torsions:
REMARK  status: ('A' for Active; 'I' for Inactive)
REMARK    1  A    between atoms: C_1  and  N_2
REMARK    2  A    between atoms: C_4  and  C_5
REMARK    3  A    between atoms: N_7  and  C_8
REMARK    4  A    between atoms: C_8  and  C_9
REMARK    5  A    between atoms: C_12  and  C_13
REMARK    6  A    between atoms: C_13  and  N_14
REMARK    7  A    between atoms: N_14  and  C_15
REMARK    8  A    between atoms: C_15  and  C_16
REMARK                            x       y       z     vdW  Elec       q    Type
REMARK                         _______ _______ _______ _____ _____    ______ ____
ROOT
ATOM      1  C   UNL     1      46.981   7.560  12.986  0.00  0.00    +0.000 C 
ENDROOT
BRANCH   1   2
ATOM      2  C   UNL     1      46.122   6.475  12.403  0.00  0.00    +0.000 A 
ATOM      3  C   UNL     1      46.113   6.240  11.024  0.00  0.00    +0.000 A 
ATOM      4  C   UNL     1      45.352   5.197  10.489  0.00  0.00    +0.000 A 
ATOM      5  C   UNL     1      44.583   4.373  11.323  0.00  0.00    +0.000 A 
ATOM      6  C   UNL     1      44.581   4.622  12.702  0.00  0.00    +0.000 A 
ATOM      7  C   UNL     1      45.340   5.665  13.236  0.00  0.00    +0.000 A 
BRANCH   5   8
ATOM      8  C   UNL     1      43.759   3.246  10.746  0.00  0.00    +0.000 C 
BRANCH   8   9
ATOM      9  N   UNL     1      44.090   3.014   9.342  0.00  0.00    +0.000 NA
ATOM     10  H   UNL     1      44.557   3.842   8.972  0.00  0.00    +0.000 HD
BRANCH   9  11
ATOM     11  C   UNL     1      44.967   1.855   9.191  0.00  0.00    +0.000 C 
BRANCH  11  12
ATOM     12  C   UNL     1      45.922   2.044   8.045  0.00  0.00    +0.000 A 
ATOM     13  C   UNL     1      45.924   3.214   7.278  0.00  0.00    +0.000 A 
ATOM     14  C   UNL     1      46.827   3.353   6.230  0.00  0.00    +0.000 A 
ATOM     15  C   UNL     1      47.701   2.310   5.975  0.00  0.00    +0.000 A 
ATOM     16  N   UNL     1      47.725   1.160   6.682  0.00  0.00    +0.000 NA
ATOM     17  C   UNL     1      46.837   1.055   7.698  0.00  0.00    +0.000 A 
ENDBRANCH  11  12
ENDBRANCH   9  11
ENDBRANCH   8   9
ENDBRANCH   5   8
ENDBRANCH   1   2
BRANCH   1  20
ATOM     18  C   UNL     1      48.688   6.915  14.596  0.00  0.00    +0.000 C 
ATOM     19  O   UNL     1      49.505   6.795  13.689  0.00  0.00    +0.000 OA
ATOM     20  N   UNL     1      47.388   7.298  14.342  0.00  0.00    +0.000 N 
ATOM     21  H   UNL     1      46.748   7.377  15.125  0.00  0.00    +0.000 HD
BRANCH  18  25
ATOM     22  C   UNL     1      50.464   7.713  19.036  0.00  0.00    +0.000 C 
ATOM     23  N   UNL     1      49.788   7.026  17.962  0.00  0.00    +0.000 N 
ATOM     24  N   UNL     1      49.693   7.582  16.735  0.00  0.00    +0.000 NA
ATOM     25  C   UNL     1      49.005   6.663  16.012  0.00  0.00    +0.000 A 
ATOM     26  C   UNL     1      48.671   5.519  16.806  0.00  0.00    +0.000 A 
ATOM     27  C   UNL     1      48.030   4.289  16.729  0.00  0.00    +0.000 A 
ATOM     28 CL   UNL     1      47.320   3.722  15.302  0.00  0.00    +0.000 Cl
ATOM     29  N   UNL     1      47.935   3.466  17.790  0.00  0.00    +0.000 NA
ATOM     30  C   UNL     1      48.490   3.878  18.936  0.00  0.00    +0.000 A 
ATOM     31  N   UNL     1      49.140   5.030  19.159  0.00  0.00    +0.000 NA
ATOM     32  C   UNL     1      49.196   5.802  18.058  0.00  0.00    +0.000 A 
ENDBRANCH  18  25
ENDBRANCH   1  20
TORSDOF 7
ENDMDL
MODEL 2
REMARK VINA RESULT:    -8.107      1.798      2.559
REMARK INTER + INTRA:         -12.662
REMARK INTER:                 -11.674
REMARK INTRA:                  -0.988
REMARK UNBOUND:                -1.237
REMARK  Name = 
REMARK  8 active torsions:
REMARK  status: ('A' for Active; 'I' for Inactive)
REMARK    1  A    between atoms: C_1  and  N_2
REMARK    2  A    between atoms: C_4  and  C_5
REMARK    3  A    between atoms: N_7  and  C_8
REMARK    4  A    between atoms: C_8  and  C_9
REMARK    5  A    between atoms: C_12  and  C_13
REMARK    6  A    between atoms: C_13  and  N_14
REMARK    7  A    between atoms: N_14  and  C_15
REMARK    8  A    between atoms: C_15  and  C_16
REMARK                            x       y       z     vdW  Elec       q    Type
REMARK                         _______ _______ _______ _____ _____    ______ ____
ROOT
ATOM      1  C   UNL     1      47.835   6.461  13.453  0.00  0.00    +0.000 C 
ENDROOT
BRANCH   1   2
ATOM      2  C   UNL     1      46.783   5.678  12.721  0.00  0.00    +0.000 A 
ATOM      3  C   UNL     1      46.301   4.473  13.245  0.00  0.00    +0.000 A 
ATOM      4  C   UNL     1      45.287   3.771  12.589  0.00  0.00    +0.000 A 
ATOM      5  C   UNL     1      44.737   4.260  11.395  0.00  0.00    +0.000 A 
ATOM      6  C   UNL     1      45.233   5.458  10.864  0.00  0.00    +0.000 A 
ATOM      7  C   UNL     1      46.249   6.158  11.519  0.00  0.00    +0.000 A 
BRANCH   5   8
ATOM      8  C   UNL     1      43.641   3.502  10.684  0.00  0.00    +0.000 C 
BRANCH   8   9
ATOM      9  N   UNL     1      44.010   3.210   9.301  0.00  0.00    +0.000 NA
ATOM     10  H   UNL     1      44.495   4.018   8.912  0.00  0.00    +0.000 HD
BRANCH   9  11
ATOM     11  C   UNL     1      44.881   2.039   9.224  0.00  0.00    +0.000 C 
BRANCH  11  12
ATOM     12  C   UNL     1      45.849   2.159   8.080  0.00  0.00    +0.000 A 
ATOM     13  C   UNL     1      45.872   3.288   7.254  0.00  0.00    +0.000 A 
ATOM     14  C   UNL     1      46.788   3.364   6.210  0.00  0.00    +0.000 A 
ATOM     15  C   UNL     1      47.651   2.299   6.018  0.00  0.00    +0.000 A 
ATOM     16  N   UNL     1      47.655   1.187   6.783  0.00  0.00    +0.000 NA
ATOM     17  C   UNL     1      46.757   1.144   7.793  0.00  0.00    +0.000 A 
ENDBRANCH  11  12
ENDBRANCH   9  11
ENDBRANCH   8   9
ENDBRANCH   5   8
ENDBRANCH   1   2
BRANCH   1  20
ATOM     18  C   UNL     1      48.887   6.496  15.647  0.00  0.00    +0.000 C 
ATOM     19  O   UNL     1      49.968   6.757  15.130  0.00  0.00    +0.000 OA
ATOM     20  N   UNL     1      47.751   6.328  14.884  0.00  0.00    +0.000 N 
ATOM     21  H   UNL     1      46.881   6.106  15.358  0.00  0.00    +0.000 HD
BRANCH  18  25
ATOM     22  C   UNL     1      48.734   4.287  19.960  0.00  0.00    +0.000 C 
ATOM     23  N   UNL     1      48.640   5.352  18.991  0.00  0.00    +0.000 N 
ATOM     24  N   UNL     1      48.882   5.122  17.682  0.00  0.00    +0.000 NA
ATOM     25  C   UNL     1      48.701   6.333  17.099  0.00  0.00    +0.000 A 
ATOM     26  C   UNL     1      48.337   7.328  18.063  0.00  0.00    +0.000 A 
ATOM     27  C   UNL     1      48.019   8.675  18.171  0.00  0.00    +0.000 A 
ATOM     28 CL   UNL     1      47.973   9.708  16.832  0.00  0.00    +0.000 Cl
ATOM     29  N   UNL     1      47.722   9.246  19.353  0.00  0.00    +0.000 NA
ATOM     30  C   UNL     1      47.743   8.459  20.435  0.00  0.00    +0.000 A 
ATOM     31  N   UNL     1      48.027   7.149  20.485  0.00  0.00    +0.000 NA
ATOM     32  C   UNL     1      48.313   6.646  19.270  0.00  0.00    +0.000 A 
ENDBRANCH  18  25
ENDBRANCH   1  20
TORSDOF 7
ENDMDL
MODEL 3
REMARK VINA RESULT:    -7.921      1.447      1.795
REMARK INTER + INTRA:         -12.399
REMARK INTER:                 -11.398
REMARK INTRA:                  -1.001
REMARK UNBOUND:                -1.237
REMARK  Name = 
REMARK  8 active torsions:
REMARK  status: ('A' for Active; 'I' for Inactive)
REMARK    1  A    between atoms: C_1  and  N_2
REMARK    2  A    between atoms: C_4  and  C_5
REMARK    3  A    between atoms: N_7  and  C_8
REMARK    4  A    between atoms: C_8  and  C_9
REMARK    5  A    between atoms: C_12  and  C_13
REMARK    6  A    between atoms: C_13  and  N_14
REMARK    7  A    between atoms: N_14  and  C_15
REMARK    8  A    between atoms: C_15  and  C_16
REMARK                            x       y       z     vdW  Elec       q    Type
REMARK                         _______ _______ _______ _____ _____    ______ ____
ROOT
ATOM      1  C   UNL     1      48.210   6.787  13.428  0.00  0.00    +0.000 C 
ENDROOT
BRANCH   1   2
ATOM      2  C   UNL     1      47.075   6.091  12.735  0.00  0.00    +0.000 A 
ATOM      3  C   UNL     1      46.386   5.050  13.368  0.00  0.00    +0.000 A 
ATOM      4  C   UNL     1      45.297   4.437  12.742  0.00  0.00    +0.000 A 
ATOM      5  C   UNL     1      44.880   4.851  11.469  0.00  0.00    +0.000 A 
ATOM      6  C   UNL     1      45.582   5.881  10.830  0.00  0.00    +0.000 A 
ATOM      7  C   UNL     1      46.671   6.493  11.455  0.00  0.00    +0.000 A 
BRANCH   5   8
ATOM      8  C   UNL     1      43.704   4.188  10.790  0.00  0.00    +0.000 C 
BRANCH   8   9
ATOM      9  N   UNL     1      44.058   3.727   9.450  0.00  0.00    +0.000 NA
ATOM     10  H   UNL     1      44.616   4.445   8.991  0.00  0.00    +0.000 HD
BRANCH   9  11
ATOM     11  C   UNL     1      44.822   2.482   9.506  0.00  0.00    +0.000 C 
BRANCH  11  12
ATOM     12  C   UNL     1      45.740   2.356   8.322  0.00  0.00    +0.000 A 
ATOM     13  C   UNL     1      45.968   3.430   7.455  0.00  0.00    +0.000 A 
ATOM     14  C   UNL     1      46.830   3.276   6.373  0.00  0.00    +0.000 A 
ATOM     15  C   UNL     1      47.433   2.044   6.188  0.00  0.00    +0.000 A 
ATOM     16  N   UNL     1      47.232   0.979   6.993  0.00  0.00    +0.000 NA
ATOM     17  C   UNL     1      46.392   1.161   8.038  0.00  0.00    +0.000 A 
ENDBRANCH  11  12
ENDBRANCH   9  11
ENDBRANCH   8   9
ENDBRANCH   5   8
ENDBRANCH   1   2
BRANCH   1  20
ATOM     18  C   UNL     1      48.957   6.788  15.744  0.00  0.00    +0.000 C 
ATOM     19  O   UNL     1      50.056   6.369  15.394  0.00  0.00    +0.000 OA
ATOM     20  N   UNL     1      47.959   7.032  14.825  0.00  0.00    +0.000 N 
ATOM     21  H   UNL     1      47.065   7.372  15.164  0.00  0.00    +0.000 HD
BRANCH  18  25
ATOM     22  C   UNL     1      47.450   9.288  19.615  0.00  0.00    +0.000 C 
ATOM     23  N   UNL     1      47.936   8.171  18.842  0.00  0.00    +0.000 N 
ATOM     24  N   UNL     1      48.168   8.292  17.517  0.00  0.00    +0.000 NA
ATOM     25  C   UNL     1      48.603   7.062  17.147  0.00  0.00    +0.000 A 
ATOM     26  C   UNL     1      48.643   6.166  18.263  0.00  0.00    +0.000 A 
ATOM     27  C   UNL     1      48.965   4.856  18.597  0.00  0.00    +0.000 A 
ATOM     28 CL   UNL     1      49.536   3.742  17.461  0.00  0.00    +0.000 Cl
ATOM     29  N   UNL     1      48.845   4.391  19.855  0.00  0.00    +0.000 NA
ATOM     30  C   UNL     1      48.401   5.246  20.784  0.00  0.00    +0.000 A 
ATOM     31  N   UNL     1      48.057   6.531  20.612  0.00  0.00    +0.000 NA
ATOM     32  C   UNL     1      48.201   6.927  19.334  0.00  0.00    +0.000 A 
ENDBRANCH  18  25
ENDBRANCH   1  20
TORSDOF 7
ENDMDL
MODEL 4
REMARK VINA RESULT:    -7.214      1.959      2.841
REMARK INTER + INTRA:         -11.403
REMARK INTER:                 -10.652
REMARK INTRA:                  -0.751
REMARK UNBOUND:                -1.237
REMARK  Name = 
REMARK  8 active torsions:
REMARK  status: ('A' for Active; 'I' for Inactive)
REMARK    1  A    between atoms: C_1  and  N_2
REMARK    2  A    between atoms: C_4  and  C_5
REMARK    3  A    between atoms: N_7  and  C_8
REMARK    4  A    between atoms: C_8  and  C_9
REMARK    5  A    between atoms: C_12  and  C_13
REMARK    6  A    between atoms: C_13  and  N_14
REMARK    7  A    between atoms: N_14  and  C_15
REMARK    8  A    between atoms: C_15  and  C_16
REMARK                            x       y       z     vdW  Elec       q    Type
REMARK                         _______ _______ _______ _____ _____    ______ ____
ROOT
ATOM      1  C   UNL     1      47.041   4.209  15.272  0.00  0.00    +0.000 C 
ENDROOT
BRANCH   1   2
ATOM      2  C   UNL     1      46.583   4.670  13.919  0.00  0.00    +0.000 A 
ATOM      3  C   UNL     1      45.552   4.000  13.251  0.00  0.00    +0.000 A 
ATOM      4  C   UNL     1      45.092   4.460  12.015  0.00  0.00    +0.000 A 
ATOM      5  C   UNL     1      45.657   5.598  11.422  0.00  0.00    +0.000 A 
ATOM      6  C   UNL     1      46.700   6.258  12.085  0.00  0.00    +0.000 A 
ATOM      7  C   UNL     1      47.161   5.796  13.319  0.00  0.00    +0.000 A 
BRANCH   5   8
ATOM      8  C   UNL     1      45.161   6.097  10.084  0.00  0.00    +0.000 C 
BRANCH   8   9
ATOM      9  N   UNL     1      45.777   5.360   8.984  0.00  0.00    +0.000 NA
ATOM     10  H   UNL     1      46.698   5.036   9.279  0.00  0.00    +0.000 HD
BRANCH   9  11
ATOM     11  C   UNL     1      44.961   4.212   8.596  0.00  0.00    +0.000 C 
BRANCH  11  12
ATOM     12  C   UNL     1      45.816   3.094   8.067  0.00  0.00    +0.000 A 
ATOM     13  C   UNL     1      46.792   3.316   7.090  0.00  0.00    +0.000 A 
ATOM     14  C   UNL     1      47.567   2.257   6.631  0.00  0.00    +0.000 A 
ATOM     15  C   UNL     1      47.335   0.999   7.160  0.00  0.00    +0.000 A 
ATOM     16  N   UNL     1      46.396   0.737   8.095  0.00  0.00    +0.000 NA
ATOM     17  C   UNL     1      45.662   1.789   8.525  0.00  0.00    +0.000 A 
ENDBRANCH  11  12
ENDBRANCH   9  11
ENDBRANCH   8   9
ENDBRANCH   5   8
ENDBRANCH   1   2
BRANCH   1  20
ATOM     18  C   UNL     1      48.858   4.875  16.748  0.00  0.00    +0.000 C 
ATOM     19  O   UNL     1      49.258   3.716  16.787  0.00  0.00    +0.000 OA
ATOM     20  N   UNL     1      47.747   5.224  16.011  0.00  0.00    +0.000 N 
ATOM     21  H   UNL     1      47.451   6.195  16.017  0.00  0.00    +0.000 HD
BRANCH  18  25
ATOM     22  C   UNL     1      52.252   8.136  17.911  0.00  0.00    +0.000 C 
ATOM     23  N   UNL     1      51.005   7.412  17.974  0.00  0.00    +0.000 N 
ATOM     24  N   UNL     1      50.744   6.404  17.115  0.00  0.00    +0.000 NA
ATOM     25  C   UNL     1      49.506   5.981  17.474  0.00  0.00    +0.000 A 
ATOM     26  C   UNL     1      48.995   6.739  18.576  0.00  0.00    +0.000 A 
ATOM     27  C   UNL     1      47.883   6.846  19.402  0.00  0.00    +0.000 A 
ATOM     28 CL   UNL     1      46.538   5.832  19.251  0.00  0.00    +0.000 Cl
ATOM     29  N   UNL     1      47.808   7.765  20.382  0.00  0.00    +0.000 NA
ATOM     30  C   UNL     1      48.857   8.583  20.536  0.00  0.00    +0.000 A 
ATOM     31  N   UNL     1      49.992   8.596  19.821  0.00  0.00    +0.000 NA
ATOM     32  C   UNL     1      49.998   7.653  18.861  0.00  0.00    +0.000 A 
ENDBRANCH  18  25
ENDBRANCH   1  20
TORSDOF 7
ENDMDL
MODEL 5
REMARK VINA RESULT:    -7.205      2.749      4.251
REMARK INTER + INTRA:         -11.391
REMARK INTER:                 -10.358
REMARK INTRA:                  -1.033
REMARK UNBOUND:                -1.237
REMARK  Name = 
REMARK  8 active torsions:
REMARK  status: ('A' for Active; 'I' for Inactive)
REMARK    1  A    between atoms: C_1  and  N_2
REMARK    2  A    between atoms: C_4  and  C_5
REMARK    3  A    between atoms: N_7  and  C_8
REMARK    4  A    between atoms: C_8  and  C_9
REMARK    5  A    between atoms: C_12  and  C_13
REMARK    6  A    between atoms: C_13  and  N_14
REMARK    7  A    between atoms: N_14  and  C_15
REMARK    8  A    between atoms: C_15  and  C_16
REMARK                            x       y       z     vdW  Elec       q    Type
REMARK                         _______ _______ _______ _____ _____    ______ ____
ROOT
ATOM      1  C   UNL     1      47.662   5.696  14.194  0.00  0.00    +0.000 C 
ENDROOT
BRANCH   1   2
ATOM      2  C   UNL     1      46.648   5.419  13.123  0.00  0.00    +0.000 A 
ATOM      3  C   UNL     1      45.668   4.437  13.309  0.00  0.00    +0.000 A 
ATOM      4  C   UNL     1      44.693   4.215  12.332  0.00  0.00    +0.000 A 
ATOM      5  C   UNL     1      44.684   4.967  11.149  0.00  0.00    +0.000 A 
ATOM      6  C   UNL     1      45.676   5.937  10.958  0.00  0.00    +0.000 A 
ATOM      7  C   UNL     1      46.651   6.158  11.933  0.00  0.00    +0.000 A 
BRANCH   5   8
ATOM      8  C   UNL     1      43.631   4.727  10.092  0.00  0.00    +0.000 C 
BRANCH   8   9
ATOM      9  N   UNL     1      44.225   4.207   8.863  0.00  0.00    +0.000 NA
ATOM     10  H   UNL     1      45.002   4.810   8.591  0.00  0.00    +0.000 HD
BRANCH   9  11
ATOM     11  C   UNL     1      44.715   2.843   9.049  0.00  0.00    +0.000 C 
BRANCH  11  12
ATOM     12  C   UNL     1      45.743   2.489   8.012  0.00  0.00    +0.000 A 
ATOM     13  C   UNL     1      46.037   3.349   6.948  0.00  0.00    +0.000 A 
ATOM     14  C   UNL     1      47.000   2.989   6.011  0.00  0.00    +0.000 A 
ATOM     15  C   UNL     1      47.638   1.770   6.164  0.00  0.00    +0.000 A 
ATOM     16  N   UNL     1      47.377   0.905   7.168  0.00  0.00    +0.000 NA
ATOM     17  C   UNL     1      46.439   1.285   8.065  0.00  0.00    +0.000 A 
ENDBRANCH  11  12
ENDBRANCH   9  11
ENDBRANCH   8   9
ENDBRANCH   5   8
ENDBRANCH   1   2
BRANCH   1  20
ATOM     18  C   UNL     1      49.113   7.565  14.766  0.00  0.00    +0.000 C 
ATOM     19  O   UNL     1      50.071   6.804  14.840  0.00  0.00    +0.000 OA
ATOM     20  N   UNL     1      47.855   7.101  14.445  0.00  0.00    +0.000 N 
ATOM     21  H   UNL     1      47.092   7.770  14.403  0.00  0.00    +0.000 HD
BRANCH  18  25
ATOM     22  C   UNL     1      49.658  11.699  17.238  0.00  0.00    +0.000 C 
ATOM     23  N   UNL     1      49.450  10.826  16.108  0.00  0.00    +0.000 N 
ATOM     24  N   UNL     1      49.412   9.485  16.267  0.00  0.00    +0.000 NA
ATOM     25  C   UNL     1      49.207   9.014  15.011  0.00  0.00    +0.000 A 
ATOM     26  C   UNL     1      49.115  10.082  14.062  0.00  0.00    +0.000 A 
ATOM     27  C   UNL     1      48.923  10.322  12.707  0.00  0.00    +0.000 A 
ATOM     28 CL   UNL     1      48.688   9.075  11.588  0.00  0.00    +0.000 Cl
ATOM     29  N   UNL     1      48.909  11.568  12.198  0.00  0.00    +0.000 NA
ATOM     30  C   UNL     1      49.086  12.581  13.054  0.00  0.00    +0.000 A 
ATOM     31  N   UNL     1      49.278  12.504  14.379  0.00  0.00    +0.000 NA
ATOM     32  C   UNL     1      49.281  11.232  14.818  0.00  0.00    +0.000 A 
ENDBRANCH  18  25
ENDBRANCH   1  20
TORSDOF 7
ENDMDL
MODEL 6
REMARK VINA RESULT:    -6.800      2.032      2.913
REMARK INTER + INTRA:         -10.820
REMARK INTER:                 -10.129
REMARK INTRA:                  -0.692
REMARK UNBOUND:                -1.237
REMARK  Name = 
REMARK  8 active torsions:
REMARK  status: ('A' for Active; 'I' for Inactive)
REMARK    1  A    between atoms: C_1  and  N_2
REMARK    2  A    between atoms: C_4  and  C_5
REMARK    3  A    between atoms: N_7  and  C_8
REMARK    4  A    between atoms: C_8  and  C_9
REMARK    5  A    between atoms: C_12  and  C_13
REMARK    6  A    between atoms: C_13  and  N_14
REMARK    7  A    between atoms: N_14  and  C_15
REMARK    8  A    between atoms: C_15  and  C_16
REMARK                            x       y       z     vdW  Elec       q    Type
REMARK                         _______ _______ _______ _____ _____    ______ ____
ROOT
ATOM      1  C   UNL     1      47.068   3.829  15.185  0.00  0.00    +0.000 C 
ENDROOT
BRANCH   1   2
ATOM      2  C   UNL     1      46.544   4.418  13.908  0.00  0.00    +0.000 A 
ATOM      3  C   UNL     1      46.837   5.742  13.562  0.00  0.00    +0.000 A 
ATOM      4  C   UNL     1      46.391   6.273  12.349  0.00  0.00    +0.000 A 
ATOM      5  C   UNL     1      45.639   5.491  11.461  0.00  0.00    +0.000 A 
ATOM      6  C   UNL     1      45.333   4.171  11.817  0.00  0.00    +0.000 A 
ATOM      7  C   UNL     1      45.777   3.641  13.030  0.00  0.00    +0.000 A 
BRANCH   5   8
ATOM      8  C   UNL     1      45.155   6.064  10.149  0.00  0.00    +0.000 C 
BRANCH   8   9
ATOM      9  N   UNL     1      45.795   5.403   9.015  0.00  0.00    +0.000 NA
ATOM     10  H   UNL     1      46.724   5.090   9.296  0.00  0.00    +0.000 HD
BRANCH   9  11
ATOM     11  C   UNL     1      45.013   4.253   8.565  0.00  0.00    +0.000 C 
BRANCH  11  12
ATOM     12  C   UNL     1      45.905   3.167   8.031  0.00  0.00    +0.000 A 
ATOM     13  C   UNL     1      45.737   1.830   8.406  0.00  0.00    +0.000 A 
ATOM     14  C   UNL     1      46.579   0.853   7.885  0.00  0.00    +0.000 A 
ATOM     15  C   UNL     1      47.572   1.247   7.004  0.00  0.00    +0.000 A 
ATOM     16  N   UNL     1      47.777   2.526   6.625  0.00  0.00    +0.000 NA
ATOM     17  C   UNL     1      46.940   3.453   7.145  0.00  0.00    +0.000 A 
ENDBRANCH  11  12
ENDBRANCH   9  11
ENDBRANCH   8   9
ENDBRANCH   5   8
ENDBRANCH   1   2
BRANCH   1  20
ATOM     18  C   UNL     1      47.742   4.813  17.307  0.00  0.00    +0.000 C 
ATOM     19  O   UNL     1      46.925   4.113  17.896  0.00  0.00    +0.000 OA
ATOM     20  N   UNL     1      47.889   4.742  15.938  0.00  0.00    +0.000 N 
ATOM     21  H   UNL     1      48.574   5.347  15.496  0.00  0.00    +0.000 HD
BRANCH  18  25
ATOM     22  C   UNL     1      49.108   8.941  19.452  0.00  0.00    +0.000 C 
ATOM     23  N   UNL     1      49.209   7.600  18.930  0.00  0.00    +0.000 N 
ATOM     24  N   UNL     1      48.152   7.005  18.336  0.00  0.00    +0.000 NA
ATOM     25  C   UNL     1      48.620   5.781  17.986  0.00  0.00    +0.000 A 
ATOM     26  C   UNL     1      49.991   5.618  18.368  0.00  0.00    +0.000 A 
ATOM     27  C   UNL     1      51.031   4.698  18.327  0.00  0.00    +0.000 A 
ATOM     28 CL   UNL     1      50.865   3.168  17.625  0.00  0.00    +0.000 Cl
ATOM     29  N   UNL     1      52.244   4.970  18.843  0.00  0.00    +0.000 NA
ATOM     30  C   UNL     1      52.416   6.173  19.402  0.00  0.00    +0.000 A 
ATOM     31  N   UNL     1      51.512   7.158  19.511  0.00  0.00    +0.000 NA
ATOM     32  C   UNL     1      50.325   6.818  18.977  0.00  0.00    +0.000 A 
ENDBRANCH  18  25
ENDBRANCH   1  20
TORSDOF 7
ENDMDL
MODEL 7
REMARK VINA RESULT:    -6.661      1.564      2.018
REMARK INTER + INTRA:         -10.624
REMARK INTER:                  -9.574
REMARK INTRA:                  -1.050
REMARK UNBOUND:                -1.237
REMARK  Name = 
REMARK  8 active torsions:
REMARK  status: ('A' for Active; 'I' for Inactive)
REMARK    1  A    between atoms: C_1  and  N_2
REMARK    2  A    between atoms: C_4  and  C_5
REMARK    3  A    between atoms: N_7  and  C_8
REMARK    4  A    between atoms: C_8  and  C_9
REMARK    5  A    between atoms: C_12  and  C_13
REMARK    6  A    between atoms: C_13  and  N_14
REMARK    7  A    between atoms: N_14  and  C_15
REMARK    8  A    between atoms: C_15  and  C_16
REMARK                            x       y       z     vdW  Elec       q    Type
REMARK                         _______ _______ _______ _____ _____    ______ ____
ROOT
ATOM      1  C   UNL     1      48.852   7.320  13.087  0.00  0.00    +0.000 C 
ENDROOT
BRANCH   1   2
ATOM      2  C   UNL     1      47.681   6.425  12.798  0.00  0.00    +0.000 A 
ATOM      3  C   UNL     1      47.648   5.116  13.293  0.00  0.00    +0.000 A 
ATOM      4  C   UNL     1      46.536   4.301  13.066  0.00  0.00    +0.000 A 
ATOM      5  C   UNL     1      45.438   4.779  12.337  0.00  0.00    +0.000 A 
ATOM      6  C   UNL     1      45.481   6.084  11.828  0.00  0.00    +0.000 A 
ATOM      7  C   UNL     1      46.593   6.897  12.053  0.00  0.00    +0.000 A 
BRANCH   5   8
ATOM      8  C   UNL     1      44.235   3.898  12.090  0.00  0.00    +0.000 C 
BRANCH   8   9
ATOM      9  N   UNL     1      44.572   2.774  11.220  0.00  0.00    +0.000 NA
ATOM     10  H   UNL     1      44.161   1.924  11.605  0.00  0.00    +0.000 HD
BRANCH   9  11
ATOM     11  C   UNL     1      44.066   2.985   9.865  0.00  0.00    +0.000 C 
BRANCH  11  12
ATOM     12  C   UNL     1      45.185   2.976   8.861  0.00  0.00    +0.000 A 
ATOM     13  C   UNL     1      45.828   1.790   8.491  0.00  0.00    +0.000 A 
ATOM     14  C   UNL     1      46.855   1.823   7.554  0.00  0.00    +0.000 A 
ATOM     15  C   UNL     1      47.214   3.047   7.018  0.00  0.00    +0.000 A 
ATOM     16  N   UNL     1      46.629   4.217   7.356  0.00  0.00    +0.000 NA
ATOM     17  C   UNL     1      45.631   4.153   8.266  0.00  0.00    +0.000 A 
ENDBRANCH  11  12
ENDBRANCH   9  11
ENDBRANCH   8   9
ENDBRANCH   5   8
ENDBRANCH   1   2
BRANCH   1  20
ATOM     18  C   UNL     1      48.794   8.062  15.404  0.00  0.00    +0.000 C 
ATOM     19  O   UNL     1      47.932   8.887  15.123  0.00  0.00    +0.000 OA
ATOM     20  N   UNL     1      49.321   7.224  14.445  0.00  0.00    +0.000 N 
ATOM     21  H   UNL     1      50.037   6.562  14.725  0.00  0.00    +0.000 HD
BRANCH  18  25
ATOM     22  C   UNL     1      51.225   9.135  19.459  0.00  0.00    +0.000 C 
ATOM     23  N   UNL     1      50.413   8.375  18.540  0.00  0.00    +0.000 N 
ATOM     24  N   UNL     1      50.102   8.866  17.320  0.00  0.00    +0.000 NA
ATOM     25  C   UNL     1      49.342   7.891  16.760  0.00  0.00    +0.000 A 
ATOM     26  C   UNL     1      49.183   6.779  17.648  0.00  0.00    +0.000 A 
ATOM     27  C   UNL     1      48.584   5.529  17.731  0.00  0.00    +0.000 A 
ATOM     28 CL   UNL     1      47.677   4.869  16.464  0.00  0.00    +0.000 Cl
ATOM     29  N   UNL     1      48.691   4.758  18.829  0.00  0.00    +0.000 NA
ATOM     30  C   UNL     1      49.405   5.243  19.851  0.00  0.00    +0.000 A 
ATOM     31  N   UNL     1      50.039   6.423  19.914  0.00  0.00    +0.000 NA
ATOM     32  C   UNL     1      49.890   7.141  18.785  0.00  0.00    +0.000 A 
ENDBRANCH  18  25
ENDBRANCH   1  20
TORSDOF 7
ENDMDL
MODEL 8
REMARK VINA RESULT:    -6.463      3.933      9.418
REMARK INTER + INTRA:         -10.346
REMARK INTER:                  -8.628
REMARK INTRA:                  -1.718
REMARK UNBOUND:                -1.237
REMARK  Name = 
REMARK  8 active torsions:
REMARK  status: ('A' for Active; 'I' for Inactive)
REMARK    1  A    between atoms: C_1  and  N_2
REMARK    2  A    between atoms: C_4  and  C_5
REMARK    3  A    between atoms: N_7  and  C_8
REMARK    4  A    between atoms: C_8  and  C_9
REMARK    5  A    between atoms: C_12  and  C_13
REMARK    6  A    between atoms: C_13  and  N_14
REMARK    7  A    between atoms: N_14  and  C_15
REMARK    8  A    between atoms: C_15  and  C_16
REMARK                            x       y       z     vdW  Elec       q    Type
REMARK                         _______ _______ _______ _____ _____    ______ ____
ROOT
ATOM      1  C   UNL     1      47.713   3.659  16.417  0.00  0.00    +0.000 C 
ENDROOT
BRANCH   1   2
ATOM      2  C   UNL     1      47.960   4.338  17.734  0.00  0.00    +0.000 A 
ATOM      3  C   UNL     1      49.154   4.123  18.432  0.00  0.00    +0.000 A 
ATOM      4  C   UNL     1      49.404   4.794  19.632  0.00  0.00    +0.000 A 
ATOM      5  C   UNL     1      48.462   5.691  20.157  0.00  0.00    +0.000 A 
ATOM      6  C   UNL     1      47.261   5.891  19.465  0.00  0.00    +0.000 A 
ATOM      7  C   UNL     1      47.011   5.219  18.267  0.00  0.00    +0.000 A 
BRANCH   5   8
ATOM      8  C   UNL     1      48.731   6.416  21.455  0.00  0.00    +0.000 C 
BRANCH   8   9
ATOM      9  N   UNL     1      48.422   7.839  21.339  0.00  0.00    +0.000 NA
ATOM     10  H   UNL     1      48.281   8.223  22.273  0.00  0.00    +0.000 HD
BRANCH   9  11
ATOM     11  C   UNL     1      49.508   8.562  20.679  0.00  0.00    +0.000 C 
BRANCH  11  12
ATOM     12  C   UNL     1      49.133   8.936  19.272  0.00  0.00    +0.000 A 
ATOM     13  C   UNL     1      49.747   8.338  18.167  0.00  0.00    +0.000 A 
ATOM     14  C   UNL     1      49.368   8.707  16.880  0.00  0.00    +0.000 A 
ATOM     15  C   UNL     1      48.387   9.673  16.738  0.00  0.00    +0.000 A 
ATOM     16  N   UNL     1      47.777  10.283  17.777  0.00  0.00    +0.000 NA
ATOM     17  C   UNL     1      48.164   9.901  19.016  0.00  0.00    +0.000 A 
ENDBRANCH  11  12
ENDBRANCH   9  11
ENDBRANCH   8   9
ENDBRANCH   5   8
ENDBRANCH   1   2
BRANCH   1  20
ATOM     18  C   UNL     1      46.670   4.007  14.247  0.00  0.00    +0.000 C 
ATOM     19  O   UNL     1      47.314   3.072  13.782  0.00  0.00    +0.000 OA
ATOM     20  N   UNL     1      46.802   4.380  15.567  0.00  0.00    +0.000 N 
ATOM     21  H   UNL     1      46.252   5.164  15.903  0.00  0.00    +0.000 HD
BRANCH  18  25
ATOM     22  C   UNL     1      42.606   5.122  11.850  0.00  0.00    +0.000 C 
ATOM     23  N   UNL     1      43.926   5.288  12.408  0.00  0.00    +0.000 N 
ATOM     24  N   UNL     1      44.519   4.290  13.097  0.00  0.00    +0.000 NA
ATOM     25  C   UNL     1      45.719   4.809  13.458  0.00  0.00    +0.000 A 
ATOM     26  C   UNL     1      45.871   6.150  12.981  0.00  0.00    +0.000 A 
ATOM     27  C   UNL     1      46.772   7.208  12.974  0.00  0.00    +0.000 A 
ATOM     28 CL   UNL     1      48.289   7.116  13.717  0.00  0.00    +0.000 Cl
ATOM     29  N   UNL     1      46.494   8.378  12.369  0.00  0.00    +0.000 NA
ATOM     30  C   UNL     1      45.305   8.486  11.764  0.00  0.00    +0.000 A 
ATOM     31  N   UNL     1      44.342   7.557  11.686  0.00  0.00    +0.000 NA
ATOM     32  C   UNL     1      44.686   6.416  12.312  0.00  0.00    +0.000 A 
ENDBRANCH  18  25
ENDBRANCH   1  20
TORSDOF 7
ENDMDL
MODEL 9
REMARK VINA RESULT:    -6.460      2.512      3.056
REMARK INTER + INTRA:         -10.340
REMARK INTER:                  -9.525
REMARK INTRA:                  -0.815
REMARK UNBOUND:                -1.237
REMARK  Name = 
REMARK  8 active torsions:
REMARK  status: ('A' for Active; 'I' for Inactive)
REMARK    1  A    between atoms: C_1  and  N_2
REMARK    2  A    between atoms: C_4  and  C_5
REMARK    3  A    between atoms: N_7  and  C_8
REMARK    4  A    between atoms: C_8  and  C_9
REMARK    5  A    between atoms: C_12  and  C_13
REMARK    6  A    between atoms: C_13  and  N_14
REMARK    7  A    between atoms: N_14  and  C_15
REMARK    8  A    between atoms: C_15  and  C_16
REMARK                            x       y       z     vdW  Elec       q    Type
REMARK                         _______ _______ _______ _____ _____    ______ ____
ROOT
ATOM      1  C   UNL     1      47.235   4.633  15.818  0.00  0.00    +0.000 C 
ENDROOT
BRANCH   1   2
ATOM      2  C   UNL     1      46.749   4.879  14.420  0.00  0.00    +0.000 A 
ATOM      3  C   UNL     1      47.281   5.924  13.655  0.00  0.00    +0.000 A 
ATOM      4  C   UNL     1      46.864   6.121  12.336  0.00  0.00    +0.000 A 
ATOM      5  C   UNL     1      45.903   5.279  11.759  0.00  0.00    +0.000 A 
ATOM      6  C   UNL     1      45.359   4.245  12.531  0.00  0.00    +0.000 A 
ATOM      7  C   UNL     1      45.775   4.049  13.850  0.00  0.00    +0.000 A 
BRANCH   5   8
ATOM      8  C   UNL     1      45.450   5.492  10.333  0.00  0.00    +0.000 C 
BRANCH   8   9
ATOM      9  N   UNL     1      44.655   4.363   9.856  0.00  0.00    +0.000 NA
ATOM     10  H   UNL     1      43.688   4.490  10.154  0.00  0.00    +0.000 HD
BRANCH   9  11
ATOM     11  C   UNL     1      44.702   4.263   8.399  0.00  0.00    +0.000 C 
BRANCH  11  12
ATOM     12  C   UNL     1      45.629   3.163   7.961  0.00  0.00    +0.000 A 
ATOM     13  C   UNL     1      46.591   3.368   6.966  0.00  0.00    +0.000 A 
ATOM     14  C   UNL     1      47.434   2.327   6.593  0.00  0.00    +0.000 A 
ATOM     15  C   UNL     1      47.284   1.104   7.224  0.00  0.00    +0.000 A 
ATOM     16  N   UNL     1      46.361   0.859   8.179  0.00  0.00    +0.000 NA
ATOM     17  C   UNL     1      45.559   1.892   8.524  0.00  0.00    +0.000 A 
ENDBRANCH  11  12
ENDBRANCH   9  11
ENDBRANCH   8   9
ENDBRANCH   5   8
ENDBRANCH   1   2
BRANCH   1  20
ATOM     18  C   UNL     1      48.994   5.514  17.251  0.00  0.00    +0.000 C 
ATOM     19  O   UNL     1      48.195   5.618  18.176  0.00  0.00    +0.000 OA
ATOM     20  N   UNL     1      48.606   5.026  16.022  0.00  0.00    +0.000 N 
ATOM     21  H   UNL     1      49.302   4.965  15.286  0.00  0.00    +0.000 HD
BRANCH  18  25
ATOM     22  C   UNL     1      52.894   8.386  17.447  0.00  0.00    +0.000 C 
ATOM     23  N   UNL     1      52.120   7.169  17.446  0.00  0.00    +0.000 N 
ATOM     24  N   UNL     1      50.777   7.201  17.311  0.00  0.00    +0.000 NA
ATOM     25  C   UNL     1      50.412   5.895  17.358  0.00  0.00    +0.000 A 
ATOM     26  C   UNL     1      51.551   5.041  17.523  0.00  0.00    +0.000 A 
ATOM     27  C   UNL     1      51.900   3.702  17.637  0.00  0.00    +0.000 A 
ATOM     28 CL   UNL     1      50.756   2.457  17.589  0.00  0.00    +0.000 Cl
ATOM     29  N   UNL     1      53.178   3.308  17.791  0.00  0.00    +0.000 NA
ATOM     30  C   UNL     1      54.113   4.266  17.828  0.00  0.00    +0.000 A 
ATOM     31  N   UNL     1      53.928   5.590  17.728  0.00  0.00    +0.000 NA
ATOM     32  C   UNL     1      52.629   5.911  17.577  0.00  0.00    +0.000 A 
ENDBRANCH  18  25
ENDBRANCH   1  20
TORSDOF 7
ENDMDL
