MODEL 1
REMARK VINA RESULT:    -8.511      0.000      0.000
REMARK INTER + INTRA:         -12.926
REMARK INTER:                 -11.994
REMARK INTRA:                  -0.932
REMARK UNBOUND:                -0.932
REMARK  Name = 
REMARK  7 active torsions:
REMARK  status: ('A' for Active; 'I' for Inactive)
REMARK    1  A    between atoms: C_2  and  C_11
REMARK    2  A    between atoms: N_3  and  C_4
REMARK    3  A    between atoms: C_4  and  C_5
REMARK    4  A    between atoms: C_14  and  C_15
REMARK    5  A    between atoms: C_15  and  N_16
REMARK    6  A    between atoms: N_16  and  C_17
REMARK    7  A    between atoms: C_17  and  C_18
REMARK                            x       y       z     vdW  Elec       q    Type
REMARK                         _______ _______ _______ _____ _____    ______ ____
ROOT
ATOM      1  C   UNL     1      46.906   5.929  12.977  0.00  0.00    +0.000 A 
ATOM      2  C   UNL     1      46.033   4.908  13.365  0.00  0.00    +0.000 A 
ATOM      3  C   UNL     1      44.950   4.560  12.549  0.00  0.00    +0.000 A 
ATOM      4  C   UNL     1      44.732   5.217  11.328  0.00  0.00    +0.000 A 
ATOM      5  C   UNL     1      45.628   6.224  10.936  0.00  0.00    +0.000 A 
ATOM      6  C   UNL     1      46.711   6.577  11.751  0.00  0.00    +0.000 A 
ENDROOT
BRANCH   1   8
ATOM      7  O   UNL     1      49.145   6.530  13.400  0.00  0.00    +0.000 OA
ATOM      8  C   UNL     1      48.046   6.275  13.873  0.00  0.00    +0.000 C 
ATOM      9  N   UNL     1      47.775   6.251  15.227  0.00  0.00    +0.000 N 
ATOM     10  H   UNL     1      46.941   5.766  15.532  0.00  0.00    +0.000 HD
BRANCH   9  11
ATOM     11  C   UNL     1      48.816   6.492  16.210  0.00  0.00    +0.000 C 
BRANCH  11  12
ATOM     12  C   UNL     1      49.075   5.257  17.090  0.00  0.00    +0.000 C 
ATOM     13  C   UNL     1      50.566   4.877  17.074  0.00  0.00    +0.000 C 
ATOM     14  C   UNL     1      50.846   3.599  17.861  0.00  0.00    +0.000 C 
ATOM     15  C   UNL     1      49.982   2.441  17.379  0.00  0.00    +0.000 C 
ATOM     16  C   UNL     1      48.501   2.802  17.421  0.00  0.00    +0.000 C 
ATOM     17  C   UNL     1      48.210   4.073  16.625  0.00  0.00    +0.000 C 
ENDBRANCH  11  12
ENDBRANCH   9  11
ENDBRANCH   1   8
BRANCH   4  18
ATOM     18  C   UNL     1      43.581   4.816  10.425  0.00  0.00    +0.000 C 
BRANCH  18  19
ATOM     19  N   UNL     1      44.051   4.318   9.133  0.00  0.00    +0.000 NA
ATOM     20  H   UNL     1      44.827   4.895   8.813  0.00  0.00    +0.000 HD
BRANCH  19  21
ATOM     21  C   UNL     1      44.506   2.931   9.235  0.00  0.00    +0.000 C 
BRANCH  21  22
ATOM     22  C   UNL     1      45.556   2.601   8.196  0.00  0.00    +0.000 A 
ATOM     23  C   UNL     1      45.959   3.550   7.243  0.00  0.00    +0.000 A 
ATOM     24  C   UNL     1      46.974   3.252   6.328  0.00  0.00    +0.000 A 
ATOM     25  C   UNL     1      47.595   2.005   6.354  0.00  0.00    +0.000 A 
ATOM     26  C   UNL     1      47.197   1.051   7.286  0.00  0.00    +0.000 A 
ATOM     27  C   UNL     1      46.183   1.347   8.200  0.00  0.00    +0.000 A 
ENDBRANCH  21  22
ENDBRANCH  19  21
ENDBRANCH  18  19
ENDBRANCH   4  18
TORSDOF 7
ENDMDL
MODEL 2
REMARK VINA RESULT:    -8.247      0.805      1.313
REMARK INTER + INTRA:         -12.555
REMARK INTER:                 -11.556
REMARK INTRA:                  -0.998
REMARK UNBOUND:                -0.932
REMARK  Name = 
REMARK  7 active torsions:
REMARK  status: ('A' for Active; 'I' for Inactive)
REMARK    1  A    between atoms: C_2  and  C_11
REMARK    2  A    between atoms: N_3  and  C_4
REMARK    3  A    between atoms: C_4  and  C_5
REMARK    4  A    between atoms: C_14  and  C_15
REMARK    5  A    between atoms: C_15  and  N_16
REMARK    6  A    between atoms: N_16  and  C_17
REMARK    7  A    between atoms: C_17  and  C_18
REMARK                            x       y       z     vdW  Elec       q    Type
REMARK                         _______ _______ _______ _____ _____    ______ ____
ROOT
ATOM      1  C   UNL     1      46.937   6.000  12.908  0.00  0.00    +0.000 A 
ATOM      2  C   UNL     1      46.037   5.058  13.418  0.00  0.00    +0.000 A 
ATOM      3  C   UNL     1      44.915   4.682  12.670  0.00  0.00    +0.000 A 
ATOM      4  C   UNL     1      44.682   5.229  11.399  0.00  0.00    +0.000 A 
ATOM      5  C   UNL     1      45.605   6.155  10.886  0.00  0.00    +0.000 A 
ATOM      6  C   UNL     1      46.727   6.537  11.632  0.00  0.00    +0.000 A 
ENDROOT
BRANCH   1   8
ATOM      7  O   UNL     1      49.206   6.561  13.204  0.00  0.00    +0.000 OA
ATOM      8  C   UNL     1      48.119   6.379  13.733  0.00  0.00    +0.000 C 
ATOM      9  N   UNL     1      47.898   6.469  15.094  0.00  0.00    +0.000 N 
ATOM     10  H   UNL     1      47.063   6.036  15.465  0.00  0.00    +0.000 HD
BRANCH   9  11
ATOM     11  C   UNL     1      48.981   6.755  16.018  0.00  0.00    +0.000 C 
BRANCH  11  12
ATOM     12  C   UNL     1      49.260   5.573  16.962  0.00  0.00    +0.000 C 
ATOM     13  C   UNL     1      47.999   4.713  17.151  0.00  0.00    +0.000 C 
ATOM     14  C   UNL     1      48.212   3.584  18.156  0.00  0.00    +0.000 C 
ATOM     15  C   UNL     1      48.720   4.110  19.492  0.00  0.00    +0.000 C 
ATOM     16  C   UNL     1      49.987   4.938  19.315  0.00  0.00    +0.000 C 
ATOM     17  C   UNL     1      49.778   6.078  18.320  0.00  0.00    +0.000 C 
ENDBRANCH  11  12
ENDBRANCH   9  11
ENDBRANCH   1   8
BRANCH   4  18
ATOM     18  C   UNL     1      43.488   4.795  10.573  0.00  0.00    +0.000 C 
BRANCH  18  19
ATOM     19  N   UNL     1      43.891   4.257   9.273  0.00  0.00    +0.000 NA
ATOM     20  H   UNL     1      44.592   4.869   8.860  0.00  0.00    +0.000 HD
BRANCH  19  21
ATOM     21  C   UNL     1      44.457   2.914   9.411  0.00  0.00    +0.000 C 
BRANCH  21  22
ATOM     22  C   UNL     1      45.506   2.632   8.356  0.00  0.00    +0.000 A 
ATOM     23  C   UNL     1      45.950   3.639   7.484  0.00  0.00    +0.000 A 
ATOM     24  C   UNL     1      46.962   3.380   6.555  0.00  0.00    +0.000 A 
ATOM     25  C   UNL     1      47.541   2.114   6.486  0.00  0.00    +0.000 A 
ATOM     26  C   UNL     1      47.102   1.103   7.336  0.00  0.00    +0.000 A 
ATOM     27  C   UNL     1      46.090   1.360   8.265  0.00  0.00    +0.000 A 
ENDBRANCH  21  22
ENDBRANCH  19  21
ENDBRANCH  18  19
ENDBRANCH   4  18
TORSDOF 7
ENDMDL
MODEL 3
REMARK VINA RESULT:    -8.069      1.476      2.094
REMARK INTER + INTRA:         -12.303
REMARK INTER:                 -11.560
REMARK INTRA:                  -0.742
REMARK UNBOUND:                -0.932
REMARK  Name = 
REMARK  7 active torsions:
REMARK  status: ('A' for Active; 'I' for Inactive)
REMARK    1  A    between atoms: C_2  and  C_11
REMARK    2  A    between atoms: N_3  and  C_4
REMARK    3  A    between atoms: C_4  and  C_5
REMARK    4  A    between atoms: C_14  and  C_15
REMARK    5  A    between atoms: C_15  and  N_16
REMARK    6  A    between atoms: N_16  and  C_17
REMARK    7  A    between atoms: C_17  and  C_18
REMARK                            x       y       z     vdW  Elec       q    Type
REMARK                         _______ _______ _______ _____ _____    ______ ____
ROOT
ATOM      1  C   UNL     1      46.773   5.602  13.335  0.00  0.00    +0.000 A 
ATOM      2  C   UNL     1      46.750   6.263  12.103  0.00  0.00    +0.000 A 
ATOM      3  C   UNL     1      45.726   6.004  11.184  0.00  0.00    +0.000 A 
ATOM      4  C   UNL     1      44.703   5.092  11.488  0.00  0.00    +0.000 A 
ATOM      5  C   UNL     1      44.721   4.452  12.738  0.00  0.00    +0.000 A 
ATOM      6  C   UNL     1      45.746   4.706  13.658  0.00  0.00    +0.000 A 
ENDROOT
BRANCH   1   8
ATOM      7  O   UNL     1      48.897   6.455  13.894  0.00  0.00    +0.000 OA
ATOM      8  C   UNL     1      47.879   5.901  14.287  0.00  0.00    +0.000 C 
ATOM      9  N   UNL     1      47.681   5.486  15.590  0.00  0.00    +0.000 N 
ATOM     10  H   UNL     1      46.955   4.803  15.761  0.00  0.00    +0.000 HD
BRANCH   9  11
ATOM     11  C   UNL     1      48.712   5.647  16.600  0.00  0.00    +0.000 C 
BRANCH  11  12
ATOM     12  C   UNL     1      48.178   5.379  18.017  0.00  0.00    +0.000 C 
ATOM     13  C   UNL     1      47.837   6.697  18.732  0.00  0.00    +0.000 C 
ATOM     14  C   UNL     1      47.393   6.475  20.175  0.00  0.00    +0.000 C 
ATOM     15  C   UNL     1      48.423   5.676  20.964  0.00  0.00    +0.000 C 
ATOM     16  C   UNL     1      48.742   4.354  20.275  0.00  0.00    +0.000 C 
ATOM     17  C   UNL     1      49.200   4.569  18.834  0.00  0.00    +0.000 C 
ENDBRANCH  11  12
ENDBRANCH   9  11
ENDBRANCH   1   8
BRANCH   4  18
ATOM     18  C   UNL     1      43.574   4.837  10.509  0.00  0.00    +0.000 C 
BRANCH  18  19
ATOM     19  N   UNL     1      44.070   4.381   9.211  0.00  0.00    +0.000 NA
ATOM     20  H   UNL     1      44.892   4.925   8.957  0.00  0.00    +0.000 HD
BRANCH  19  21
ATOM     21  C   UNL     1      44.435   2.964   9.253  0.00  0.00    +0.000 C 
BRANCH  21  22
ATOM     22  C   UNL     1      45.483   2.619   8.216  0.00  0.00    +0.000 A 
ATOM     23  C   UNL     1      45.849   3.536   7.220  0.00  0.00    +0.000 A 
ATOM     24  C   UNL     1      46.862   3.227   6.306  0.00  0.00    +0.000 A 
ATOM     25  C   UNL     1      47.517   1.999   6.377  0.00  0.00    +0.000 A 
ATOM     26  C   UNL     1      47.155   1.075   7.353  0.00  0.00    +0.000 A 
ATOM     27  C   UNL     1      46.143   1.383   8.266  0.00  0.00    +0.000 A 
ENDBRANCH  21  22
ENDBRANCH  19  21
ENDBRANCH  18  19
ENDBRANCH   4  18
TORSDOF 7
ENDMDL
MODEL 4
REMARK VINA RESULT:    -7.958      1.477      8.551
REMARK INTER + INTRA:         -12.147
REMARK INTER:                 -11.261
REMARK INTRA:                  -0.886
REMARK UNBOUND:                -0.932
REMARK  Name = 
REMARK  7 active torsions:
REMARK  status: ('A' for Active; 'I' for Inactive)
REMARK    1  A    between atoms: C_2  and  C_11
REMARK    2  A    between atoms: N_3  and  C_4
REMARK    3  A    between atoms: C_4  and  C_5
REMARK    4  A    between atoms: C_14  and  C_15
REMARK    5  A    between atoms: C_15  and  N_16
REMARK    6  A    between atoms: N_16  and  C_17
REMARK    7  A    between atoms: C_17  and  C_18
REMARK                            x       y       z     vdW  Elec       q    Type
REMARK                         _______ _______ _______ _____ _____    ______ ____
ROOT
ATOM      1  C   UNL     1      45.824   5.419  11.826  0.00  0.00    +0.000 A 
ATOM      2  C   UNL     1      46.597   6.539  11.502  0.00  0.00    +0.000 A 
ATOM      3  C   UNL     1      47.532   7.037  12.417  0.00  0.00    +0.000 A 
ATOM      4  C   UNL     1      47.718   6.417  13.662  0.00  0.00    +0.000 A 
ATOM      5  C   UNL     1      46.955   5.278  13.968  0.00  0.00    +0.000 A 
ATOM      6  C   UNL     1      46.016   4.779  13.057  0.00  0.00    +0.000 A 
ENDROOT
BRANCH   1   8
ATOM      7  O   UNL     1      43.658   4.795  11.137  0.00  0.00    +0.000 OA
ATOM      8  C   UNL     1      44.836   4.919  10.829  0.00  0.00    +0.000 C 
ATOM      9  N   UNL     1      45.348   4.587   9.589  0.00  0.00    +0.000 N 
ATOM     10  H   UNL     1      46.348   4.454   9.513  0.00  0.00    +0.000 HD
BRANCH   9  11
ATOM     11  C   UNL     1      44.508   4.016   8.553  0.00  0.00    +0.000 C 
BRANCH  11  12
ATOM     12  C   UNL     1      45.271   3.000   7.686  0.00  0.00    +0.000 C 
ATOM     13  C   UNL     1      45.819   1.848   8.547  0.00  0.00    +0.000 C 
ATOM     14  C   UNL     1      46.664   0.870   7.735  0.00  0.00    +0.000 C 
ATOM     15  C   UNL     1      47.789   1.580   6.992  0.00  0.00    +0.000 C 
ATOM     16  C   UNL     1      47.249   2.703   6.114  0.00  0.00    +0.000 C 
ATOM     17  C   UNL     1      46.413   3.694   6.922  0.00  0.00    +0.000 C 
ENDBRANCH  11  12
ENDBRANCH   9  11
ENDBRANCH   1   8
BRANCH   4  18
ATOM     18  C   UNL     1      48.757   6.932  14.639  0.00  0.00    +0.000 C 
BRANCH  18  19
ATOM     19  N   UNL     1      48.226   7.026  15.999  0.00  0.00    +0.000 NA
ATOM     20  H   UNL     1      47.457   6.368  16.105  0.00  0.00    +0.000 HD
BRANCH  19  21
ATOM     21  C   UNL     1      49.257   6.712  16.990  0.00  0.00    +0.000 C 
BRANCH  21  22
ATOM     22  C   UNL     1      49.431   5.219  17.170  0.00  0.00    +0.000 A 
ATOM     23  C   UNL     1      48.343   4.340  17.057  0.00  0.00    +0.000 A 
ATOM     24  C   UNL     1      48.530   2.958  17.165  0.00  0.00    +0.000 A 
ATOM     25  C   UNL     1      49.804   2.440  17.387  0.00  0.00    +0.000 A 
ATOM     26  C   UNL     1      50.891   3.301  17.513  0.00  0.00    +0.000 A 
ATOM     27  C   UNL     1      50.706   4.682  17.406  0.00  0.00    +0.000 A 
ENDBRANCH  21  22
ENDBRANCH  19  21
ENDBRANCH  18  19
ENDBRANCH   4  18
TORSDOF 7
ENDMDL
MODEL 5
REMARK VINA RESULT:    -7.458      2.640      4.216
REMARK INTER + INTRA:         -11.443
REMARK INTER:                 -10.458
REMARK INTRA:                  -0.984
REMARK UNBOUND:                -0.932
REMARK  Name = 
REMARK  7 active torsions:
REMARK  status: ('A' for Active; 'I' for Inactive)
REMARK    1  A    between atoms: C_2  and  C_11
REMARK    2  A    between atoms: N_3  and  C_4
REMARK    3  A    between atoms: C_4  and  C_5
REMARK    4  A    between atoms: C_14  and  C_15
REMARK    5  A    between atoms: C_15  and  N_16
REMARK    6  A    between atoms: N_16  and  C_17
REMARK    7  A    between atoms: C_17  and  C_18
REMARK                            x       y       z     vdW  Elec       q    Type
REMARK                         _______ _______ _______ _____ _____    ______ ____
ROOT
ATOM      1  C   UNL     1      46.568   5.941  12.981  0.00  0.00    +0.000 A 
ATOM      2  C   UNL     1      46.468   4.579  13.282  0.00  0.00    +0.000 A 
ATOM      3  C   UNL     1      45.479   3.795  12.677  0.00  0.00    +0.000 A 
ATOM      4  C   UNL     1      44.584   4.355  11.753  0.00  0.00    +0.000 A 
ATOM      5  C   UNL     1      44.708   5.718  11.438  0.00  0.00    +0.000 A 
ATOM      6  C   UNL     1      45.694   6.507  12.043  0.00  0.00    +0.000 A 
ENDROOT
BRANCH   1   8
ATOM      7  O   UNL     1      48.712   6.237  13.912  0.00  0.00    +0.000 OA
ATOM      8  C   UNL     1      47.631   6.745  13.646  0.00  0.00    +0.000 C 
ATOM      9  N   UNL     1      47.294   8.049  13.954  0.00  0.00    +0.000 N 
ATOM     10  H   UNL     1      46.313   8.294  13.957  0.00  0.00    +0.000 HD
BRANCH   9  11
ATOM     11  C   UNL     1      48.211   8.917  14.672  0.00  0.00    +0.000 C 
BRANCH  11  12
ATOM     12  C   UNL     1      48.950   9.881  13.729  0.00  0.00    +0.000 C 
ATOM     13  C   UNL     1      48.158  10.088  12.426  0.00  0.00    +0.000 C 
ATOM     14  C   UNL     1      48.906  10.965  11.426  0.00  0.00    +0.000 C 
ATOM     15  C   UNL     1      50.301  10.424  11.137  0.00  0.00    +0.000 C 
ATOM     16  C   UNL     1      51.102  10.246  12.423  0.00  0.00    +0.000 C 
ATOM     17  C   UNL     1      50.365   9.358  13.424  0.00  0.00    +0.000 C 
ENDBRANCH  11  12
ENDBRANCH   9  11
ENDBRANCH   1   8
BRANCH   4  18
ATOM     18  C   UNL     1      43.536   3.500  11.069  0.00  0.00    +0.000 C 
BRANCH  18  19
ATOM     19  N   UNL     1      43.837   3.297   9.652  0.00  0.00    +0.000 NA
ATOM     20  H   UNL     1      44.376   4.090   9.308  0.00  0.00    +0.000 HD
BRANCH  19  21
ATOM     21  C   UNL     1      44.615   2.073   9.448  0.00  0.00    +0.000 C 
BRANCH  21  22
ATOM     22  C   UNL     1      45.629   2.227   8.335  0.00  0.00    +0.000 A 
ATOM     23  C   UNL     1      45.779   3.443   7.651  0.00  0.00    +0.000 A 
ATOM     24  C   UNL     1      46.763   3.589   6.667  0.00  0.00    +0.000 A 
ATOM     25  C   UNL     1      47.604   2.523   6.355  0.00  0.00    +0.000 A 
ATOM     26  C   UNL     1      47.458   1.307   7.017  0.00  0.00    +0.000 A 
ATOM     27  C   UNL     1      46.476   1.160   8.001  0.00  0.00    +0.000 A 
ENDBRANCH  21  22
ENDBRANCH  19  21
ENDBRANCH  18  19
ENDBRANCH   4  18
TORSDOF 7
ENDMDL
MODEL 6
REMARK VINA RESULT:    -7.428      3.004      4.574
REMARK INTER + INTRA:         -11.400
REMARK INTER:                 -10.371
REMARK INTRA:                  -1.029
REMARK UNBOUND:                -0.932
REMARK  Name = 
REMARK  7 active torsions:
REMARK  status: ('A' for Active; 'I' for Inactive)
REMARK    1  A    between atoms: C_2  and  C_11
REMARK    2  A    between atoms: N_3  and  C_4
REMARK    3  A    between atoms: C_4  and  C_5
REMARK    4  A    between atoms: C_14  and  C_15
REMARK    5  A    between atoms: C_15  and  N_16
REMARK    6  A    between atoms: N_16  and  C_17
REMARK    7  A    between atoms: C_17  and  C_18
REMARK                            x       y       z     vdW  Elec       q    Type
REMARK                         _______ _______ _______ _____ _____    ______ ____
ROOT
ATOM      1  C   UNL     1      46.922   6.227  12.662  0.00  0.00    +0.000 A 
ATOM      2  C   UNL     1      46.477   6.488  11.362  0.00  0.00    +0.000 A 
ATOM      3  C   UNL     1      45.441   5.728  10.807  0.00  0.00    +0.000 A 
ATOM      4  C   UNL     1      44.826   4.706  11.545  0.00  0.00    +0.000 A 
ATOM      5  C   UNL     1      45.263   4.468  12.858  0.00  0.00    +0.000 A 
ATOM      6  C   UNL     1      46.301   5.224  13.416  0.00  0.00    +0.000 A 
ENDROOT
BRANCH   1   8
ATOM      7  O   UNL     1      48.149   7.187  14.430  0.00  0.00    +0.000 OA
ATOM      8  C   UNL     1      48.029   7.054  13.219  0.00  0.00    +0.000 C 
ATOM      9  N   UNL     1      48.853   7.660  12.291  0.00  0.00    +0.000 N 
ATOM     10  H   UNL     1      48.520   7.727  11.338  0.00  0.00    +0.000 HD
BRANCH   9  11
ATOM     11  C   UNL     1      49.922   8.554  12.699  0.00  0.00    +0.000 C 
BRANCH  11  12
ATOM     12  C   UNL     1      51.218   8.301  11.910  0.00  0.00    +0.000 C 
ATOM     13  C   UNL     1      51.863   9.628  11.474  0.00  0.00    +0.000 C 
ATOM     14  C   UNL     1      53.101   9.413  10.608  0.00  0.00    +0.000 C 
ATOM     15  C   UNL     1      52.799   8.531   9.403  0.00  0.00    +0.000 C 
ATOM     16  C   UNL     1      52.187   7.202   9.831  0.00  0.00    +0.000 C 
ATOM     17  C   UNL     1      50.939   7.408  10.688  0.00  0.00    +0.000 C 
ENDBRANCH  11  12
ENDBRANCH   9  11
ENDBRANCH   1   8
BRANCH   4  18
ATOM     18  C   UNL     1      43.679   3.906  10.959  0.00  0.00    +0.000 C 
BRANCH  18  19
ATOM     19  N   UNL     1      43.892   3.606   9.543  0.00  0.00    +0.000 NA
ATOM     20  H   UNL     1      44.487   4.324   9.134  0.00  0.00    +0.000 HD
BRANCH  19  21
ATOM     21  C   UNL     1      44.537   2.303   9.371  0.00  0.00    +0.000 C 
BRANCH  21  22
ATOM     22  C   UNL     1      45.629   2.347   8.323  0.00  0.00    +0.000 A 
ATOM     23  C   UNL     1      46.421   1.221   8.050  0.00  0.00    +0.000 A 
ATOM     24  C   UNL     1      47.385   1.258   7.038  0.00  0.00    +0.000 A 
ATOM     25  C   UNL     1      47.569   2.418   6.289  0.00  0.00    +0.000 A 
ATOM     26  C   UNL     1      46.799   3.547   6.558  0.00  0.00    +0.000 A 
ATOM     27  C   UNL     1      45.836   3.512   7.569  0.00  0.00    +0.000 A 
ENDBRANCH  21  22
ENDBRANCH  19  21
ENDBRANCH  18  19
ENDBRANCH   4  18
TORSDOF 7
ENDMDL
MODEL 7
REMARK VINA RESULT:    -7.402      1.915      2.833
REMARK INTER + INTRA:         -11.364
REMARK INTER:                 -10.448
REMARK INTRA:                  -0.916
REMARK UNBOUND:                -0.932
REMARK  Name = 
REMARK  7 active torsions:
REMARK  status: ('A' for Active; 'I' for Inactive)
REMARK    1  A    between atoms: C_2  and  C_11
REMARK    2  A    between atoms: N_3  and  C_4
REMARK    3  A    between atoms: C_4  and  C_5
REMARK    4  A    between atoms: C_14  and  C_15
REMARK    5  A    between atoms: C_15  and  N_16
REMARK    6  A    between atoms: N_16  and  C_17
REMARK    7  A    between atoms: C_17  and  C_18
REMARK                            x       y       z     vdW  Elec       q    Type
REMARK                         _______ _______ _______ _____ _____    ______ ____
ROOT
ATOM      1  C   UNL     1      47.219   6.227  13.020  0.00  0.00    +0.000 A 
ATOM      2  C   UNL     1      46.800   5.088  13.716  0.00  0.00    +0.000 A 
ATOM      3  C   UNL     1      45.816   4.254  13.174  0.00  0.00    +0.000 A 
ATOM      4  C   UNL     1      45.245   4.536  11.923  0.00  0.00    +0.000 A 
ATOM      5  C   UNL     1      45.690   5.667  11.220  0.00  0.00    +0.000 A 
ATOM      6  C   UNL     1      46.672   6.506  11.761  0.00  0.00    +0.000 A 
ENDROOT
BRANCH   1   8
ATOM      7  O   UNL     1      48.682   8.073  13.026  0.00  0.00    +0.000 OA
ATOM      8  C   UNL     1      48.266   7.093  13.629  0.00  0.00    +0.000 C 
ATOM      9  N   UNL     1      48.731   6.694  14.867  0.00  0.00    +0.000 N 
ATOM     10  H   UNL     1      48.543   5.744  15.157  0.00  0.00    +0.000 HD
BRANCH   9  11
ATOM     11  C   UNL     1      49.805   7.407  15.536  0.00  0.00    +0.000 C 
BRANCH  11  12
ATOM     12  C   UNL     1      49.377   7.931  16.917  0.00  0.00    +0.000 C 
ATOM     13  C   UNL     1      48.714   6.817  17.745  0.00  0.00    +0.000 C 
ATOM     14  C   UNL     1      48.190   7.324  19.086  0.00  0.00    +0.000 C 
ATOM     15  C   UNL     1      47.247   8.507  18.910  0.00  0.00    +0.000 C 
ATOM     16  C   UNL     1      47.909   9.628  18.116  0.00  0.00    +0.000 C 
ATOM     17  C   UNL     1      48.425   9.131  16.766  0.00  0.00    +0.000 C 
ENDBRANCH  11  12
ENDBRANCH   9  11
ENDBRANCH   1   8
BRANCH   4  18
ATOM     18  C   UNL     1      44.206   3.613  11.317  0.00  0.00    +0.000 C 
BRANCH  18  19
ATOM     19  N   UNL     1      44.819   2.454  10.668  0.00  0.00    +0.000 NA
ATOM     20  H   UNL     1      44.554   1.609  11.171  0.00  0.00    +0.000 HD
BRANCH  19  21
ATOM     21  C   UNL     1      44.378   2.333   9.277  0.00  0.00    +0.000 C 
BRANCH  21  22
ATOM     22  C   UNL     1      45.540   2.386   8.309  0.00  0.00    +0.000 A 
ATOM     23  C   UNL     1      46.355   1.265   8.089  0.00  0.00    +0.000 A 
ATOM     24  C   UNL     1      47.388   1.310   7.146  0.00  0.00    +0.000 A 
ATOM     25  C   UNL     1      47.617   2.474   6.415  0.00  0.00    +0.000 A 
ATOM     26  C   UNL     1      46.824   3.597   6.632  0.00  0.00    +0.000 A 
ATOM     27  C   UNL     1      45.793   3.554   7.574  0.00  0.00    +0.000 A 
ENDBRANCH  21  22
ENDBRANCH  19  21
ENDBRANCH  18  19
ENDBRANCH   4  18
TORSDOF 7
ENDMDL
MODEL 8
REMARK VINA RESULT:    -7.152      1.876      8.950
REMARK INTER + INTRA:         -11.011
REMARK INTER:                 -10.051
REMARK INTRA:                  -0.959
REMARK UNBOUND:                -0.932
REMARK  Name = 
REMARK  7 active torsions:
REMARK  status: ('A' for Active; 'I' for Inactive)
REMARK    1  A    between atoms: C_2  and  C_11
REMARK    2  A    between atoms: N_3  and  C_4
REMARK    3  A    between atoms: C_4  and  C_5
REMARK    4  A    between atoms: C_14  and  C_15
REMARK    5  A    between atoms: C_15  and  N_16
REMARK    6  A    between atoms: N_16  and  C_17
REMARK    7  A    between atoms: C_17  and  C_18
REMARK                            x       y       z     vdW  Elec       q    Type
REMARK                         _______ _______ _______ _____ _____    ______ ____
ROOT
ATOM      1  C   UNL     1      45.728   5.353  11.895  0.00  0.00    +0.000 A 
ATOM      2  C   UNL     1      46.213   6.625  11.573  0.00  0.00    +0.000 A 
ATOM      3  C   UNL     1      47.105   7.276  12.434  0.00  0.00    +0.000 A 
ATOM      4  C   UNL     1      47.534   6.663  13.621  0.00  0.00    +0.000 A 
ATOM      5  C   UNL     1      47.061   5.376  13.923  0.00  0.00    +0.000 A 
ATOM      6  C   UNL     1      46.167   4.722  13.066  0.00  0.00    +0.000 A 
ENDROOT
BRANCH   1   8
ATOM      7  O   UNL     1      43.645   5.129  10.816  0.00  0.00    +0.000 OA
ATOM      8  C   UNL     1      44.779   4.691  10.957  0.00  0.00    +0.000 C 
ATOM      9  N   UNL     1      45.257   3.566  10.313  0.00  0.00    +0.000 N 
ATOM     10  H   UNL     1      46.082   3.121  10.692  0.00  0.00    +0.000 HD
BRANCH   9  11
ATOM     11  C   UNL     1      44.409   2.783   9.432  0.00  0.00    +0.000 C 
BRANCH  11  12
ATOM     12  C   UNL     1      45.123   2.417   8.120  0.00  0.00    +0.000 C 
ATOM     13  C   UNL     1      46.127   1.273   8.342  0.00  0.00    +0.000 C 
ATOM     14  C   UNL     1      46.923   0.947   7.082  0.00  0.00    +0.000 C 
ATOM     15  C   UNL     1      47.618   2.181   6.521  0.00  0.00    +0.000 C 
ATOM     16  C   UNL     1      46.624   3.308   6.269  0.00  0.00    +0.000 C 
ATOM     17  C   UNL     1      45.832   3.650   7.530  0.00  0.00    +0.000 C 
ENDBRANCH  11  12
ENDBRANCH   9  11
ENDBRANCH   1   8
BRANCH   4  18
ATOM     18  C   UNL     1      48.528   7.352  14.536  0.00  0.00    +0.000 C 
BRANCH  18  19
ATOM     19  N   UNL     1      49.535   6.422  15.045  0.00  0.00    +0.000 NA
ATOM     20  H   UNL     1      50.343   6.430  14.425  0.00  0.00    +0.000 HD
BRANCH  19  21
ATOM     21  C   UNL     1      49.970   6.800  16.391  0.00  0.00    +0.000 C 
BRANCH  21  22
ATOM     22  C   UNL     1      48.921   6.481  17.435  0.00  0.00    +0.000 A 
ATOM     23  C   UNL     1      48.497   7.448  18.359  0.00  0.00    +0.000 A 
ATOM     24  C   UNL     1      47.484   7.158  19.278  0.00  0.00    +0.000 A 
ATOM     25  C   UNL     1      46.885   5.900  19.285  0.00  0.00    +0.000 A 
ATOM     26  C   UNL     1      47.305   4.927  18.382  0.00  0.00    +0.000 A 
ATOM     27  C   UNL     1      48.317   5.216  17.463  0.00  0.00    +0.000 A 
ENDBRANCH  21  22
ENDBRANCH  19  21
ENDBRANCH  18  19
ENDBRANCH   4  18
TORSDOF 7
ENDMDL
MODEL 9
REMARK VINA RESULT:    -7.005      1.802      8.530
REMARK INTER + INTRA:         -10.803
REMARK INTER:                  -9.859
REMARK INTRA:                  -0.944
REMARK UNBOUND:                -0.932
REMARK  Name = 
REMARK  7 active torsions:
REMARK  status: ('A' for Active; 'I' for Inactive)
REMARK    1  A    between atoms: C_2  and  C_11
REMARK    2  A    between atoms: N_3  and  C_4
REMARK    3  A    between atoms: C_4  and  C_5
REMARK    4  A    between atoms: C_14  and  C_15
REMARK    5  A    between atoms: C_15  and  N_16
REMARK    6  A    between atoms: N_16  and  C_17
REMARK    7  A    between atoms: C_17  and  C_18
REMARK                            x       y       z     vdW  Elec       q    Type
REMARK                         _______ _______ _______ _____ _____    ______ ____
ROOT
ATOM      1  C   UNL     1      45.625   5.268  12.184  0.00  0.00    +0.000 A 
ATOM      2  C   UNL     1      45.002   6.500  11.960  0.00  0.00    +0.000 A 
ATOM      3  C   UNL     1      45.556   7.673  12.485  0.00  0.00    +0.000 A 
ATOM      4  C   UNL     1      46.745   7.636  13.229  0.00  0.00    +0.000 A 
ATOM      5  C   UNL     1      47.376   6.397  13.427  0.00  0.00    +0.000 A 
ATOM      6  C   UNL     1      46.824   5.220  12.906  0.00  0.00    +0.000 A 
ENDROOT
BRANCH   1   8
ATOM      7  O   UNL     1      44.668   3.121  12.347  0.00  0.00    +0.000 OA
ATOM      8  C   UNL     1      45.006   4.039  11.612  0.00  0.00    +0.000 C 
ATOM      9  N   UNL     1      44.882   4.012  10.236  0.00  0.00    +0.000 N 
ATOM     10  H   UNL     1      45.431   4.672   9.701  0.00  0.00    +0.000 HD
BRANCH   9  11
ATOM     11  C   UNL     1      44.366   2.843   9.547  0.00  0.00    +0.000 C 
BRANCH  11  12
ATOM     12  C   UNL     1      45.136   2.554   8.247  0.00  0.00    +0.000 C 
ATOM     13  C   UNL     1      46.097   1.367   8.432  0.00  0.00    +0.000 C 
ATOM     14  C   UNL     1      46.947   1.111   7.190  0.00  0.00    +0.000 C 
ATOM     15  C   UNL     1      47.702   2.362   6.758  0.00  0.00    +0.000 C 
ATOM     16  C   UNL     1      46.751   3.534   6.544  0.00  0.00    +0.000 C 
ATOM     17  C   UNL     1      45.905   3.805   7.787  0.00  0.00    +0.000 C 
ENDBRANCH  11  12
ENDBRANCH   9  11
ENDBRANCH   1   8
BRANCH   4  18
ATOM     18  C   UNL     1      47.366   8.910  13.767  0.00  0.00    +0.000 C 
BRANCH  18  19
ATOM     19  N   UNL     1      47.707   8.794  15.185  0.00  0.00    +0.000 NA
ATOM     20  H   UNL     1      47.386   7.893  15.534  0.00  0.00    +0.000 HD
BRANCH  19  21
ATOM     21  C   UNL     1      49.153   8.892  15.389  0.00  0.00    +0.000 C 
BRANCH  21  22
ATOM     22  C   UNL     1      49.722   7.636  16.015  0.00  0.00    +0.000 A 
ATOM     23  C   UNL     1      51.107   7.425  16.093  0.00  0.00    +0.000 A 
ATOM     24  C   UNL     1      51.620   6.290  16.728  0.00  0.00    +0.000 A 
ATOM     25  C   UNL     1      50.755   5.353  17.291  0.00  0.00    +0.000 A 
ATOM     26  C   UNL     1      49.378   5.543  17.209  0.00  0.00    +0.000 A 
ATOM     27  C   UNL     1      48.865   6.677  16.575  0.00  0.00    +0.000 A 
ENDBRANCH  21  22
ENDBRANCH  19  21
ENDBRANCH  18  19
ENDBRANCH   4  18
TORSDOF 7
ENDMDL
