MODEL 1
REMARK VINA RESULT:    -7.715      0.000      0.000
REMARK INTER + INTRA:         -11.241
REMARK INTER:                 -10.421
REMARK INTRA:                  -0.821
REMARK UNBOUND:                -0.821
REMARK  Name = 
REMARK  9 active torsions:
REMARK  status: ('A' for Active; 'I' for Inactive)
REMARK    1  A    between atoms: C_1  and  C_2
REMARK    2  A    between atoms: C_4  and  C_5
REMARK    3  A    between atoms: C_5  and  C_6
REMARK    4  A    between atoms: C_5  and  C_7
REMARK    5  A    between atoms: C_7  and  N_8
REMARK    6  A    between atoms: C_12  and  C_13
REMARK    7  A    between atoms: C_19  and  C_20
REMARK    8  A    between atoms: C_21  and  O_22
REMARK    9  A    between atoms: O_22  and  C_23
REMARK                            x       y       z     vdW  Elec       q    Type
REMARK                         _______ _______ _______ _____ _____    ______ ____
ROOT
ATOM      1  C   UNL     1      43.665   5.297  11.660  0.00  0.00    +0.000 C 
ATOM      2  C   UNL     1      42.890   6.629  11.680  0.00  0.00    +0.000 C 
ENDROOT
BRANCH   1   6
ATOM      3  C   UNL     1      47.073   3.959  15.070  0.00  0.00    +0.000 C 
ATOM      4  C   UNL     1      46.785   4.830  13.883  0.00  0.00    +0.000 A 
ATOM      5  C   UNL     1      45.510   4.684  13.287  0.00  0.00    +0.000 A 
ATOM      6  C   UNL     1      45.074   5.486  12.220  0.00  0.00    +0.000 A 
ATOM      7  C   UNL     1      45.975   6.423  11.714  0.00  0.00    +0.000 A 
ATOM      8  C   UNL     1      47.263   6.568  12.252  0.00  0.00    +0.000 A 
ATOM      9  C   UNL     1      48.198   7.564  11.616  0.00  0.00    +0.000 C 
ATOM     10  C   UNL     1      47.662   5.791  13.360  0.00  0.00    +0.000 A 
BRANCH  10  11
ATOM     11  O   UNL     1      48.858   6.198  13.901  0.00  0.00    +0.000 OA
BRANCH  11  12
ATOM     12  C   UNL     1      48.947   7.122  15.000  0.00  0.00    +0.000 C 
ATOM     13  C   UNL     1      50.286   7.876  15.060  0.00  0.00    +0.000 C 
ATOM     14  O   UNL     1      50.549   7.420  16.404  0.00  0.00    +0.000 OA
ATOM     15  C   UNL     1      49.347   6.614  16.389  0.00  0.00    +0.000 C 
ENDBRANCH  11  12
ENDBRANCH  10  11
ENDBRANCH   1   6
BRANCH   1  16
ATOM     16  C   UNL     1      43.555   4.728  10.224  0.00  0.00    +0.000 C 
BRANCH  16  17
ATOM     17  N   UNL     1      43.989   3.326  10.133  0.00  0.00    +0.000 N 
ATOM     18  C   UNL     1      44.917   3.101   9.105  0.00  0.00    +0.000 A 
ATOM     19  C   UNL     1      45.480   1.829   8.921  0.00  0.00    +0.000 A 
ATOM     20  N   UNL     1      46.377   1.523   7.944  0.00  0.00    +0.000 NA
ATOM     21  C   UNL     1      46.716   2.576   7.149  0.00  0.00    +0.000 A 
ATOM     22  C   UNL     1      46.198   3.846   7.338  0.00  0.00    +0.000 A 
ATOM     23  N   UNL     1      45.299   4.126   8.311  0.00  0.00    +0.000 NA
ATOM     24  H   UNL     1      43.214   2.674  10.068  0.00  0.00    +0.000 HD
BRANCH  21  25
ATOM     25  C   UNL     1      47.662   2.338   6.026  0.00  0.00    +0.000 C 
ATOM     26  N   UNL     1      47.606   3.236   4.997  0.00  0.00    +0.000 N 
ATOM     27  O   UNL     1      48.456   1.407   6.024  0.00  0.00    +0.000 OA
ATOM     28  H   UNL     1      46.947   4.007   5.027  0.00  0.00    +0.000 HD
ATOM     29  H   UNL     1      48.246   3.139   4.222  0.00  0.00    +0.000 HD
ENDBRANCH  21  25
ENDBRANCH  16  17
ENDBRANCH   1  16
TORSDOF 6
ENDMDL
MODEL 2
REMARK VINA RESULT:    -7.264      2.139      2.861
REMARK INTER + INTRA:         -10.632
REMARK INTER:                  -9.910
REMARK INTRA:                  -0.722
REMARK UNBOUND:                -0.821
REMARK  Name = 
REMARK  9 active torsions:
REMARK  status: ('A' for Active; 'I' for Inactive)
REMARK    1  A    between atoms: C_1  and  C_2
REMARK    2  A    between atoms: C_4  and  C_5
REMARK    3  A    between atoms: C_5  and  C_6
REMARK    4  A    between atoms: C_5  and  C_7
REMARK    5  A    between atoms: C_7  and  N_8
REMARK    6  A    between atoms: C_12  and  C_13
REMARK    7  A    between atoms: C_19  and  C_20
REMARK    8  A    between atoms: C_21  and  O_22
REMARK    9  A    between atoms: O_22  and  C_23
REMARK                            x       y       z     vdW  Elec       q    Type
REMARK                         _______ _______ _______ _____ _____    ______ ____
ROOT
ATOM      1  C   UNL     1      44.164   4.948  12.043  0.00  0.00    +0.000 C 
ATOM      2  C   UNL     1      42.914   5.239  12.897  0.00  0.00    +0.000 C 
ENDROOT
BRANCH   1   6
ATOM      3  C   UNL     1      44.832   9.902  11.807  0.00  0.00    +0.000 C 
ATOM      4  C   UNL     1      45.495   8.571  12.006  0.00  0.00    +0.000 A 
ATOM      5  C   UNL     1      44.650   7.437  12.003  0.00  0.00    +0.000 A 
ATOM      6  C   UNL     1      45.139   6.123  12.100  0.00  0.00    +0.000 A 
ATOM      7  C   UNL     1      46.516   5.964  12.259  0.00  0.00    +0.000 A 
ATOM      8  C   UNL     1      47.382   7.067  12.308  0.00  0.00    +0.000 A 
ATOM      9  C   UNL     1      48.849   6.817  12.536  0.00  0.00    +0.000 C 
ATOM     10  C   UNL     1      46.876   8.375  12.153  0.00  0.00    +0.000 A 
BRANCH  10  11
ATOM     11  O   UNL     1      47.863   9.321  12.009  0.00  0.00    +0.000 OA
BRANCH  11  12
ATOM     12  C   UNL     1      48.188  10.276  13.035  0.00  0.00    +0.000 C 
ATOM     13  C   UNL     1      48.043  11.738  12.580  0.00  0.00    +0.000 C 
ATOM     14  O   UNL     1      49.415  12.039  12.916  0.00  0.00    +0.000 OA
ATOM     15  C   UNL     1      49.652  10.659  13.279  0.00  0.00    +0.000 C 
ENDBRANCH  11  12
ENDBRANCH  10  11
ENDBRANCH   1   6
BRANCH   1  16
ATOM     16  C   UNL     1      43.669   4.521  10.640  0.00  0.00    +0.000 C 
BRANCH  16  17
ATOM     17  N   UNL     1      43.951   3.109  10.342  0.00  0.00    +0.000 N 
ATOM     18  C   UNL     1      44.867   2.938   9.294  0.00  0.00    +0.000 A 
ATOM     19  C   UNL     1      45.292   1.654   8.924  0.00  0.00    +0.000 A 
ATOM     20  N   UNL     1      46.168   1.399   7.913  0.00  0.00    +0.000 NA
ATOM     21  C   UNL     1      46.633   2.514   7.285  0.00  0.00    +0.000 A 
ATOM     22  C   UNL     1      46.252   3.791   7.658  0.00  0.00    +0.000 A 
ATOM     23  N   UNL     1      45.371   4.021   8.661  0.00  0.00    +0.000 NA
ATOM     24  H   UNL     1      43.111   2.562  10.180  0.00  0.00    +0.000 HD
BRANCH  21  25
ATOM     25  C   UNL     1      47.567   2.342   6.140  0.00  0.00    +0.000 C 
ATOM     26  N   UNL     1      47.377   3.186   5.081  0.00  0.00    +0.000 N 
ATOM     27  O   UNL     1      48.465   1.510   6.145  0.00  0.00    +0.000 OA
ATOM     28  H   UNL     1      46.633   3.876   5.105  0.00  0.00    +0.000 HD
ATOM     29  H   UNL     1      48.001   3.133   4.290  0.00  0.00    +0.000 HD
ENDBRANCH  21  25
ENDBRANCH  16  17
ENDBRANCH   1  16
TORSDOF 6
ENDMDL
MODEL 3
REMARK VINA RESULT:    -6.731      1.258      2.180
REMARK INTER + INTRA:          -9.912
REMARK INTER:                  -9.104
REMARK INTRA:                  -0.808
REMARK UNBOUND:                -0.821
REMARK  Name = 
REMARK  9 active torsions:
REMARK  status: ('A' for Active; 'I' for Inactive)
REMARK    1  A    between atoms: C_1  and  C_2
REMARK    2  A    between atoms: C_4  and  C_5
REMARK    3  A    between atoms: C_5  and  C_6
REMARK    4  A    between atoms: C_5  and  C_7
REMARK    5  A    between atoms: C_7  and  N_8
REMARK    6  A    between atoms: C_12  and  C_13
REMARK    7  A    between atoms: C_19  and  C_20
REMARK    8  A    between atoms: C_21  and  O_22
REMARK    9  A    between atoms: O_22  and  C_23
REMARK                            x       y       z     vdW  Elec       q    Type
REMARK                         _______ _______ _______ _____ _____    ______ ____
ROOT
ATOM      1  C   UNL     1      44.471   6.955  11.498  0.00  0.00    +0.000 C 
ATOM      2  C   UNL     1      44.151   8.437  11.217  0.00  0.00    +0.000 C 
ENDROOT
BRANCH   1   6
ATOM      3  C   UNL     1      48.994   8.790  12.602  0.00  0.00    +0.000 C 
ATOM      4  C   UNL     1      47.981   7.727  12.907  0.00  0.00    +0.000 A 
ATOM      5  C   UNL     1      46.756   7.799  12.203  0.00  0.00    +0.000 A 
ATOM      6  C   UNL     1      45.747   6.830  12.328  0.00  0.00    +0.000 A 
ATOM      7  C   UNL     1      45.970   5.790  13.232  0.00  0.00    +0.000 A 
ATOM      8  C   UNL     1      47.154   5.707  13.979  0.00  0.00    +0.000 A 
ATOM      9  C   UNL     1      47.297   4.585  14.974  0.00  0.00    +0.000 C 
ATOM     10  C   UNL     1      48.178   6.661  13.797  0.00  0.00    +0.000 A 
BRANCH  10  11
ATOM     11  O   UNL     1      49.348   6.324  14.433  0.00  0.00    +0.000 OA
BRANCH  11  12
ATOM     12  C   UNL     1      49.849   7.034  15.581  0.00  0.00    +0.000 C 
ATOM     13  C   UNL     1      50.300   6.109  16.724  0.00  0.00    +0.000 C 
ATOM     14  O   UNL     1      49.405   6.740  17.665  0.00  0.00    +0.000 OA
ATOM     15  C   UNL     1      48.867   7.585  16.621  0.00  0.00    +0.000 C 
ENDBRANCH  11  12
ENDBRANCH  10  11
ENDBRANCH   1   6
BRANCH   1  16
ATOM     16  C   UNL     1      44.448   6.217  10.137  0.00  0.00    +0.000 C 
BRANCH  16  17
ATOM     17  N   UNL     1      44.276   4.765  10.281  0.00  0.00    +0.000 N 
ATOM     18  C   UNL     1      45.065   4.024   9.388  0.00  0.00    +0.000 A 
ATOM     19  C   UNL     1      45.066   2.622   9.434  0.00  0.00    +0.000 A 
ATOM     20  N   UNL     1      45.792   1.829   8.599  0.00  0.00    +0.000 NA
ATOM     21  C   UNL     1      46.557   2.515   7.705  0.00  0.00    +0.000 A 
ATOM     22  C   UNL     1      46.596   3.898   7.667  0.00  0.00    +0.000 A 
ATOM     23  N   UNL     1      45.858   4.668   8.502  0.00  0.00    +0.000 NA
ATOM     24  H   UNL     1      43.305   4.473  10.231  0.00  0.00    +0.000 HD
BRANCH  21  25
ATOM     25  C   UNL     1      47.360   1.740   6.721  0.00  0.00    +0.000 C 
ATOM     26  N   UNL     1      48.427   2.395   6.172  0.00  0.00    +0.000 N 
ATOM     27  O   UNL     1      47.098   0.581   6.430  0.00  0.00    +0.000 OA
ATOM     28  H   UNL     1      48.631   3.352   6.439  0.00  0.00    +0.000 HD
ATOM     29  H   UNL     1      49.023   1.906   5.521  0.00  0.00    +0.000 HD
ENDBRANCH  21  25
ENDBRANCH  16  17
ENDBRANCH   1  16
TORSDOF 6
ENDMDL
MODEL 4
REMARK VINA RESULT:    -6.587      3.116      4.324
REMARK INTER + INTRA:          -9.718
REMARK INTER:                  -9.395
REMARK INTRA:                  -0.323
REMARK UNBOUND:                -0.821
REMARK  Name = 
REMARK  9 active torsions:
REMARK  status: ('A' for Active; 'I' for Inactive)
REMARK    1  A    between atoms: C_1  and  C_2
REMARK    2  A    between atoms: C_4  and  C_5
REMARK    3  A    between atoms: C_5  and  C_6
REMARK    4  A    between atoms: C_5  and  C_7
REMARK    5  A    between atoms: C_7  and  N_8
REMARK    6  A    between atoms: C_12  and  C_13
REMARK    7  A    between atoms: C_19  and  C_20
REMARK    8  A    between atoms: C_21  and  O_22
REMARK    9  A    between atoms: O_22  and  C_23
REMARK                            x       y       z     vdW  Elec       q    Type
REMARK                         _______ _______ _______ _____ _____    ______ ____
ROOT
ATOM      1  C   UNL     1      44.853   5.738  11.544  0.00  0.00    +0.000 C 
ATOM      2  C   UNL     1      44.717   5.145  12.961  0.00  0.00    +0.000 C 
ENDROOT
BRANCH   1   6
ATOM      3  C   UNL     1      47.392   9.823  12.922  0.00  0.00    +0.000 C 
ATOM      4  C   UNL     1      46.153   9.301  12.257  0.00  0.00    +0.000 A 
ATOM      5  C   UNL     1      46.047   7.896  12.133  0.00  0.00    +0.000 A 
ATOM      6  C   UNL     1      44.910   7.263  11.602  0.00  0.00    +0.000 A 
ATOM      7  C   UNL     1      43.880   8.083  11.139  0.00  0.00    +0.000 A 
ATOM      8  C   UNL     1      43.968   9.481  11.207  0.00  0.00    +0.000 A 
ATOM      9  C   UNL     1      42.839  10.299  10.636  0.00  0.00    +0.000 C 
ATOM     10  C   UNL     1      45.094  10.096  11.794  0.00  0.00    +0.000 A 
BRANCH  10  11
ATOM     11  O   UNL     1      44.936  11.448  11.980  0.00  0.00    +0.000 OA
BRANCH  11  12
ATOM     12  C   UNL     1      45.548  12.433  11.129  0.00  0.00    +0.000 C 
ATOM     13  C   UNL     1      46.162  11.841   9.849  0.00  0.00    +0.000 C 
ATOM     14  O   UNL     1      47.463  12.389  10.151  0.00  0.00    +0.000 OA
ATOM     15  C   UNL     1      46.979  12.900  11.415  0.00  0.00    +0.000 C 
ENDBRANCH  11  12
ENDBRANCH  10  11
ENDBRANCH   1   6
BRANCH   1  16
ATOM     16  C   UNL     1      43.729   5.114  10.680  0.00  0.00    +0.000 C 
BRANCH  16  17
ATOM     17  N   UNL     1      43.892   3.665  10.495  0.00  0.00    +0.000 N 
ATOM     18  C   UNL     1      44.784   3.337   9.463  0.00  0.00    +0.000 A 
ATOM     19  C   UNL     1      45.099   1.996   9.196  0.00  0.00    +0.000 A 
ATOM     20  N   UNL     1      45.945   1.592   8.208  0.00  0.00    +0.000 NA
ATOM     21  C   UNL     1      46.496   2.611   7.493  0.00  0.00    +0.000 A 
ATOM     22  C   UNL     1      46.224   3.941   7.765  0.00  0.00    +0.000 A 
ATOM     23  N   UNL     1      45.372   4.321   8.747  0.00  0.00    +0.000 NA
ATOM     24  H   UNL     1      43.008   3.179  10.376  0.00  0.00    +0.000 HD
BRANCH  21  25
ATOM     25  C   UNL     1      47.405   2.273   6.365  0.00  0.00    +0.000 C 
ATOM     26  N   UNL     1      47.377   3.127   5.298  0.00  0.00    +0.000 N 
ATOM     27  O   UNL     1      48.148   1.301   6.392  0.00  0.00    +0.000 OA
ATOM     28  H   UNL     1      46.760   3.933   5.306  0.00  0.00    +0.000 HD
ATOM     29  H   UNL     1      47.995   2.962   4.518  0.00  0.00    +0.000 HD
ENDBRANCH  21  25
ENDBRANCH  16  17
ENDBRANCH   1  16
TORSDOF 6
ENDMDL
MODEL 5
REMARK VINA RESULT:    -6.455      4.467      6.882
REMARK INTER + INTRA:          -9.539
REMARK INTER:                  -8.856
REMARK INTRA:                  -0.683
REMARK UNBOUND:                -0.821
REMARK  Name = 
REMARK  9 active torsions:
REMARK  status: ('A' for Active; 'I' for Inactive)
REMARK    1  A    between atoms: C_1  and  C_2
REMARK    2  A    between atoms: C_4  and  C_5
REMARK    3  A    between atoms: C_5  and  C_6
REMARK    4  A    between atoms: C_5  and  C_7
REMARK    5  A    between atoms: C_7  and  N_8
REMARK    6  A    between atoms: C_12  and  C_13
REMARK    7  A    between atoms: C_19  and  C_20
REMARK    8  A    between atoms: C_21  and  O_22
REMARK    9  A    between atoms: O_22  and  C_23
REMARK                            x       y       z     vdW  Elec       q    Type
REMARK                         _______ _______ _______ _____ _____    ______ ____
ROOT
ATOM      1  C   UNL     1      47.815   3.727  17.430  0.00  0.00    +0.000 C 
ATOM      2  C   UNL     1      47.312   5.048  18.044  0.00  0.00    +0.000 C 
ENDROOT
BRANCH   1   6
ATOM      3  C   UNL     1      52.179   6.056  18.186  0.00  0.00    +0.000 C 
ATOM      4  C   UNL     1      51.502   4.736  17.962  0.00  0.00    +0.000 A 
ATOM      5  C   UNL     1      50.092   4.758  17.858  0.00  0.00    +0.000 A 
ATOM      6  C   UNL     1      49.332   3.612  17.572  0.00  0.00    +0.000 A 
ATOM      7  C   UNL     1      50.020   2.405  17.441  0.00  0.00    +0.000 A 
ATOM      8  C   UNL     1      51.415   2.336  17.580  0.00  0.00    +0.000 A 
ATOM      9  C   UNL     1      52.080   0.988  17.479  0.00  0.00    +0.000 C 
ATOM     10  C   UNL     1      52.165   3.509  17.812  0.00  0.00    +0.000 A 
BRANCH  10  11
ATOM     11  O   UNL     1      53.520   3.311  17.708  0.00  0.00    +0.000 OA
BRANCH  11  12
ATOM     12  C   UNL     1      54.408   3.355  18.840  0.00  0.00    +0.000 C 
ATOM     13  C   UNL     1      55.064   2.001  19.157  0.00  0.00    +0.000 C 
ATOM     14  O   UNL     1      54.557   2.005  20.509  0.00  0.00    +0.000 OA
ATOM     15  C   UNL     1      53.838   3.235  20.257  0.00  0.00    +0.000 C 
ENDBRANCH  11  12
ENDBRANCH  10  11
ENDBRANCH   1   6
BRANCH   1  16
ATOM     16  C   UNL     1      47.241   3.644  15.994  0.00  0.00    +0.000 C 
BRANCH  16  17
ATOM     17  N   UNL     1      47.303   4.928  15.281  0.00  0.00    +0.000 N 
ATOM     18  C   UNL     1      46.633   4.908  14.049  0.00  0.00    +0.000 A 
ATOM     19  C   UNL     1      46.544   6.071  13.269  0.00  0.00    +0.000 A 
ATOM     20  N   UNL     1      45.923   6.135  12.059  0.00  0.00    +0.000 NA
ATOM     21  C   UNL     1      45.360   4.962  11.659  0.00  0.00    +0.000 A 
ATOM     22  C   UNL     1      45.407   3.813  12.430  0.00  0.00    +0.000 A 
ATOM     23  N   UNL     1      46.038   3.769  13.627  0.00  0.00    +0.000 NA
ATOM     24  H   UNL     1      48.251   5.275  15.171  0.00  0.00    +0.000 HD
BRANCH  21  25
ATOM     25  C   UNL     1      44.690   4.916  10.331  0.00  0.00    +0.000 C 
ATOM     26  N   UNL     1      45.493   5.136   9.248  0.00  0.00    +0.000 N 
ATOM     27  O   UNL     1      43.495   4.680  10.208  0.00  0.00    +0.000 OA
ATOM     28  H   UNL     1      46.484   5.318   9.375  0.00  0.00    +0.000 HD
ATOM     29  H   UNL     1      45.096   5.087   8.321  0.00  0.00    +0.000 HD
ENDBRANCH  21  25
ENDBRANCH  16  17
ENDBRANCH   1  16
TORSDOF 6
ENDMDL
MODEL 6
REMARK VINA RESULT:    -6.295      4.720      8.718
REMARK INTER + INTRA:          -9.324
REMARK INTER:                  -8.340
REMARK INTRA:                  -0.984
REMARK UNBOUND:                -0.821
REMARK  Name = 
REMARK  9 active torsions:
REMARK  status: ('A' for Active; 'I' for Inactive)
REMARK    1  A    between atoms: C_1  and  C_2
REMARK    2  A    between atoms: C_4  and  C_5
REMARK    3  A    between atoms: C_5  and  C_6
REMARK    4  A    between atoms: C_5  and  C_7
REMARK    5  A    between atoms: C_7  and  N_8
REMARK    6  A    between atoms: C_12  and  C_13
REMARK    7  A    between atoms: C_19  and  C_20
REMARK    8  A    between atoms: C_21  and  O_22
REMARK    9  A    between atoms: O_22  and  C_23
REMARK                            x       y       z     vdW  Elec       q    Type
REMARK                         _______ _______ _______ _____ _____    ______ ____
ROOT
ATOM      1  C   UNL     1      49.142   7.897  12.928  0.00  0.00    +0.000 C 
ATOM      2  C   UNL     1      48.929   9.423  12.889  0.00  0.00    +0.000 C 
ENDROOT
BRANCH   1   6
ATOM      3  C   UNL     1      44.374   8.096  11.423  0.00  0.00    +0.000 C 
ATOM      4  C   UNL     1      45.457   7.229  11.994  0.00  0.00    +0.000 A 
ATOM      5  C   UNL     1      46.728   7.829  12.155  0.00  0.00    +0.000 A 
ATOM      6  C   UNL     1      47.814   7.164  12.748  0.00  0.00    +0.000 A 
ATOM      7  C   UNL     1      47.616   5.838  13.136  0.00  0.00    +0.000 A 
ATOM      8  C   UNL     1      46.382   5.196  12.954  0.00  0.00    +0.000 A 
ATOM      9  C   UNL     1      46.263   3.747  13.349  0.00  0.00    +0.000 C 
ATOM     10  C   UNL     1      45.288   5.900  12.408  0.00  0.00    +0.000 A 
BRANCH  10  11
ATOM     11  O   UNL     1      44.104   5.207  12.493  0.00  0.00    +0.000 OA
BRANCH  11  12
ATOM     12  C   UNL     1      43.432   4.660  11.345  0.00  0.00    +0.000 C 
ATOM     13  C   UNL     1      43.175   3.147  11.448  0.00  0.00    +0.000 C 
ATOM     14  O   UNL     1      43.883   2.884  10.218  0.00  0.00    +0.000 OA
ATOM     15  C   UNL     1      44.240   4.281  10.100  0.00  0.00    +0.000 C 
ENDBRANCH  11  12
ENDBRANCH  10  11
ENDBRANCH   1   6
BRANCH   1  16
ATOM     16  C   UNL     1      49.943   7.582  14.215  0.00  0.00    +0.000 C 
BRANCH  16  17
ATOM     17  N   UNL     1      49.306   8.115  15.427  0.00  0.00    +0.000 N 
ATOM     18  C   UNL     1      49.173   7.161  16.447  0.00  0.00    +0.000 A 
ATOM     19  C   UNL     1      48.641   7.522  17.693  0.00  0.00    +0.000 A 
ATOM     20  N   UNL     1      48.468   6.657  18.731  0.00  0.00    +0.000 NA
ATOM     21  C   UNL     1      48.883   5.386  18.472  0.00  0.00    +0.000 A 
ATOM     22  C   UNL     1      49.443   5.019  17.261  0.00  0.00    +0.000 A 
ATOM     23  N   UNL     1      49.597   5.894  16.238  0.00  0.00    +0.000 NA
ATOM     24  H   UNL     1      48.417   8.570  15.241  0.00  0.00    +0.000 HD
BRANCH  21  25
ATOM     25  C   UNL     1      48.702   4.355  19.529  0.00  0.00    +0.000 C 
ATOM     26  N   UNL     1      48.456   3.084  19.089  0.00  0.00    +0.000 N 
ATOM     27  O   UNL     1      48.784   4.617  20.722  0.00  0.00    +0.000 OA
ATOM     28  H   UNL     1      48.405   2.890  18.094  0.00  0.00    +0.000 HD
ATOM     29  H   UNL     1      48.355   2.340  19.763  0.00  0.00    +0.000 HD
ENDBRANCH  21  25
ENDBRANCH  16  17
ENDBRANCH   1  16
TORSDOF 6
ENDMDL
MODEL 7
REMARK VINA RESULT:    -6.011      4.700      8.531
REMARK INTER + INTRA:          -8.941
REMARK INTER:                  -8.134
REMARK INTRA:                  -0.807
REMARK UNBOUND:                -0.821
REMARK  Name = 
REMARK  9 active torsions:
REMARK  status: ('A' for Active; 'I' for Inactive)
REMARK    1  A    between atoms: C_1  and  C_2
REMARK    2  A    between atoms: C_4  and  C_5
REMARK    3  A    between atoms: C_5  and  C_6
REMARK    4  A    between atoms: C_5  and  C_7
REMARK    5  A    between atoms: C_7  and  N_8
REMARK    6  A    between atoms: C_12  and  C_13
REMARK    7  A    between atoms: C_19  and  C_20
REMARK    8  A    between atoms: C_21  and  O_22
REMARK    9  A    between atoms: O_22  and  C_23
REMARK                            x       y       z     vdW  Elec       q    Type
REMARK                         _______ _______ _______ _____ _____    ______ ____
ROOT
ATOM      1  C   UNL     1      49.502   7.553  12.840  0.00  0.00    +0.000 C 
ATOM      2  C   UNL     1      49.879   8.527  11.707  0.00  0.00    +0.000 C 
ENDROOT
BRANCH   1   6
ATOM      3  C   UNL     1      45.990   4.089  13.681  0.00  0.00    +0.000 C 
ATOM      4  C   UNL     1      46.269   5.469  13.163  0.00  0.00    +0.000 A 
ATOM      5  C   UNL     1      47.607   5.920  13.255  0.00  0.00    +0.000 A 
ATOM      6  C   UNL     1      48.030   7.157  12.742  0.00  0.00    +0.000 A 
ATOM      7  C   UNL     1      47.057   7.976  12.168  0.00  0.00    +0.000 A 
ATOM      8  C   UNL     1      45.713   7.581  12.095  0.00  0.00    +0.000 A 
ATOM      9  C   UNL     1      44.713   8.543  11.511  0.00  0.00    +0.000 C 
ATOM     10  C   UNL     1      45.319   6.311  12.568  0.00  0.00    +0.000 A 
BRANCH  10  11
ATOM     11  O   UNL     1      44.026   5.988  12.233  0.00  0.00    +0.000 OA
BRANCH  11  12
ATOM     12  C   UNL     1      43.683   5.259  11.041  0.00  0.00    +0.000 C 
ATOM     13  C   UNL     1      43.230   3.815  11.315  0.00  0.00    +0.000 C 
ATOM     14  O   UNL     1      44.249   3.270  10.450  0.00  0.00    +0.000 OA
ATOM     15  C   UNL     1      44.787   4.592  10.215  0.00  0.00    +0.000 C 
ENDBRANCH  11  12
ENDBRANCH  10  11
ENDBRANCH   1   6
BRANCH   1  16
ATOM     16  C   UNL     1      49.963   8.199  14.169  0.00  0.00    +0.000 C 
BRANCH  16  17
ATOM     17  N   UNL     1      50.914   7.359  14.911  0.00  0.00    +0.000 N 
ATOM     18  C   UNL     1      50.342   6.733  16.028  0.00  0.00    +0.000 A 
ATOM     19  C   UNL     1      51.098   5.846  16.811  0.00  0.00    +0.000 A 
ATOM     20  N   UNL     1      50.624   5.206  17.915  0.00  0.00    +0.000 NA
ATOM     21  C   UNL     1      49.321   5.478  18.201  0.00  0.00    +0.000 A 
ATOM     22  C   UNL     1      48.549   6.322  17.421  0.00  0.00    +0.000 A 
ATOM     23  N   UNL     1      49.044   6.956  16.331  0.00  0.00    +0.000 NA
ATOM     24  H   UNL     1      51.763   7.853  15.169  0.00  0.00    +0.000 HD
BRANCH  21  25
ATOM     25  C   UNL     1      48.718   4.858  19.412  0.00  0.00    +0.000 C 
ATOM     26  N   UNL     1      48.556   3.501  19.371  0.00  0.00    +0.000 N 
ATOM     27  O   UNL     1      48.401   5.514  20.395  0.00  0.00    +0.000 OA
ATOM     28  H   UNL     1      48.839   2.978  18.549  0.00  0.00    +0.000 HD
ATOM     29  H   UNL     1      48.180   3.025  20.178  0.00  0.00    +0.000 HD
ENDBRANCH  21  25
ENDBRANCH  16  17
ENDBRANCH   1  16
TORSDOF 6
ENDMDL
MODEL 8
REMARK VINA RESULT:    -5.848      5.333      8.124
REMARK INTER + INTRA:          -8.720
REMARK INTER:                  -8.156
REMARK INTRA:                  -0.564
REMARK UNBOUND:                -0.821
REMARK  Name = 
REMARK  9 active torsions:
REMARK  status: ('A' for Active; 'I' for Inactive)
REMARK    1  A    between atoms: C_1  and  C_2
REMARK    2  A    between atoms: C_4  and  C_5
REMARK    3  A    between atoms: C_5  and  C_6
REMARK    4  A    between atoms: C_5  and  C_7
REMARK    5  A    between atoms: C_7  and  N_8
REMARK    6  A    between atoms: C_12  and  C_13
REMARK    7  A    between atoms: C_19  and  C_20
REMARK    8  A    between atoms: C_21  and  O_22
REMARK    9  A    between atoms: O_22  and  C_23
REMARK                            x       y       z     vdW  Elec       q    Type
REMARK                         _______ _______ _______ _____ _____    ______ ____
ROOT
ATOM      1  C   UNL     1      45.446  11.293  11.649  0.00  0.00    +0.000 C 
ATOM      2  C   UNL     1      46.638  11.927  10.904  0.00  0.00    +0.000 C 
ENDROOT
BRANCH   1   6
ATOM      3  C   UNL     1      48.569   7.571  12.846  0.00  0.00    +0.000 C 
ATOM      4  C   UNL     1      47.175   7.931  12.424  0.00  0.00    +0.000 A 
ATOM      5  C   UNL     1      46.894   9.310  12.282  0.00  0.00    +0.000 A 
ATOM      6  C   UNL     1      45.657   9.790  11.819  0.00  0.00    +0.000 A 
ATOM      7  C   UNL     1      44.667   8.845  11.546  0.00  0.00    +0.000 A 
ATOM      8  C   UNL     1      44.896   7.472  11.715  0.00  0.00    +0.000 A 
ATOM      9  C   UNL     1      43.760   6.518  11.452  0.00  0.00    +0.000 C 
ATOM     10  C   UNL     1      46.163   7.007  12.128  0.00  0.00    +0.000 A 
BRANCH  10  11
ATOM     11  O   UNL     1      46.292   5.642  12.039  0.00  0.00    +0.000 OA
BRANCH  11  12
ATOM     12  C   UNL     1      45.904   4.748  13.097  0.00  0.00    +0.000 C 
ATOM     13  C   UNL     1      47.007   4.526  14.146  0.00  0.00    +0.000 C 
ATOM     14  O   UNL     1      46.987   3.096  13.950  0.00  0.00    +0.000 OA
ATOM     15  C   UNL     1      46.013   3.234  12.889  0.00  0.00    +0.000 C 
ENDBRANCH  11  12
ENDBRANCH  10  11
ENDBRANCH   1   6
BRANCH   1  16
ATOM     16  C   UNL     1      44.159  11.738  10.911  0.00  0.00    +0.000 C 
BRANCH  16  17
ATOM     17  N   UNL     1      43.160  12.326  11.815  0.00  0.00    +0.000 N 
ATOM     18  C   UNL     1      41.906  11.704  11.730  0.00  0.00    +0.000 A 
ATOM     19  C   UNL     1      40.856  12.103  12.570  0.00  0.00    +0.000 A 
ATOM     20  N   UNL     1      39.607  11.561  12.545  0.00  0.00    +0.000 NA
ATOM     21  C   UNL     1      39.453  10.558  11.637  0.00  0.00    +0.000 A 
ATOM     22  C   UNL     1      40.487  10.127  10.824  0.00  0.00    +0.000 A 
ATOM     23  N   UNL     1      41.719  10.687  10.858  0.00  0.00    +0.000 NA
ATOM     24  H   UNL     1      43.072  13.332  11.708  0.00  0.00    +0.000 HD
BRANCH  21  25
ATOM     25  C   UNL     1      38.113   9.925  11.504  0.00  0.00    +0.000 C 
ATOM     26  N   UNL     1      37.183  10.635  10.799  0.00  0.00    +0.000 N 
ATOM     27  O   UNL     1      37.859   8.826  11.979  0.00  0.00    +0.000 OA
ATOM     28  H   UNL     1      37.422  11.539  10.404  0.00  0.00    +0.000 HD
ATOM     29  H   UNL     1      36.266  10.239  10.653  0.00  0.00    +0.000 HD
ENDBRANCH  21  25
ENDBRANCH  16  17
ENDBRANCH   1  16
TORSDOF 6
ENDMDL
MODEL 9
REMARK VINA RESULT:    -5.652      3.387      5.906
REMARK INTER + INTRA:          -8.456
REMARK INTER:                  -7.889
REMARK INTRA:                  -0.566
REMARK UNBOUND:                -0.821
REMARK  Name = 
REMARK  9 active torsions:
REMARK  status: ('A' for Active; 'I' for Inactive)
REMARK    1  A    between atoms: C_1  and  C_2
REMARK    2  A    between atoms: C_4  and  C_5
REMARK    3  A    between atoms: C_5  and  C_6
REMARK    4  A    between atoms: C_5  and  C_7
REMARK    5  A    between atoms: C_7  and  N_8
REMARK    6  A    between atoms: C_12  and  C_13
REMARK    7  A    between atoms: C_19  and  C_20
REMARK    8  A    between atoms: C_21  and  O_22
REMARK    9  A    between atoms: O_22  and  C_23
REMARK                            x       y       z     vdW  Elec       q    Type
REMARK                         _______ _______ _______ _____ _____    ______ ____
ROOT
ATOM      1  C   UNL     1      48.704   8.961  14.219  0.00  0.00    +0.000 C 
ATOM      2  C   UNL     1      50.072   8.905  13.512  0.00  0.00    +0.000 C 
ENDROOT
BRANCH   1   6
ATOM      3  C   UNL     1      50.682   5.639  17.396  0.00  0.00    +0.000 C 
ATOM      4  C   UNL     1      49.801   6.845  17.255  0.00  0.00    +0.000 A 
ATOM      5  C   UNL     1      49.672   7.386  15.954  0.00  0.00    +0.000 A 
ATOM      6  C   UNL     1      48.821   8.464  15.658  0.00  0.00    +0.000 A 
ATOM      7  C   UNL     1      48.126   9.038  16.723  0.00  0.00    +0.000 A 
ATOM      8  C   UNL     1      48.259   8.556  18.033  0.00  0.00    +0.000 A 
ATOM      9  C   UNL     1      47.517   9.264  19.137  0.00  0.00    +0.000 C 
ATOM     10  C   UNL     1      49.076   7.437  18.299  0.00  0.00    +0.000 A 
BRANCH  10  11
ATOM     11  O   UNL     1      48.935   6.959  19.579  0.00  0.00    +0.000 OA
BRANCH  11  12
ATOM     12  C   UNL     1      48.135   5.806  19.901  0.00  0.00    +0.000 C 
ATOM     13  C   UNL     1      47.354   5.951  21.218  0.00  0.00    +0.000 C 
ATOM     14  O   UNL     1      47.948   4.757  21.770  0.00  0.00    +0.000 OA
ATOM     15  C   UNL     1      48.782   4.604  20.597  0.00  0.00    +0.000 C 
ENDBRANCH  11  12
ENDBRANCH  10  11
ENDBRANCH   1   6
BRANCH   1  16
ATOM     16  C   UNL     1      47.690   8.225  13.308  0.00  0.00    +0.000 C 
BRANCH  16  17
ATOM     17  N   UNL     1      47.115   7.032  13.944  0.00  0.00    +0.000 N 
ATOM     18  C   UNL     1      46.347   6.254  13.065  0.00  0.00    +0.000 A 
ATOM     19  C   UNL     1      45.777   5.047  13.497  0.00  0.00    +0.000 A 
ATOM     20  N   UNL     1      45.010   4.239  12.714  0.00  0.00    +0.000 NA
ATOM     21  C   UNL     1      44.852   4.687  11.438  0.00  0.00    +0.000 A 
ATOM     22  C   UNL     1      45.435   5.857  10.984  0.00  0.00    +0.000 A 
ATOM     23  N   UNL     1      46.186   6.651  11.783  0.00  0.00    +0.000 NA
ATOM     24  H   UNL     1      46.592   7.245  14.788  0.00  0.00    +0.000 HD
BRANCH  21  25
ATOM     25  C   UNL     1      43.999   3.895  10.512  0.00  0.00    +0.000 C 
ATOM     26  N   UNL     1      43.900   4.372   9.234  0.00  0.00    +0.000 N 
ATOM     27  O   UNL     1      43.431   2.868  10.860  0.00  0.00    +0.000 OA
ATOM     28  H   UNL     1      44.390   5.219   8.967  0.00  0.00    +0.000 HD
ATOM     29  H   UNL     1      43.358   3.857   8.556  0.00  0.00    +0.000 HD
ENDBRANCH  21  25
ENDBRANCH  16  17
ENDBRANCH   1  16
TORSDOF 6
ENDMDL
