MODEL 1
REMARK VINA RESULT:    -8.797      0.000      0.000
REMARK INTER + INTRA:         -13.190
REMARK INTER:                 -12.396
REMARK INTRA:                  -0.794
REMARK UNBOUND:                -0.794
REMARK  Name = 
REMARK  9 active torsions:
REMARK  status: ('A' for Active; 'I' for Inactive)
REMARK    1  A    between atoms: C_1  and  C_2
REMARK    2  A    between atoms: C_10  and  C_11
REMARK    3  A    between atoms: N_13  and  C_14
REMARK    4  A    between atoms: C_14  and  C_15
REMARK    5  A    between atoms: C_18  and  C_19
REMARK    6  A    between atoms: C_19  and  N_20
REMARK    7  A    between atoms: N_20  and  C_21
REMARK    8  A    between atoms: N_20  and  C_22
REMARK    9  A    between atoms: C_22  and  C_23
REMARK                            x       y       z     vdW  Elec       q    Type
REMARK                         _______ _______ _______ _____ _____    ______ ____
ROOT
ATOM      1  C   UNL     1      48.488   6.793  14.722  0.00  0.00    +0.000 C 
ENDROOT
BRANCH   1   2
ATOM      2  C   UNL     1      47.555   6.314  13.646  0.00  0.00    +0.000 A 
ATOM      3  C   UNL     1      46.743   5.193  13.865  0.00  0.00    +0.000 A 
ATOM      4  C   UNL     1      45.842   4.774  12.887  0.00  0.00    +0.000 A 
ATOM      5  C   UNL     1      45.736   5.467  11.673  0.00  0.00    +0.000 A 
ATOM      6  C   UNL     1      46.590   6.553  11.432  0.00  0.00    +0.000 A 
ATOM      7  C   UNL     1      47.493   6.971  12.410  0.00  0.00    +0.000 A 
BRANCH   5   8
ATOM      8  C   UNL     1      44.674   5.082  10.663  0.00  0.00    +0.000 C 
BRANCH   8   9
ATOM      9  N   UNL     1      44.667   3.636  10.358  0.00  0.00    +0.000 NA
ATOM     10  C   UNL     1      43.662   2.928  11.160  0.00  0.00    +0.000 C 
BRANCH   9  11
ATOM     11  C   UNL     1      44.391   3.395   8.930  0.00  0.00    +0.000 C 
BRANCH  11  12
ATOM     12  C   UNL     1      45.562   2.819   8.163  0.00  0.00    +0.000 A 
ATOM     13  C   UNL     1      46.298   3.615   7.274  0.00  0.00    +0.000 A 
ATOM     14  C   UNL     1      47.380   3.079   6.574  0.00  0.00    +0.000 A 
ATOM     15  C   UNL     1      47.735   1.742   6.757  0.00  0.00    +0.000 A 
ATOM     16  C   UNL     1      47.010   0.941   7.635  0.00  0.00    +0.000 A 
ATOM     17  C   UNL     1      45.930   1.477   8.338  0.00  0.00    +0.000 A 
ENDBRANCH  11  12
ENDBRANCH   9  11
ENDBRANCH   8   9
ENDBRANCH   5   8
ENDBRANCH   1   2
BRANCH   1  20
ATOM     18  C   UNL     1      49.405   5.638  16.659  0.00  0.00    +0.000 C 
ATOM     19  O   UNL     1      50.556   5.852  16.287  0.00  0.00    +0.000 OA
ATOM     20  N   UNL     1      48.309   6.046  15.939  0.00  0.00    +0.000 N 
ATOM     21  H   UNL     1      47.415   6.094  16.410  0.00  0.00    +0.000 HD
BRANCH  18  31
ATOM     22  C   UNL     1      48.686   2.555  16.997  0.00  0.00    +0.000 C 
ATOM     23  C   UNL     1      48.765   3.620  18.030  0.00  0.00    +0.000 A 
ATOM     24  N   UNL     1      48.500   3.357  19.351  0.00  0.00    +0.000 N 
ATOM     25  C   UNL     1      48.652   4.487  20.098  0.00  0.00    +0.000 A 
ATOM     26  N   UNL     1      48.447   4.542  21.427  0.00  0.00    +0.000 NA
ATOM     27  C   UNL     1      48.640   5.776  21.940  0.00  0.00    +0.000 A 
ATOM     28  C   UNL     1      49.015   6.900  21.219  0.00  0.00    +0.000 A 
ATOM     29  C   UNL     1      49.214   6.786  19.841  0.00  0.00    +0.000 A 
ATOM     30  C   UNL     1      49.030   5.522  19.248  0.00  0.00    +0.000 A 
ATOM     31  C   UNL     1      49.097   4.970  17.921  0.00  0.00    +0.000 A 
ATOM     32  H   UNL     1      48.219   2.469  19.741  0.00  0.00    +0.000 HD
ENDBRANCH  18  31
ENDBRANCH   1  20
TORSDOF 7
ENDMDL
MODEL 2
REMARK VINA RESULT:    -8.103      2.956      9.319
REMARK INTER + INTRA:         -12.212
REMARK INTER:                 -10.709
REMARK INTRA:                  -1.503
REMARK UNBOUND:                -0.794
REMARK  Name = 
REMARK  9 active torsions:
REMARK  status: ('A' for Active; 'I' for Inactive)
REMARK    1  A    between atoms: C_1  and  C_2
REMARK    2  A    between atoms: C_10  and  C_11
REMARK    3  A    between atoms: N_13  and  C_14
REMARK    4  A    between atoms: C_14  and  C_15
REMARK    5  A    between atoms: C_18  and  C_19
REMARK    6  A    between atoms: C_19  and  N_20
REMARK    7  A    between atoms: N_20  and  C_21
REMARK    8  A    between atoms: N_20  and  C_22
REMARK    9  A    between atoms: C_22  and  C_23
REMARK                            x       y       z     vdW  Elec       q    Type
REMARK                         _______ _______ _______ _____ _____    ______ ____
ROOT
ATOM      1  C   UNL     1      45.669   7.343  11.958  0.00  0.00    +0.000 C 
ENDROOT
BRANCH   1   2
ATOM      2  C   UNL     1      46.916   7.611  12.751  0.00  0.00    +0.000 A 
ATOM      3  C   UNL     1      46.954   8.668  13.670  0.00  0.00    +0.000 A 
ATOM      4  C   UNL     1      48.093   8.891  14.442  0.00  0.00    +0.000 A 
ATOM      5  C   UNL     1      49.215   8.061  14.310  0.00  0.00    +0.000 A 
ATOM      6  C   UNL     1      49.198   7.041  13.349  0.00  0.00    +0.000 A 
ATOM      7  C   UNL     1      48.058   6.819  12.575  0.00  0.00    +0.000 A 
BRANCH   5   8
ATOM      8  C   UNL     1      50.405   8.232  15.233  0.00  0.00    +0.000 C 
BRANCH   8   9
ATOM      9  N   UNL     1      50.867   6.957  15.820  0.00  0.00    +0.000 NA
ATOM     10  C   UNL     1      52.299   7.008  16.141  0.00  0.00    +0.000 C 
BRANCH   9  11
ATOM     11  C   UNL     1      50.116   6.631  17.045  0.00  0.00    +0.000 C 
BRANCH  11  12
ATOM     12  C   UNL     1      49.425   5.285  17.007  0.00  0.00    +0.000 A 
ATOM     13  C   UNL     1      48.139   5.155  16.461  0.00  0.00    +0.000 A 
ATOM     14  C   UNL     1      47.510   3.910  16.424  0.00  0.00    +0.000 A 
ATOM     15  C   UNL     1      48.159   2.785  16.932  0.00  0.00    +0.000 A 
ATOM     16  C   UNL     1      49.434   2.902  17.479  0.00  0.00    +0.000 A 
ATOM     17  C   UNL     1      50.066   4.146  17.513  0.00  0.00    +0.000 A 
ENDBRANCH  11  12
ENDBRANCH   9  11
ENDBRANCH   8   9
ENDBRANCH   5   8
ENDBRANCH   1   2
BRANCH   1  20
ATOM     18  C   UNL     1      44.526   5.459  10.923  0.00  0.00    +0.000 C 
ATOM     19  O   UNL     1      43.438   6.020  11.019  0.00  0.00    +0.000 OA
ATOM     20  N   UNL     1      45.690   6.025  11.380  0.00  0.00    +0.000 N 
ATOM     21  H   UNL     1      46.569   5.661  11.037  0.00  0.00    +0.000 HD
BRANCH  18  31
ATOM     22  C   UNL     1      43.330   2.702  11.974  0.00  0.00    +0.000 C 
ATOM     23  C   UNL     1      44.167   2.967  10.774  0.00  0.00    +0.000 A 
ATOM     24  N   UNL     1      44.550   1.954   9.931  0.00  0.00    +0.000 N 
ATOM     25  C   UNL     1      45.297   2.450   8.905  0.00  0.00    +0.000 A 
ATOM     26  N   UNL     1      45.826   1.693   7.927  0.00  0.00    +0.000 NA
ATOM     27  C   UNL     1      46.544   2.409   7.035  0.00  0.00    +0.000 A 
ATOM     28  C   UNL     1      46.741   3.782   7.073  0.00  0.00    +0.000 A 
ATOM     29  C   UNL     1      46.169   4.519   8.112  0.00  0.00    +0.000 A 
ATOM     30  C   UNL     1      45.406   3.827   9.073  0.00  0.00    +0.000 A 
ATOM     31  C   UNL     1      44.687   4.160  10.274  0.00  0.00    +0.000 A 
ATOM     32  H   UNL     1      44.337   0.972  10.037  0.00  0.00    +0.000 HD
ENDBRANCH  18  31
ENDBRANCH   1  20
TORSDOF 7
ENDMDL
MODEL 3
REMARK VINA RESULT:    -7.968      1.969      2.501
REMARK INTER + INTRA:         -12.023
REMARK INTER:                 -11.185
REMARK INTRA:                  -0.838
REMARK UNBOUND:                -0.794
REMARK  Name = 
REMARK  9 active torsions:
REMARK  status: ('A' for Active; 'I' for Inactive)
REMARK    1  A    between atoms: C_1  and  C_2
REMARK    2  A    between atoms: C_10  and  C_11
REMARK    3  A    between atoms: N_13  and  C_14
REMARK    4  A    between atoms: C_14  and  C_15
REMARK    5  A    between atoms: C_18  and  C_19
REMARK    6  A    between atoms: C_19  and  N_20
REMARK    7  A    between atoms: N_20  and  C_21
REMARK    8  A    between atoms: N_20  and  C_22
REMARK    9  A    between atoms: C_22  and  C_23
REMARK                            x       y       z     vdW  Elec       q    Type
REMARK                         _______ _______ _______ _____ _____    ______ ____
ROOT
ATOM      1  C   UNL     1      48.556   7.501  14.950  0.00  0.00    +0.000 C 
ENDROOT
BRANCH   1   2
ATOM      2  C   UNL     1      47.588   7.088  13.879  0.00  0.00    +0.000 A 
ATOM      3  C   UNL     1      47.474   5.740  13.513  0.00  0.00    +0.000 A 
ATOM      4  C   UNL     1      46.543   5.346  12.552  0.00  0.00    +0.000 A 
ATOM      5  C   UNL     1      45.709   6.292  11.941  0.00  0.00    +0.000 A 
ATOM      6  C   UNL     1      45.863   7.647  12.265  0.00  0.00    +0.000 A 
ATOM      7  C   UNL     1      46.796   8.041  13.225  0.00  0.00    +0.000 A 
BRANCH   5   8
ATOM      8  C   UNL     1      44.619   5.846  10.988  0.00  0.00    +0.000 C 
BRANCH   8   9
ATOM      9  N   UNL     1      44.673   4.400  10.687  0.00  0.00    +0.000 NA
ATOM     10  C   UNL     1      43.779   3.639  11.568  0.00  0.00    +0.000 C 
BRANCH   9  11
ATOM     11  C   UNL     1      44.300   4.133   9.286  0.00  0.00    +0.000 C 
BRANCH  11  12
ATOM     12  C   UNL     1      45.319   3.318   8.519  0.00  0.00    +0.000 A 
ATOM     13  C   UNL     1      46.186   3.932   7.604  0.00  0.00    +0.000 A 
ATOM     14  C   UNL     1      47.127   3.175   6.904  0.00  0.00    +0.000 A 
ATOM     15  C   UNL     1      47.209   1.798   7.113  0.00  0.00    +0.000 A 
ATOM     16  C   UNL     1      46.350   1.177   8.017  0.00  0.00    +0.000 A 
ATOM     17  C   UNL     1      45.412   1.933   8.720  0.00  0.00    +0.000 A 
ENDBRANCH  11  12
ENDBRANCH   9  11
ENDBRANCH   8   9
ENDBRANCH   5   8
ENDBRANCH   1   2
BRANCH   1  20
ATOM     18  C   UNL     1      49.102   6.006  16.793  0.00  0.00    +0.000 C 
ATOM     19  O   UNL     1      48.389   6.640  17.566  0.00  0.00    +0.000 OA
ATOM     20  N   UNL     1      49.267   6.367  15.478  0.00  0.00    +0.000 N 
ATOM     21  H   UNL     1      49.627   5.677  14.831  0.00  0.00    +0.000 HD
BRANCH  18  31
ATOM     22  C   UNL     1      47.729   3.205  17.430  0.00  0.00    +0.000 C 
ATOM     23  C   UNL     1      49.167   3.580  17.480  0.00  0.00    +0.000 A 
ATOM     24  N   UNL     1      50.130   2.675  17.851  0.00  0.00    +0.000 N 
ATOM     25  C   UNL     1      51.363   3.253  17.806  0.00  0.00    +0.000 A 
ATOM     26  N   UNL     1      52.503   2.616  18.130  0.00  0.00    +0.000 NA
ATOM     27  C   UNL     1      53.595   3.403  18.027  0.00  0.00    +0.000 A 
ATOM     28  C   UNL     1      53.598   4.732  17.629  0.00  0.00    +0.000 A 
ATOM     29  C   UNL     1      52.386   5.345  17.306  0.00  0.00    +0.000 A 
ATOM     30  C   UNL     1      51.210   4.572  17.391  0.00  0.00    +0.000 A 
ATOM     31  C   UNL     1      49.802   4.786  17.188  0.00  0.00    +0.000 A 
ATOM     32  H   UNL     1      49.976   1.718  18.134  0.00  0.00    +0.000 HD
ENDBRANCH  18  31
ENDBRANCH   1  20
TORSDOF 7
ENDMDL
MODEL 4
REMARK VINA RESULT:    -7.842      2.048      2.911
REMARK INTER + INTRA:         -11.844
REMARK INTER:                 -10.607
REMARK INTRA:                  -1.237
REMARK UNBOUND:                -0.794
REMARK  Name = 
REMARK  9 active torsions:
REMARK  status: ('A' for Active; 'I' for Inactive)
REMARK    1  A    between atoms: C_1  and  C_2
REMARK    2  A    between atoms: C_10  and  C_11
REMARK    3  A    between atoms: N_13  and  C_14
REMARK    4  A    between atoms: C_14  and  C_15
REMARK    5  A    between atoms: C_18  and  C_19
REMARK    6  A    between atoms: C_19  and  N_20
REMARK    7  A    between atoms: N_20  and  C_21
REMARK    8  A    between atoms: N_20  and  C_22
REMARK    9  A    between atoms: C_22  and  C_23
REMARK                            x       y       z     vdW  Elec       q    Type
REMARK                         _______ _______ _______ _____ _____    ______ ____
ROOT
ATOM      1  C   UNL     1      47.958   8.259  13.177  0.00  0.00    +0.000 C 
ENDROOT
BRANCH   1   2
ATOM      2  C   UNL     1      46.900   7.465  12.467  0.00  0.00    +0.000 A 
ATOM      3  C   UNL     1      47.204   6.790  11.277  0.00  0.00    +0.000 A 
ATOM      4  C   UNL     1      46.237   6.013  10.639  0.00  0.00    +0.000 A 
ATOM      5  C   UNL     1      44.949   5.897  11.180  0.00  0.00    +0.000 A 
ATOM      6  C   UNL     1      44.629   6.619  12.338  0.00  0.00    +0.000 A 
ATOM      7  C   UNL     1      45.596   7.398  12.975  0.00  0.00    +0.000 A 
BRANCH   5   8
ATOM      8  C   UNL     1      43.939   4.958  10.551  0.00  0.00    +0.000 C 
BRANCH   8   9
ATOM      9  N   UNL     1      44.376   3.546  10.568  0.00  0.00    +0.000 NA
ATOM     10  C   UNL     1      43.702   2.794  11.633  0.00  0.00    +0.000 C 
BRANCH   9  11
ATOM     11  C   UNL     1      44.105   2.889   9.276  0.00  0.00    +0.000 C 
BRANCH  11  12
ATOM     12  C   UNL     1      45.335   2.676   8.421  0.00  0.00    +0.000 A 
ATOM     13  C   UNL     1      45.945   1.416   8.344  0.00  0.00    +0.000 A 
ATOM     14  C   UNL     1      47.077   1.225   7.550  0.00  0.00    +0.000 A 
ATOM     15  C   UNL     1      47.608   2.292   6.826  0.00  0.00    +0.000 A 
ATOM     16  C   UNL     1      47.013   3.549   6.897  0.00  0.00    +0.000 A 
ATOM     17  C   UNL     1      45.880   3.740   7.688  0.00  0.00    +0.000 A 
ENDBRANCH  11  12
ENDBRANCH   9  11
ENDBRANCH   8   9
ENDBRANCH   5   8
ENDBRANCH   1   2
BRANCH   1  20
ATOM     18  C   UNL     1      48.770   7.663  15.394  0.00  0.00    +0.000 C 
ATOM     19  O   UNL     1      48.165   8.601  15.906  0.00  0.00    +0.000 OA
ATOM     20  N   UNL     1      48.747   7.423  14.042  0.00  0.00    +0.000 N 
ATOM     21  H   UNL     1      49.021   6.506  13.712  0.00  0.00    +0.000 HD
BRANCH  18  31
ATOM     22  C   UNL     1      51.900   7.787  15.962  0.00  0.00    +0.000 C 
ATOM     23  C   UNL     1      50.906   6.767  16.390  0.00  0.00    +0.000 A 
ATOM     24  N   UNL     1      51.278   5.673  17.130  0.00  0.00    +0.000 N 
ATOM     25  C   UNL     1      50.192   4.897  17.406  0.00  0.00    +0.000 A 
ATOM     26  N   UNL     1      50.247   3.749  18.104  0.00  0.00    +0.000 NA
ATOM     27  C   UNL     1      49.043   3.149  18.229  0.00  0.00    +0.000 A 
ATOM     28  C   UNL     1      47.846   3.626  17.714  0.00  0.00    +0.000 A 
ATOM     29  C   UNL     1      47.847   4.823  16.996  0.00  0.00    +0.000 A 
ATOM     30  C   UNL     1      49.074   5.498  16.835  0.00  0.00    +0.000 A 
ATOM     31  C   UNL     1      49.531   6.693  16.178  0.00  0.00    +0.000 A 
ATOM     32  H   UNL     1      52.214   5.441  17.431  0.00  0.00    +0.000 HD
ENDBRANCH  18  31
ENDBRANCH   1  20
TORSDOF 7
ENDMDL
MODEL 5
REMARK VINA RESULT:    -7.604      4.219      7.106
REMARK INTER + INTRA:         -11.509
REMARK INTER:                 -10.404
REMARK INTRA:                  -1.105
REMARK UNBOUND:                -0.794
REMARK  Name = 
REMARK  9 active torsions:
REMARK  status: ('A' for Active; 'I' for Inactive)
REMARK    1  A    between atoms: C_1  and  C_2
REMARK    2  A    between atoms: C_10  and  C_11
REMARK    3  A    between atoms: N_13  and  C_14
REMARK    4  A    between atoms: C_14  and  C_15
REMARK    5  A    between atoms: C_18  and  C_19
REMARK    6  A    between atoms: C_19  and  N_20
REMARK    7  A    between atoms: N_20  and  C_21
REMARK    8  A    between atoms: N_20  and  C_22
REMARK    9  A    between atoms: C_22  and  C_23
REMARK                            x       y       z     vdW  Elec       q    Type
REMARK                         _______ _______ _______ _____ _____    ______ ____
ROOT
ATOM      1  C   UNL     1      49.294   7.283  13.486  0.00  0.00    +0.000 C 
ENDROOT
BRANCH   1   2
ATOM      2  C   UNL     1      48.020   6.624  13.039  0.00  0.00    +0.000 A 
ATOM      3  C   UNL     1      47.425   5.631  13.829  0.00  0.00    +0.000 A 
ATOM      4  C   UNL     1      46.219   5.050  13.441  0.00  0.00    +0.000 A 
ATOM      5  C   UNL     1      45.584   5.452  12.257  0.00  0.00    +0.000 A 
ATOM      6  C   UNL     1      46.208   6.403  11.439  0.00  0.00    +0.000 A 
ATOM      7  C   UNL     1      47.417   6.983  11.826  0.00  0.00    +0.000 A 
BRANCH   5   8
ATOM      8  C   UNL     1      44.216   4.906  11.901  0.00  0.00    +0.000 C 
BRANCH   8   9
ATOM      9  N   UNL     1      44.279   3.604  11.204  0.00  0.00    +0.000 NA
ATOM     10  C   UNL     1      43.332   2.644  11.786  0.00  0.00    +0.000 C 
BRANCH   9  11
ATOM     11  C   UNL     1      43.983   3.753   9.768  0.00  0.00    +0.000 C 
BRANCH  11  12
ATOM     12  C   UNL     1      45.068   3.223   8.856  0.00  0.00    +0.000 A 
ATOM     13  C   UNL     1      45.764   4.083   7.994  0.00  0.00    +0.000 A 
ATOM     14  C   UNL     1      46.768   3.589   7.160  0.00  0.00    +0.000 A 
ATOM     15  C   UNL     1      47.082   2.230   7.177  0.00  0.00    +0.000 A 
ATOM     16  C   UNL     1      46.395   1.365   8.026  0.00  0.00    +0.000 A 
ATOM     17  C   UNL     1      45.395   1.860   8.864  0.00  0.00    +0.000 A 
ENDBRANCH  11  12
ENDBRANCH   9  11
ENDBRANCH   8   9
ENDBRANCH   5   8
ENDBRANCH   1   2
BRANCH   1  20
ATOM     18  C   UNL     1      51.182   8.527  12.584  0.00  0.00    +0.000 C 
ATOM     19  O   UNL     1      51.714   8.590  13.689  0.00  0.00    +0.000 OA
ATOM     20  N   UNL     1      49.968   7.917  12.384  0.00  0.00    +0.000 N 
ATOM     21  H   UNL     1      49.712   7.652  11.442  0.00  0.00    +0.000 HD
BRANCH  18  31
ATOM     22  C   UNL     1      51.745  11.601  11.977  0.00  0.00    +0.000 C 
ATOM     23  C   UNL     1      52.024  10.410  11.133  0.00  0.00    +0.000 A 
ATOM     24  N   UNL     1      52.594  10.532   9.890  0.00  0.00    +0.000 N 
ATOM     25  C   UNL     1      52.759   9.303   9.323  0.00  0.00    +0.000 A 
ATOM     26  N   UNL     1      53.281   9.105   8.099  0.00  0.00    +0.000 NA
ATOM     27  C   UNL     1      53.323   7.802   7.748  0.00  0.00    +0.000 A 
ATOM     28  C   UNL     1      52.891   6.741   8.531  0.00  0.00    +0.000 A 
ATOM     29  C   UNL     1      52.356   7.004   9.793  0.00  0.00    +0.000 A 
ATOM     30  C   UNL     1      52.289   8.346  10.217  0.00  0.00    +0.000 A 
ATOM     31  C   UNL     1      51.812   9.054  11.375  0.00  0.00    +0.000 A 
ATOM     32  H   UNL     1      52.852  11.393   9.430  0.00  0.00    +0.000 HD
ENDBRANCH  18  31
ENDBRANCH   1  20
TORSDOF 7
ENDMDL
MODEL 6
REMARK VINA RESULT:    -7.541      3.667      6.249
REMARK INTER + INTRA:         -11.420
REMARK INTER:                 -10.551
REMARK INTRA:                  -0.869
REMARK UNBOUND:                -0.794
REMARK  Name = 
REMARK  9 active torsions:
REMARK  status: ('A' for Active; 'I' for Inactive)
REMARK    1  A    between atoms: C_1  and  C_2
REMARK    2  A    between atoms: C_10  and  C_11
REMARK    3  A    between atoms: N_13  and  C_14
REMARK    4  A    between atoms: C_14  and  C_15
REMARK    5  A    between atoms: C_18  and  C_19
REMARK    6  A    between atoms: C_19  and  N_20
REMARK    7  A    between atoms: N_20  and  C_21
REMARK    8  A    between atoms: N_20  and  C_22
REMARK    9  A    between atoms: C_22  and  C_23
REMARK                            x       y       z     vdW  Elec       q    Type
REMARK                         _______ _______ _______ _____ _____    ______ ____
ROOT
ATOM      1  C   UNL     1      48.827   6.858  14.485  0.00  0.00    +0.000 C 
ENDROOT
BRANCH   1   2
ATOM      2  C   UNL     1      47.759   6.358  13.555  0.00  0.00    +0.000 A 
ATOM      3  C   UNL     1      46.904   5.323  13.954  0.00  0.00    +0.000 A 
ATOM      4  C   UNL     1      45.881   4.888  13.112  0.00  0.00    +0.000 A 
ATOM      5  C   UNL     1      45.695   5.481  11.855  0.00  0.00    +0.000 A 
ATOM      6  C   UNL     1      46.587   6.476  11.432  0.00  0.00    +0.000 A 
ATOM      7  C   UNL     1      47.612   6.910  12.275  0.00  0.00    +0.000 A 
BRANCH   5   8
ATOM      8  C   UNL     1      44.511   5.089  10.994  0.00  0.00    +0.000 C 
BRANCH   8   9
ATOM      9  N   UNL     1      44.612   3.711  10.468  0.00  0.00    +0.000 NA
ATOM     10  C   UNL     1      43.618   2.830  11.093  0.00  0.00    +0.000 C 
BRANCH   9  11
ATOM     11  C   UNL     1      44.421   3.683   9.007  0.00  0.00    +0.000 C 
BRANCH  11  12
ATOM     12  C   UNL     1      45.520   2.966   8.254  0.00  0.00    +0.000 A 
ATOM     13  C   UNL     1      45.765   1.602   8.470  0.00  0.00    +0.000 A 
ATOM     14  C   UNL     1      46.777   0.945   7.768  0.00  0.00    +0.000 A 
ATOM     15  C   UNL     1      47.553   1.645   6.846  0.00  0.00    +0.000 A 
ATOM     16  C   UNL     1      47.323   3.001   6.625  0.00  0.00    +0.000 A 
ATOM     17  C   UNL     1      46.308   3.658   7.323  0.00  0.00    +0.000 A 
ENDBRANCH  11  12
ENDBRANCH   9  11
ENDBRANCH   8   9
ENDBRANCH   5   8
ENDBRANCH   1   2
BRANCH   1  20
ATOM     18  C   UNL     1      50.354   8.512  13.559  0.00  0.00    +0.000 C 
ATOM     19  O   UNL     1      49.635   9.436  13.929  0.00  0.00    +0.000 OA
ATOM     20  N   UNL     1      50.029   7.195  13.768  0.00  0.00    +0.000 N 
ATOM     21  H   UNL     1      50.762   6.501  13.699  0.00  0.00    +0.000 HD
BRANCH  18  31
ATOM     22  C   UNL     1      52.765  10.229  14.732  0.00  0.00    +0.000 C 
ATOM     23  C   UNL     1      52.669   9.506  13.436  0.00  0.00    +0.000 A 
ATOM     24  N   UNL     1      53.701   9.520  12.531  0.00  0.00    +0.000 N 
ATOM     25  C   UNL     1      53.377   8.778  11.434  0.00  0.00    +0.000 A 
ATOM     26  N   UNL     1      54.186   8.617  10.371  0.00  0.00    +0.000 NA
ATOM     27  C   UNL     1      53.636   7.857   9.400  0.00  0.00    +0.000 A 
ATOM     28  C   UNL     1      52.377   7.276   9.445  0.00  0.00    +0.000 A 
ATOM     29  C   UNL     1      51.578   7.477  10.573  0.00  0.00    +0.000 A 
ATOM     30  C   UNL     1      52.099   8.260  11.622  0.00  0.00    +0.000 A 
ATOM     31  C   UNL     1      51.641   8.731  12.902  0.00  0.00    +0.000 A 
ATOM     32  H   UNL     1      54.579  10.009  12.629  0.00  0.00    +0.000 HD
ENDBRANCH  18  31
ENDBRANCH   1  20
TORSDOF 7
ENDMDL
MODEL 7
REMARK VINA RESULT:    -7.357      2.224      3.156
REMARK INTER + INTRA:         -11.161
REMARK INTER:                  -9.939
REMARK INTRA:                  -1.222
REMARK UNBOUND:                -0.794
REMARK  Name = 
REMARK  9 active torsions:
REMARK  status: ('A' for Active; 'I' for Inactive)
REMARK    1  A    between atoms: C_1  and  C_2
REMARK    2  A    between atoms: C_10  and  C_11
REMARK    3  A    between atoms: N_13  and  C_14
REMARK    4  A    between atoms: C_14  and  C_15
REMARK    5  A    between atoms: C_18  and  C_19
REMARK    6  A    between atoms: C_19  and  N_20
REMARK    7  A    between atoms: N_20  and  C_21
REMARK    8  A    between atoms: N_20  and  C_22
REMARK    9  A    between atoms: C_22  and  C_23
REMARK                            x       y       z     vdW  Elec       q    Type
REMARK                         _______ _______ _______ _____ _____    ______ ____
ROOT
ATOM      1  C   UNL     1      47.540   4.094  16.082  0.00  0.00    +0.000 C 
ENDROOT
BRANCH   1   2
ATOM      2  C   UNL     1      47.080   4.454  14.698  0.00  0.00    +0.000 A 
ATOM      3  C   UNL     1      46.617   3.458  13.827  0.00  0.00    +0.000 A 
ATOM      4  C   UNL     1      46.146   3.794  12.559  0.00  0.00    +0.000 A 
ATOM      5  C   UNL     1      46.128   5.131  12.138  0.00  0.00    +0.000 A 
ATOM      6  C   UNL     1      46.645   6.119  12.987  0.00  0.00    +0.000 A 
ATOM      7  C   UNL     1      47.119   5.783  14.256  0.00  0.00    +0.000 A 
BRANCH   5   8
ATOM      8  C   UNL     1      45.505   5.505  10.808  0.00  0.00    +0.000 C 
BRANCH   8   9
ATOM      9  N   UNL     1      44.316   4.690  10.480  0.00  0.00    +0.000 NA
ATOM     10  C   UNL     1      43.087   5.319  10.978  0.00  0.00    +0.000 C 
BRANCH   9  11
ATOM     11  C   UNL     1      44.192   4.491   9.024  0.00  0.00    +0.000 C 
BRANCH  11  12
ATOM     12  C   UNL     1      45.182   3.502   8.450  0.00  0.00    +0.000 A 
ATOM     13  C   UNL     1      45.135   2.148   8.813  0.00  0.00    +0.000 A 
ATOM     14  C   UNL     1      46.048   1.239   8.275  0.00  0.00    +0.000 A 
ATOM     15  C   UNL     1      47.016   1.676   7.372  0.00  0.00    +0.000 A 
ATOM     16  C   UNL     1      47.076   3.018   7.006  0.00  0.00    +0.000 A 
ATOM     17  C   UNL     1      46.161   3.927   7.540  0.00  0.00    +0.000 A 
ENDBRANCH  11  12
ENDBRANCH   9  11
ENDBRANCH   8   9
ENDBRANCH   5   8
ENDBRANCH   1   2
BRANCH   1  20
ATOM     18  C   UNL     1      47.615   5.646  17.956  0.00  0.00    +0.000 C 
ATOM     19  O   UNL     1      46.644   5.110  18.484  0.00  0.00    +0.000 OA
ATOM     20  N   UNL     1      48.122   5.227  16.750  0.00  0.00    +0.000 N 
ATOM     21  H   UNL     1      49.062   5.507  16.501  0.00  0.00    +0.000 HD
BRANCH  18  31
ATOM     22  C   UNL     1      49.265   5.466  20.673  0.00  0.00    +0.000 C 
ATOM     23  C   UNL     1      49.041   6.637  19.784  0.00  0.00    +0.000 A 
ATOM     24  N   UNL     1      49.563   7.871  20.083  0.00  0.00    +0.000 N 
ATOM     25  C   UNL     1      49.231   8.771  19.114  0.00  0.00    +0.000 A 
ATOM     26  N   UNL     1      49.589  10.067  19.140  0.00  0.00    +0.000 NA
ATOM     27  C   UNL     1      49.124  10.764  18.080  0.00  0.00    +0.000 A 
ATOM     28  C   UNL     1      48.358  10.246  17.046  0.00  0.00    +0.000 A 
ATOM     29  C   UNL     1      48.014   8.893  17.071  0.00  0.00    +0.000 A 
ATOM     30  C   UNL     1      48.473   8.112  18.150  0.00  0.00    +0.000 A 
ATOM     31  C   UNL     1      48.345   6.746  18.581  0.00  0.00    +0.000 A 
ATOM     32  H   UNL     1      50.106   8.112  20.899  0.00  0.00    +0.000 HD
ENDBRANCH  18  31
ENDBRANCH   1  20
TORSDOF 7
ENDMDL
MODEL 8
REMARK VINA RESULT:    -7.329      3.510      9.455
REMARK INTER + INTRA:         -11.122
REMARK INTER:                  -8.955
REMARK INTRA:                  -2.167
REMARK UNBOUND:                -0.794
REMARK  Name = 
REMARK  9 active torsions:
REMARK  status: ('A' for Active; 'I' for Inactive)
REMARK    1  A    between atoms: C_1  and  C_2
REMARK    2  A    between atoms: C_10  and  C_11
REMARK    3  A    between atoms: N_13  and  C_14
REMARK    4  A    between atoms: C_14  and  C_15
REMARK    5  A    between atoms: C_18  and  C_19
REMARK    6  A    between atoms: C_19  and  N_20
REMARK    7  A    between atoms: N_20  and  C_21
REMARK    8  A    between atoms: N_20  and  C_22
REMARK    9  A    between atoms: C_22  and  C_23
REMARK                            x       y       z     vdW  Elec       q    Type
REMARK                         _______ _______ _______ _____ _____    ______ ____
ROOT
ATOM      1  C   UNL     1      47.404   3.757  16.794  0.00  0.00    +0.000 C 
ENDROOT
BRANCH   1   2
ATOM      2  C   UNL     1      47.751   4.528  18.035  0.00  0.00    +0.000 A 
ATOM      3  C   UNL     1      48.950   4.271  18.714  0.00  0.00    +0.000 A 
ATOM      4  C   UNL     1      49.298   5.017  19.839  0.00  0.00    +0.000 A 
ATOM      5  C   UNL     1      48.454   6.034  20.307  0.00  0.00    +0.000 A 
ATOM      6  C   UNL     1      47.228   6.251  19.663  0.00  0.00    +0.000 A 
ATOM      7  C   UNL     1      46.879   5.503  18.538  0.00  0.00    +0.000 A 
BRANCH   5   8
ATOM      8  C   UNL     1      48.890   6.920  21.456  0.00  0.00    +0.000 C 
BRANCH   8   9
ATOM      9  N   UNL     1      48.925   8.354  21.097  0.00  0.00    +0.000 NA
ATOM     10  C   UNL     1      49.128   9.194  22.284  0.00  0.00    +0.000 C 
BRANCH   9  11
ATOM     11  C   UNL     1      49.998   8.634  20.126  0.00  0.00    +0.000 C 
BRANCH  11  12
ATOM     12  C   UNL     1      49.533   8.675  18.686  0.00  0.00    +0.000 A 
ATOM     13  C   UNL     1      48.450   9.480  18.306  0.00  0.00    +0.000 A 
ATOM     14  C   UNL     1      48.030   9.517  16.975  0.00  0.00    +0.000 A 
ATOM     15  C   UNL     1      48.687   8.750  16.015  0.00  0.00    +0.000 A 
ATOM     16  C   UNL     1      49.762   7.943  16.381  0.00  0.00    +0.000 A 
ATOM     17  C   UNL     1      50.186   7.908  17.710  0.00  0.00    +0.000 A 
ENDBRANCH  11  12
ENDBRANCH   9  11
ENDBRANCH   8   9
ENDBRANCH   5   8
ENDBRANCH   1   2
BRANCH   1  20
ATOM     18  C   UNL     1      46.967   4.188  14.438  0.00  0.00    +0.000 C 
ATOM     19  O   UNL     1      47.352   3.065  14.125  0.00  0.00    +0.000 OA
ATOM     20  N   UNL     1      46.975   4.634  15.737  0.00  0.00    +0.000 N 
ATOM     21  H   UNL     1      46.404   5.435  15.974  0.00  0.00    +0.000 HD
BRANCH  18  31
ATOM     22  C   UNL     1      48.579   6.568  13.071  0.00  0.00    +0.000 C 
ATOM     23  C   UNL     1      47.154   6.180  12.903  0.00  0.00    +0.000 A 
ATOM     24  N   UNL     1      46.314   6.881  12.074  0.00  0.00    +0.000 N 
ATOM     25  C   UNL     1      45.070   6.325  12.081  0.00  0.00    +0.000 A 
ATOM     26  N   UNL     1      44.030   6.803  11.375  0.00  0.00    +0.000 NA
ATOM     27  C   UNL     1      42.895   6.095  11.561  0.00  0.00    +0.000 A 
ATOM     28  C   UNL     1      42.763   4.982  12.379  0.00  0.00    +0.000 A 
ATOM     29  C   UNL     1      43.876   4.529  13.090  0.00  0.00    +0.000 A 
ATOM     30  C   UNL     1      45.091   5.226  12.934  0.00  0.00    +0.000 A 
ATOM     31  C   UNL     1      46.424   5.135  13.467  0.00  0.00    +0.000 A 
ATOM     32  H   UNL     1      46.550   7.702  11.535  0.00  0.00    +0.000 HD
ENDBRANCH  18  31
ENDBRANCH   1  20
TORSDOF 7
ENDMDL
MODEL 9
REMARK VINA RESULT:    -7.089      3.115      8.710
REMARK INTER + INTRA:         -10.784
REMARK INTER:                  -8.788
REMARK INTRA:                  -1.996
REMARK UNBOUND:                -0.794
REMARK  Name = 
REMARK  9 active torsions:
REMARK  status: ('A' for Active; 'I' for Inactive)
REMARK    1  A    between atoms: C_1  and  C_2
REMARK    2  A    between atoms: C_10  and  C_11
REMARK    3  A    between atoms: N_13  and  C_14
REMARK    4  A    between atoms: C_14  and  C_15
REMARK    5  A    between atoms: C_18  and  C_19
REMARK    6  A    between atoms: C_19  and  N_20
REMARK    7  A    between atoms: N_20  and  C_21
REMARK    8  A    between atoms: N_20  and  C_22
REMARK    9  A    between atoms: C_22  and  C_23
REMARK                            x       y       z     vdW  Elec       q    Type
REMARK                         _______ _______ _______ _____ _____    ______ ____
ROOT
ATOM      1  C   UNL     1      48.243   9.385  14.654  0.00  0.00    +0.000 C 
ENDROOT
BRANCH   1   2
ATOM      2  C   UNL     1      48.520   8.804  16.011  0.00  0.00    +0.000 A 
ATOM      3  C   UNL     1      47.894   9.335  17.147  0.00  0.00    +0.000 A 
ATOM      4  C   UNL     1      48.113   8.769  18.402  0.00  0.00    +0.000 A 
ATOM      5  C   UNL     1      48.961   7.662  18.544  0.00  0.00    +0.000 A 
ATOM      6  C   UNL     1      49.631   7.168  17.417  0.00  0.00    +0.000 A 
ATOM      7  C   UNL     1      49.414   7.736  16.161  0.00  0.00    +0.000 A 
BRANCH   5   8
ATOM      8  C   UNL     1      49.102   6.976  19.888  0.00  0.00    +0.000 C 
BRANCH   8   9
ATOM      9  N   UNL     1      49.749   5.651  19.795  0.00  0.00    +0.000 NA
ATOM     10  C   UNL     1      50.692   5.441  20.900  0.00  0.00    +0.000 C 
BRANCH   9  11
ATOM     11  C   UNL     1      48.750   4.567  19.809  0.00  0.00    +0.000 C 
BRANCH  11  12
ATOM     12  C   UNL     1      48.471   3.965  18.449  0.00  0.00    +0.000 A 
ATOM     13  C   UNL     1      49.281   2.940  17.940  0.00  0.00    +0.000 A 
ATOM     14  C   UNL     1      49.016   2.385  16.687  0.00  0.00    +0.000 A 
ATOM     15  C   UNL     1      47.940   2.852  15.932  0.00  0.00    +0.000 A 
ATOM     16  C   UNL     1      47.131   3.873  16.425  0.00  0.00    +0.000 A 
ATOM     17  C   UNL     1      47.393   4.425  17.680  0.00  0.00    +0.000 A 
ENDBRANCH  11  12
ENDBRANCH   9  11
ENDBRANCH   8   9
ENDBRANCH   5   8
ENDBRANCH   1   2
BRANCH   1  20
ATOM     18  C   UNL     1      47.220   8.189  12.796  0.00  0.00    +0.000 C 
ATOM     19  O   UNL     1      48.265   8.222  12.153  0.00  0.00    +0.000 OA
ATOM     20  N   UNL     1      47.102   8.758  14.040  0.00  0.00    +0.000 N 
ATOM     21  H   UNL     1      46.332   8.470  14.630  0.00  0.00    +0.000 HD
BRANCH  18  31
ATOM     22  C   UNL     1      44.730   9.579  11.381  0.00  0.00    +0.000 C 
ATOM     23  C   UNL     1      44.939   8.147  11.721  0.00  0.00    +0.000 A 
ATOM     24  N   UNL     1      43.986   7.199  11.442  0.00  0.00    +0.000 N 
ATOM     25  C   UNL     1      44.416   5.967  11.835  0.00  0.00    +0.000 A 
ATOM     26  N   UNL     1      43.690   4.842  11.704  0.00  0.00    +0.000 NA
ATOM     27  C   UNL     1      44.320   3.749  12.186  0.00  0.00    +0.000 A 
ATOM     28  C   UNL     1      45.582   3.732  12.761  0.00  0.00    +0.000 A 
ATOM     29  C   UNL     1      46.291   4.931  12.874  0.00  0.00    +0.000 A 
ATOM     30  C   UNL     1      45.687   6.106  12.385  0.00  0.00    +0.000 A 
ATOM     31  C   UNL     1      46.021   7.503  12.318  0.00  0.00    +0.000 A 
ATOM     32  H   UNL     1      43.083   7.362  11.020  0.00  0.00    +0.000 HD
ENDBRANCH  18  31
ENDBRANCH   1  20
TORSDOF 7
ENDMDL
