MODEL 1
REMARK VINA RESULT:    -8.409      0.000      0.000
REMARK INTER + INTRA:         -12.248
REMARK INTER:                 -11.358
REMARK INTRA:                  -0.890
REMARK UNBOUND:                -0.890
REMARK  Name = 
REMARK  7 active torsions:
REMARK  status: ('A' for Active; 'I' for Inactive)
REMARK    1  A    between atoms: C_1  and  N_2
REMARK    2  A    between atoms: N_2  and  C_3
REMARK    3  A    between atoms: C_3  and  C_4
REMARK    4  A    between atoms: C_7  and  C_8
REMARK    5  A    between atoms: C_8  and  N_9
REMARK    6  A    between atoms: C_10  and  C_12
REMARK    7  A    between atoms: C_24  and  C_26
REMARK                            x       y       z     vdW  Elec       q    Type
REMARK                         _______ _______ _______ _____ _____    ______ ____
ROOT
ATOM      1  C   UNL     1      46.392   4.555  13.399  0.00  0.00    +0.000 A 
ATOM      2  C   UNL     1      46.718   4.154  14.705  0.00  0.00    +0.000 A 
ATOM      3  C   UNL     1      47.584   4.917  15.487  0.00  0.00    +0.000 A 
ATOM      4  C   UNL     1      48.130   6.104  14.982  0.00  0.00    +0.000 A 
ATOM      5  C   UNL     1      47.816   6.495  13.674  0.00  0.00    +0.000 A 
ATOM      6  C   UNL     1      46.946   5.734  12.892  0.00  0.00    +0.000 A 
ENDROOT
BRANCH   1   7
ATOM      7  C   UNL     1      45.498   3.696  12.544  0.00  0.00    +0.000 C 
BRANCH   7   9
ATOM      8  C   UNL     1      43.340   4.966  12.960  0.00  0.00    +0.000 C 
ATOM      9  N   UNL     1      44.235   4.255  12.051  0.00  0.00    +0.000 N 
ATOM     10  C   UNL     1      43.932   4.400  10.684  0.00  0.00    +0.000 C 
ATOM     11  O   UNL     1      42.967   5.067  10.303  0.00  0.00    +0.000 OA
BRANCH  10  12
ATOM     12  C   UNL     1      44.780   3.797   9.621  0.00  0.00    +0.000 A 
ATOM     13  C   UNL     1      44.888   2.432   9.358  0.00  0.00    +0.000 A 
ATOM     14  C   UNL     1      45.761   1.978   8.371  0.00  0.00    +0.000 A 
ATOM     15  C   UNL     1      46.449   2.914   7.620  0.00  0.00    +0.000 A 
ATOM     16  N   UNL     1      46.317   4.245   7.790  0.00  0.00    +0.000 NA
ATOM     17  C   UNL     1      45.481   4.656   8.780  0.00  0.00    +0.000 A 
ENDBRANCH  10  12
ENDBRANCH   7   9
ENDBRANCH   1   7
BRANCH   4  18
ATOM     18  C   UNL     1      49.104   6.908  15.800  0.00  0.00    +0.000 C 
BRANCH  18  19
ATOM     19  N   UNL     1      50.149   6.056  16.303  0.00  0.00    +0.000 N 
ATOM     20  C   UNL     1      50.131   5.561  17.578  0.00  0.00    +0.000 C 
ATOM     21  O   UNL     1      49.194   5.767  18.346  0.00  0.00    +0.000 OA
ATOM     22  H   UNL     1      51.019   6.048  15.778  0.00  0.00    +0.000 HD
BRANCH  20  23
ATOM     23  C   UNL     1      51.262   4.703  17.953  0.00  0.00    +0.000 A 
ATOM     24  C   UNL     1      52.370   5.262  18.576  0.00  0.00    +0.000 A 
ATOM     25  S   UNL     1      53.557   4.121  19.018  0.00  0.00    +0.000 S 
ATOM     26  C   UNL     1      52.656   2.843  18.347  0.00  0.00    +0.000 A 
ATOM     27  N   UNL     1      53.124   1.567  18.382  0.00  0.00    +0.000 NA
ATOM     28  C   UNL     1      52.355   0.699  17.811  0.00  0.00    +0.000 A 
ATOM     29  N   UNL     1      51.160   0.996  17.209  0.00  0.00    +0.000 N 
ATOM     30  C   UNL     1      50.635   2.265  17.170  0.00  0.00    +0.000 A 
ATOM     31  O   UNL     1      49.548   2.489  16.653  0.00  0.00    +0.000 OA
ATOM     32  C   UNL     1      51.461   3.278  17.800  0.00  0.00    +0.000 A 
ATOM     33  H   UNL     1      50.604   0.271  16.776  0.00  0.00    +0.000 HD
ENDBRANCH  20  23
ENDBRANCH  18  19
ENDBRANCH   4  18
TORSDOF 6
ENDMDL
MODEL 2
REMARK VINA RESULT:    -8.049      2.792      3.494
REMARK INTER + INTRA:         -11.761
REMARK INTER:                 -11.221
REMARK INTRA:                  -0.540
REMARK UNBOUND:                -0.890
REMARK  Name = 
REMARK  7 active torsions:
REMARK  status: ('A' for Active; 'I' for Inactive)
REMARK    1  A    between atoms: C_1  and  N_2
REMARK    2  A    between atoms: N_2  and  C_3
REMARK    3  A    between atoms: C_3  and  C_4
REMARK    4  A    between atoms: C_7  and  C_8
REMARK    5  A    between atoms: C_8  and  N_9
REMARK    6  A    between atoms: C_10  and  C_12
REMARK    7  A    between atoms: C_24  and  C_26
REMARK                            x       y       z     vdW  Elec       q    Type
REMARK                         _______ _______ _______ _____ _____    ______ ____
ROOT
ATOM      1  C   UNL     1      45.521   5.887  10.627  0.00  0.00    +0.000 A 
ATOM      2  C   UNL     1      44.735   6.421  11.662  0.00  0.00    +0.000 A 
ATOM      3  C   UNL     1      45.305   7.235  12.640  0.00  0.00    +0.000 A 
ATOM      4  C   UNL     1      46.671   7.542  12.593  0.00  0.00    +0.000 A 
ATOM      5  C   UNL     1      47.457   6.996  11.570  0.00  0.00    +0.000 A 
ATOM      6  C   UNL     1      46.886   6.184  10.588  0.00  0.00    +0.000 A 
ENDROOT
BRANCH   1   7
ATOM      7  C   UNL     1      44.906   4.965   9.607  0.00  0.00    +0.000 C 
BRANCH   7   9
ATOM      8  C   UNL     1      43.488   3.450  11.070  0.00  0.00    +0.000 C 
ATOM      9  N   UNL     1      44.492   3.621  10.023  0.00  0.00    +0.000 N 
ATOM     10  C   UNL     1      44.794   2.455   9.293  0.00  0.00    +0.000 C 
ATOM     11  O   UNL     1      44.252   1.376   9.545  0.00  0.00    +0.000 OA
BRANCH  10  12
ATOM     12  C   UNL     1      45.744   2.467   8.149  0.00  0.00    +0.000 A 
ATOM     13  C   UNL     1      45.936   3.538   7.276  0.00  0.00    +0.000 A 
ATOM     14  C   UNL     1      46.816   3.414   6.202  0.00  0.00    +0.000 A 
ATOM     15  C   UNL     1      47.540   2.241   6.076  0.00  0.00    +0.000 A 
ATOM     16  N   UNL     1      47.441   1.212   6.942  0.00  0.00    +0.000 NA
ATOM     17  C   UNL     1      46.553   1.351   7.961  0.00  0.00    +0.000 A 
ENDBRANCH  10  12
ENDBRANCH   7   9
ENDBRANCH   1   7
BRANCH   4  18
ATOM     18  C   UNL     1      47.306   8.379  13.671  0.00  0.00    +0.000 C 
BRANCH  18  19
ATOM     19  N   UNL     1      47.656   7.553  14.796  0.00  0.00    +0.000 N 
ATOM     20  C   UNL     1      48.942   7.143  15.022  0.00  0.00    +0.000 C 
ATOM     21  O   UNL     1      49.878   7.505  14.312  0.00  0.00    +0.000 OA
ATOM     22  H   UNL     1      46.892   7.073  15.261  0.00  0.00    +0.000 HD
BRANCH  20  23
ATOM     23  C   UNL     1      49.153   6.307  16.210  0.00  0.00    +0.000 A 
ATOM     24  C   UNL     1      50.144   6.649  17.122  0.00  0.00    +0.000 A 
ATOM     25  S   UNL     1      50.206   5.624  18.483  0.00  0.00    +0.000 S 
ATOM     26  C   UNL     1      48.945   4.654  17.879  0.00  0.00    +0.000 A 
ATOM     27  N   UNL     1      48.504   3.572  18.573  0.00  0.00    +0.000 NA
ATOM     28  C   UNL     1      47.563   2.908  17.987  0.00  0.00    +0.000 A 
ATOM     29  N   UNL     1      47.024   3.231  16.769  0.00  0.00    +0.000 N 
ATOM     30  C   UNL     1      47.420   4.328  16.042  0.00  0.00    +0.000 A 
ATOM     31  O   UNL     1      46.893   4.607  14.972  0.00  0.00    +0.000 OA
ATOM     32  C   UNL     1      48.475   5.110  16.659  0.00  0.00    +0.000 A 
ATOM     33  H   UNL     1      46.291   2.668  16.362  0.00  0.00    +0.000 HD
ENDBRANCH  20  23
ENDBRANCH  18  19
ENDBRANCH   4  18
TORSDOF 6
ENDMDL
MODEL 3
REMARK VINA RESULT:    -7.637      3.393      8.647
REMARK INTER + INTRA:         -11.206
REMARK INTER:                  -9.647
REMARK INTRA:                  -1.559
REMARK UNBOUND:                -0.890
REMARK  Name = 
REMARK  7 active torsions:
REMARK  status: ('A' for Active; 'I' for Inactive)
REMARK    1  A    between atoms: C_1  and  N_2
REMARK    2  A    between atoms: N_2  and  C_3
REMARK    3  A    between atoms: C_3  and  C_4
REMARK    4  A    between atoms: C_7  and  C_8
REMARK    5  A    between atoms: C_8  and  N_9
REMARK    6  A    between atoms: C_10  and  C_12
REMARK    7  A    between atoms: C_24  and  C_26
REMARK                            x       y       z     vdW  Elec       q    Type
REMARK                         _______ _______ _______ _____ _____    ______ ____
ROOT
ATOM      1  C   UNL     1      49.128   7.680  16.204  0.00  0.00    +0.000 A 
ATOM      2  C   UNL     1      49.360   6.643  15.285  0.00  0.00    +0.000 A 
ATOM      3  C   UNL     1      48.863   6.723  13.984  0.00  0.00    +0.000 A 
ATOM      4  C   UNL     1      48.136   7.847  13.575  0.00  0.00    +0.000 A 
ATOM      5  C   UNL     1      47.892   8.874  14.496  0.00  0.00    +0.000 A 
ATOM      6  C   UNL     1      48.392   8.797  15.797  0.00  0.00    +0.000 A 
ENDROOT
BRANCH   1   7
ATOM      7  C   UNL     1      49.623   7.561  17.621  0.00  0.00    +0.000 C 
BRANCH   7   9
ATOM      8  C   UNL     1      48.166   8.554  19.448  0.00  0.00    +0.000 C 
ATOM      9  N   UNL     1      48.646   7.393  18.703  0.00  0.00    +0.000 N 
ATOM     10  C   UNL     1      47.912   6.209  18.909  0.00  0.00    +0.000 C 
ATOM     11  O   UNL     1      46.950   6.172  19.679  0.00  0.00    +0.000 OA
BRANCH  10  12
ATOM     12  C   UNL     1      48.225   4.952  18.178  0.00  0.00    +0.000 A 
ATOM     13  C   UNL     1      49.406   4.223  18.305  0.00  0.00    +0.000 A 
ATOM     14  C   UNL     1      49.612   3.086  17.524  0.00  0.00    +0.000 A 
ATOM     15  C   UNL     1      48.592   2.669  16.688  0.00  0.00    +0.000 A 
ATOM     16  N   UNL     1      47.405   3.301  16.592  0.00  0.00    +0.000 NA
ATOM     17  C   UNL     1      47.245   4.422  17.343  0.00  0.00    +0.000 A 
ENDBRANCH  10  12
ENDBRANCH   7   9
ENDBRANCH   1   7
BRANCH   4  18
ATOM     18  C   UNL     1      47.553   7.920  12.189  0.00  0.00    +0.000 C 
BRANCH  18  19
ATOM     19  N   UNL     1      46.862   6.697  11.879  0.00  0.00    +0.000 N 
ATOM     20  C   UNL     1      45.549   6.502  12.209  0.00  0.00    +0.000 C 
ATOM     21  O   UNL     1      44.870   7.380  12.736  0.00  0.00    +0.000 OA
ATOM     22  H   UNL     1      47.441   5.895  11.647  0.00  0.00    +0.000 HD
BRANCH  20  23
ATOM     23  C   UNL     1      44.972   5.206  11.828  0.00  0.00    +0.000 A 
ATOM     24  C   UNL     1      44.276   4.462  12.772  0.00  0.00    +0.000 A 
ATOM     25  S   UNL     1      43.603   3.024  12.150  0.00  0.00    +0.000 S 
ATOM     26  C   UNL     1      44.261   3.318  10.608  0.00  0.00    +0.000 A 
ATOM     27  N   UNL     1      44.061   2.444   9.587  0.00  0.00    +0.000 NA
ATOM     28  C   UNL     1      44.640   2.774   8.479  0.00  0.00    +0.000 A 
ATOM     29  N   UNL     1      45.400   3.901   8.304  0.00  0.00    +0.000 N 
ATOM     30  C   UNL     1      45.609   4.826   9.299  0.00  0.00    +0.000 A 
ATOM     31  O   UNL     1      46.266   5.840   9.098  0.00  0.00    +0.000 OA
ATOM     32  C   UNL     1      44.977   4.502  10.565  0.00  0.00    +0.000 A 
ATOM     33  H   UNL     1      45.830   4.102   7.412  0.00  0.00    +0.000 HD
ENDBRANCH  20  23
ENDBRANCH  18  19
ENDBRANCH   4  18
TORSDOF 6
ENDMDL
MODEL 4
REMARK VINA RESULT:    -7.618      3.112      3.749
REMARK INTER + INTRA:         -11.180
REMARK INTER:                 -10.119
REMARK INTRA:                  -1.061
REMARK UNBOUND:                -0.890
REMARK  Name = 
REMARK  7 active torsions:
REMARK  status: ('A' for Active; 'I' for Inactive)
REMARK    1  A    between atoms: C_1  and  N_2
REMARK    2  A    between atoms: N_2  and  C_3
REMARK    3  A    between atoms: C_3  and  C_4
REMARK    4  A    between atoms: C_7  and  C_8
REMARK    5  A    between atoms: C_8  and  N_9
REMARK    6  A    between atoms: C_10  and  C_12
REMARK    7  A    between atoms: C_24  and  C_26
REMARK                            x       y       z     vdW  Elec       q    Type
REMARK                         _______ _______ _______ _____ _____    ______ ____
ROOT
ATOM      1  C   UNL     1      46.403   4.597  13.205  0.00  0.00    +0.000 A 
ATOM      2  C   UNL     1      46.781   5.791  12.568  0.00  0.00    +0.000 A 
ATOM      3  C   UNL     1      47.618   6.704  13.209  0.00  0.00    +0.000 A 
ATOM      4  C   UNL     1      48.104   6.434  14.494  0.00  0.00    +0.000 A 
ATOM      5  C   UNL     1      47.713   5.251  15.135  0.00  0.00    +0.000 A 
ATOM      6  C   UNL     1      46.879   4.334  14.493  0.00  0.00    +0.000 A 
ENDROOT
BRANCH   1   7
ATOM      7  C   UNL     1      45.456   3.643  12.527  0.00  0.00    +0.000 C 
BRANCH   7   9
ATOM      8  C   UNL     1      43.236   4.808  12.929  0.00  0.00    +0.000 C 
ATOM      9  N   UNL     1      44.176   4.152  12.023  0.00  0.00    +0.000 N 
ATOM     10  C   UNL     1      43.886   4.303  10.654  0.00  0.00    +0.000 C 
ATOM     11  O   UNL     1      42.897   4.931  10.268  0.00  0.00    +0.000 OA
BRANCH  10  12
ATOM     12  C   UNL     1      44.776   3.755   9.596  0.00  0.00    +0.000 A 
ATOM     13  C   UNL     1      44.964   2.399   9.327  0.00  0.00    +0.000 A 
ATOM     14  C   UNL     1      45.869   2.001   8.345  0.00  0.00    +0.000 A 
ATOM     15  C   UNL     1      46.509   2.979   7.605  0.00  0.00    +0.000 A 
ATOM     16  N   UNL     1      46.300   4.300   7.780  0.00  0.00    +0.000 NA
ATOM     17  C   UNL     1      45.433   4.657   8.765  0.00  0.00    +0.000 A 
ENDBRANCH  10  12
ENDBRANCH   7   9
ENDBRANCH   1   7
BRANCH   4  18
ATOM     18  C   UNL     1      48.967   7.436  15.213  0.00  0.00    +0.000 C 
BRANCH  18  19
ATOM     19  N   UNL     1      48.512   7.598  16.568  0.00  0.00    +0.000 N 
ATOM     20  C   UNL     1      49.356   7.468  17.637  0.00  0.00    +0.000 C 
ATOM     21  O   UNL     1      50.559   7.264  17.499  0.00  0.00    +0.000 OA
ATOM     22  H   UNL     1      47.508   7.552  16.718  0.00  0.00    +0.000 HD
BRANCH  20  23
ATOM     23  C   UNL     1      48.753   7.663  18.963  0.00  0.00    +0.000 A 
ATOM     24  C   UNL     1      48.453   8.949  19.396  0.00  0.00    +0.000 A 
ATOM     25  S   UNL     1      47.687   8.997  20.918  0.00  0.00    +0.000 S 
ATOM     26  C   UNL     1      47.774   7.305  21.077  0.00  0.00    +0.000 A 
ATOM     27  N   UNL     1      47.291   6.683  22.185  0.00  0.00    +0.000 NA
ATOM     28  C   UNL     1      47.447   5.400  22.189  0.00  0.00    +0.000 A 
ATOM     29  N   UNL     1      48.045   4.685  21.184  0.00  0.00    +0.000 N 
ATOM     30  C   UNL     1      48.526   5.267  20.035  0.00  0.00    +0.000 A 
ATOM     31  O   UNL     1      49.024   4.593  19.141  0.00  0.00    +0.000 OA
ATOM     32  C   UNL     1      48.372   6.708  19.980  0.00  0.00    +0.000 A 
ATOM     33  H   UNL     1      48.141   3.682  21.248  0.00  0.00    +0.000 HD
ENDBRANCH  20  23
ENDBRANCH  18  19
ENDBRANCH   4  18
TORSDOF 6
ENDMDL
MODEL 5
REMARK VINA RESULT:    -7.502      3.469     10.078
REMARK INTER + INTRA:         -11.024
REMARK INTER:                  -9.577
REMARK INTRA:                  -1.446
REMARK UNBOUND:                -0.890
REMARK  Name = 
REMARK  7 active torsions:
REMARK  status: ('A' for Active; 'I' for Inactive)
REMARK    1  A    between atoms: C_1  and  N_2
REMARK    2  A    between atoms: N_2  and  C_3
REMARK    3  A    between atoms: C_3  and  C_4
REMARK    4  A    between atoms: C_7  and  C_8
REMARK    5  A    between atoms: C_8  and  N_9
REMARK    6  A    between atoms: C_10  and  C_12
REMARK    7  A    between atoms: C_24  and  C_26
REMARK                            x       y       z     vdW  Elec       q    Type
REMARK                         _______ _______ _______ _____ _____    ______ ____
ROOT
ATOM      1  C   UNL     1      51.431   4.084  17.736  0.00  0.00    +0.000 A 
ATOM      2  C   UNL     1      50.908   2.784  17.643  0.00  0.00    +0.000 A 
ATOM      3  C   UNL     1      49.564   2.579  17.329  0.00  0.00    +0.000 A 
ATOM      4  C   UNL     1      48.722   3.672  17.089  0.00  0.00    +0.000 A 
ATOM      5  C   UNL     1      49.241   4.969  17.197  0.00  0.00    +0.000 A 
ATOM      6  C   UNL     1      50.586   5.175  17.507  0.00  0.00    +0.000 A 
ENDROOT
BRANCH   1   7
ATOM      7  C   UNL     1      52.869   4.296  18.128  0.00  0.00    +0.000 C 
BRANCH   7   9
ATOM      8  C   UNL     1      54.499   2.755  19.316  0.00  0.00    +0.000 C 
ATOM      9  N   UNL     1      53.368   3.677  19.361  0.00  0.00    +0.000 N 
ATOM     10  C   UNL     1      53.008   4.115  20.649  0.00  0.00    +0.000 C 
ATOM     11  O   UNL     1      53.606   3.724  21.655  0.00  0.00    +0.000 OA
BRANCH  10  12
ATOM     12  C   UNL     1      51.922   5.107  20.869  0.00  0.00    +0.000 A 
ATOM     13  C   UNL     1      50.601   4.794  21.190  0.00  0.00    +0.000 A 
ATOM     14  C   UNL     1      49.654   5.808  21.317  0.00  0.00    +0.000 A 
ATOM     15  C   UNL     1      50.074   7.120  21.191  0.00  0.00    +0.000 A 
ATOM     16  N   UNL     1      51.355   7.471  20.956  0.00  0.00    +0.000 NA
ATOM     17  C   UNL     1      52.250   6.458  20.808  0.00  0.00    +0.000 A 
ENDBRANCH  10  12
ENDBRANCH   7   9
ENDBRANCH   1   7
BRANCH   4  18
ATOM     18  C   UNL     1      47.260   3.462  16.798  0.00  0.00    +0.000 C 
BRANCH  18  19
ATOM     19  N   UNL     1      46.803   4.432  15.838  0.00  0.00    +0.000 N 
ATOM     20  C   UNL     1      46.860   4.200  14.491  0.00  0.00    +0.000 C 
ATOM     21  O   UNL     1      47.248   3.131  14.027  0.00  0.00    +0.000 OA
ATOM     22  H   UNL     1      46.685   5.383  16.175  0.00  0.00    +0.000 HD
BRANCH  20  23
ATOM     23  C   UNL     1      46.356   5.278  13.629  0.00  0.00    +0.000 A 
ATOM     24  C   UNL     1      47.156   6.385  13.377  0.00  0.00    +0.000 A 
ATOM     25  S   UNL     1      46.458   7.503  12.297  0.00  0.00    +0.000 S 
ATOM     26  C   UNL     1      45.038   6.574  12.166  0.00  0.00    +0.000 A 
ATOM     27  N   UNL     1      44.007   6.984  11.381  0.00  0.00    +0.000 NA
ATOM     28  C   UNL     1      42.979   6.200  11.396  0.00  0.00    +0.000 A 
ATOM     29  N   UNL     1      42.893   5.043  12.125  0.00  0.00    +0.000 N 
ATOM     30  C   UNL     1      43.918   4.576  12.913  0.00  0.00    +0.000 A 
ATOM     31  O   UNL     1      43.820   3.520  13.525  0.00  0.00    +0.000 OA
ATOM     32  C   UNL     1      45.098   5.421  12.929  0.00  0.00    +0.000 A 
ATOM     33  H   UNL     1      42.059   4.474  12.097  0.00  0.00    +0.000 HD
ENDBRANCH  20  23
ENDBRANCH  18  19
ENDBRANCH   4  18
TORSDOF 6
ENDMDL
MODEL 6
REMARK VINA RESULT:    -7.402      1.902      3.138
REMARK INTER + INTRA:         -10.888
REMARK INTER:                  -9.689
REMARK INTRA:                  -1.199
REMARK UNBOUND:                -0.890
REMARK  Name = 
REMARK  7 active torsions:
REMARK  status: ('A' for Active; 'I' for Inactive)
REMARK    1  A    between atoms: C_1  and  N_2
REMARK    2  A    between atoms: N_2  and  C_3
REMARK    3  A    between atoms: C_3  and  C_4
REMARK    4  A    between atoms: C_7  and  C_8
REMARK    5  A    between atoms: C_8  and  N_9
REMARK    6  A    between atoms: C_10  and  C_12
REMARK    7  A    between atoms: C_24  and  C_26
REMARK                            x       y       z     vdW  Elec       q    Type
REMARK                         _______ _______ _______ _____ _____    ______ ____
ROOT
ATOM      1  C   UNL     1      47.343   5.594  13.640  0.00  0.00    +0.000 A 
ATOM      2  C   UNL     1      47.971   6.149  14.768  0.00  0.00    +0.000 A 
ATOM      3  C   UNL     1      48.108   5.408  15.941  0.00  0.00    +0.000 A 
ATOM      4  C   UNL     1      47.631   4.093  16.005  0.00  0.00    +0.000 A 
ATOM      5  C   UNL     1      46.990   3.546  14.886  0.00  0.00    +0.000 A 
ATOM      6  C   UNL     1      46.856   4.285  13.709  0.00  0.00    +0.000 A 
ENDROOT
BRANCH   1   7
ATOM      7  C   UNL     1      47.151   6.420  12.396  0.00  0.00    +0.000 C 
BRANCH   7   9
ATOM      8  C   UNL     1      46.026   8.686  12.601  0.00  0.00    +0.000 C 
ATOM      9  N   UNL     1      45.957   7.263  12.280  0.00  0.00    +0.000 N 
ATOM     10  C   UNL     1      44.785   6.860  11.611  0.00  0.00    +0.000 C 
ATOM     11  O   UNL     1      43.887   7.662  11.341  0.00  0.00    +0.000 OA
BRANCH  10  12
ATOM     12  C   UNL     1      44.583   5.460  11.152  0.00  0.00    +0.000 A 
ATOM     13  C   UNL     1      43.817   4.501  11.814  0.00  0.00    +0.000 A 
ATOM     14  C   UNL     1      43.745   3.201  11.317  0.00  0.00    +0.000 A 
ATOM     15  C   UNL     1      44.386   2.916  10.125  0.00  0.00    +0.000 A 
ATOM     16  N   UNL     1      45.074   3.832   9.413  0.00  0.00    +0.000 NA
ATOM     17  C   UNL     1      45.150   5.084   9.938  0.00  0.00    +0.000 A 
ENDBRANCH  10  12
ENDBRANCH   7   9
ENDBRANCH   1   7
BRANCH   4  18
ATOM     18  C   UNL     1      47.729   3.303  17.282  0.00  0.00    +0.000 C 
BRANCH  18  19
ATOM     19  N   UNL     1      49.110   3.117  17.643  0.00  0.00    +0.000 N 
ATOM     20  C   UNL     1      49.924   2.246  16.972  0.00  0.00    +0.000 C 
ATOM     21  O   UNL     1      49.540   1.618  15.989  0.00  0.00    +0.000 OA
ATOM     22  H   UNL     1      49.387   3.450  18.562  0.00  0.00    +0.000 HD
BRANCH  20  23
ATOM     23  C   UNL     1      51.311   2.162  17.449  0.00  0.00    +0.000 A 
ATOM     24  C   UNL     1      51.898   0.916  17.630  0.00  0.00    +0.000 A 
ATOM     25  S   UNL     1      53.533   0.993  18.109  0.00  0.00    +0.000 S 
ATOM     26  C   UNL     1      53.501   2.694  18.140  0.00  0.00    +0.000 A 
ATOM     27  N   UNL     1      54.606   3.405  18.488  0.00  0.00    +0.000 NA
ATOM     28  C   UNL     1      54.436   4.686  18.499  0.00  0.00    +0.000 A 
ATOM     29  N   UNL     1      53.258   5.318  18.193  0.00  0.00    +0.000 N 
ATOM     30  C   UNL     1      52.123   4.643  17.813  0.00  0.00    +0.000 A 
ATOM     31  O   UNL     1      51.097   5.241  17.514  0.00  0.00    +0.000 OA
ATOM     32  C   UNL     1      52.263   3.199  17.782  0.00  0.00    +0.000 A 
ATOM     33  H   UNL     1      53.188   6.325  18.224  0.00  0.00    +0.000 HD
ENDBRANCH  20  23
ENDBRANCH  18  19
ENDBRANCH   4  18
TORSDOF 6
ENDMDL
MODEL 7
REMARK VINA RESULT:    -7.150      3.640      8.378
REMARK INTER + INTRA:         -10.548
REMARK INTER:                  -8.758
REMARK INTRA:                  -1.790
REMARK UNBOUND:                -0.890
REMARK  Name = 
REMARK  7 active torsions:
REMARK  status: ('A' for Active; 'I' for Inactive)
REMARK    1  A    between atoms: C_1  and  N_2
REMARK    2  A    between atoms: N_2  and  C_3
REMARK    3  A    between atoms: C_3  and  C_4
REMARK    4  A    between atoms: C_7  and  C_8
REMARK    5  A    between atoms: C_8  and  N_9
REMARK    6  A    between atoms: C_10  and  C_12
REMARK    7  A    between atoms: C_24  and  C_26
REMARK                            x       y       z     vdW  Elec       q    Type
REMARK                         _______ _______ _______ _____ _____    ______ ____
ROOT
ATOM      1  C   UNL     1      50.433   6.856  17.749  0.00  0.00    +0.000 A 
ATOM      2  C   UNL     1      50.531   6.552  16.381  0.00  0.00    +0.000 A 
ATOM      3  C   UNL     1      49.802   7.277  15.439  0.00  0.00    +0.000 A 
ATOM      4  C   UNL     1      48.973   8.330  15.846  0.00  0.00    +0.000 A 
ATOM      5  C   UNL     1      48.864   8.622  17.212  0.00  0.00    +0.000 A 
ATOM      6  C   UNL     1      49.595   7.899  18.156  0.00  0.00    +0.000 A 
ENDROOT
BRANCH   1   7
ATOM      7  C   UNL     1      51.180   6.031  18.764  0.00  0.00    +0.000 C 
BRANCH   7   9
ATOM      8  C   UNL     1      50.769   6.176  21.264  0.00  0.00    +0.000 C 
ATOM      9  N   UNL     1      50.476   5.575  19.966  0.00  0.00    +0.000 N 
ATOM     10  C   UNL     1      49.321   4.770  19.930  0.00  0.00    +0.000 C 
ATOM     11  O   UNL     1      48.630   4.586  20.935  0.00  0.00    +0.000 OA
BRANCH  10  12
ATOM     12  C   UNL     1      48.842   4.137  18.673  0.00  0.00    +0.000 A 
ATOM     13  C   UNL     1      47.646   4.443  18.024  0.00  0.00    +0.000 A 
ATOM     14  C   UNL     1      47.274   3.742  16.879  0.00  0.00    +0.000 A 
ATOM     15  C   UNL     1      48.150   2.800  16.370  0.00  0.00    +0.000 A 
ATOM     16  N   UNL     1      49.350   2.527  16.922  0.00  0.00    +0.000 NA
ATOM     17  C   UNL     1      49.672   3.206  18.055  0.00  0.00    +0.000 A 
ENDBRANCH  10  12
ENDBRANCH   7   9
ENDBRANCH   1   7
BRANCH   4  18
ATOM     18  C   UNL     1      48.146   9.086  14.841  0.00  0.00    +0.000 C 
BRANCH  18  19
ATOM     19  N   UNL     1      47.151   8.220  14.267  0.00  0.00    +0.000 N 
ATOM     20  C   UNL     1      47.028   8.052  12.915  0.00  0.00    +0.000 C 
ATOM     21  O   UNL     1      47.795   8.585  12.118  0.00  0.00    +0.000 OA
ATOM     22  H   UNL     1      46.384   7.945  14.875  0.00  0.00    +0.000 HD
BRANCH  20  23
ATOM     23  C   UNL     1      45.970   7.135  12.472  0.00  0.00    +0.000 A 
ATOM     24  C   UNL     1      44.864   7.638  11.799  0.00  0.00    +0.000 A 
ATOM     25  S   UNL     1      43.770   6.437  11.284  0.00  0.00    +0.000 S 
ATOM     26  C   UNL     1      44.709   5.203  11.986  0.00  0.00    +0.000 A 
ATOM     27  N   UNL     1      44.319   3.903  11.912  0.00  0.00    +0.000 NA
ATOM     28  C   UNL     1      45.108   3.073  12.512  0.00  0.00    +0.000 A 
ATOM     29  N   UNL     1      46.251   3.430  13.178  0.00  0.00    +0.000 N 
ATOM     30  C   UNL     1      46.698   4.727  13.259  0.00  0.00    +0.000 A 
ATOM     31  O   UNL     1      47.743   5.006  13.834  0.00  0.00    +0.000 OA
ATOM     32  C   UNL     1      45.847   5.699  12.599  0.00  0.00    +0.000 A 
ATOM     33  H   UNL     1      46.826   2.733  13.631  0.00  0.00    +0.000 HD
ENDBRANCH  20  23
ENDBRANCH  18  19
ENDBRANCH   4  18
TORSDOF 6
ENDMDL
MODEL 8
REMARK VINA RESULT:    -6.973      3.789      9.299
REMARK INTER + INTRA:         -10.308
REMARK INTER:                  -8.782
REMARK INTRA:                  -1.526
REMARK UNBOUND:                -0.890
REMARK  Name = 
REMARK  7 active torsions:
REMARK  status: ('A' for Active; 'I' for Inactive)
REMARK    1  A    between atoms: C_1  and  N_2
REMARK    2  A    between atoms: N_2  and  C_3
REMARK    3  A    between atoms: C_3  and  C_4
REMARK    4  A    between atoms: C_7  and  C_8
REMARK    5  A    between atoms: C_8  and  N_9
REMARK    6  A    between atoms: C_10  and  C_12
REMARK    7  A    between atoms: C_24  and  C_26
REMARK                            x       y       z     vdW  Elec       q    Type
REMARK                         _______ _______ _______ _____ _____    ______ ____
ROOT
ATOM      1  C   UNL     1      49.597   5.484  19.554  0.00  0.00    +0.000 A 
ATOM      2  C   UNL     1      48.230   5.742  19.360  0.00  0.00    +0.000 A 
ATOM      3  C   UNL     1      47.511   5.060  18.378  0.00  0.00    +0.000 A 
ATOM      4  C   UNL     1      48.144   4.097  17.582  0.00  0.00    +0.000 A 
ATOM      5  C   UNL     1      49.511   3.852  17.766  0.00  0.00    +0.000 A 
ATOM      6  C   UNL     1      50.230   4.531  18.751  0.00  0.00    +0.000 A 
ENDROOT
BRANCH   1   7
ATOM      7  C   UNL     1      50.377   6.265  20.579  0.00  0.00    +0.000 C 
BRANCH   7   9
ATOM      8  C   UNL     1      49.874   8.428  21.809  0.00  0.00    +0.000 C 
ATOM      9  N   UNL     1      50.270   7.727  20.590  0.00  0.00    +0.000 N 
ATOM     10  C   UNL     1      50.790   8.551  19.573  0.00  0.00    +0.000 C 
ATOM     11  O   UNL     1      50.880   9.773  19.713  0.00  0.00    +0.000 OA
BRANCH  10  12
ATOM     12  C   UNL     1      51.302   7.992  18.293  0.00  0.00    +0.000 A 
ATOM     13  C   UNL     1      50.553   7.843  17.126  0.00  0.00    +0.000 A 
ATOM     14  C   UNL     1      51.126   7.253  16.000  0.00  0.00    +0.000 A 
ATOM     15  C   UNL     1      52.461   6.895  16.052  0.00  0.00    +0.000 A 
ATOM     16  N   UNL     1      53.241   7.091  17.135  0.00  0.00    +0.000 NA
ATOM     17  C   UNL     1      52.647   7.641  18.226  0.00  0.00    +0.000 A 
ENDBRANCH  10  12
ENDBRANCH   7   9
ENDBRANCH   1   7
BRANCH   4  18
ATOM     18  C   UNL     1      47.388   3.391  16.488  0.00  0.00    +0.000 C 
BRANCH  18  19
ATOM     19  N   UNL     1      46.789   4.353  15.602  0.00  0.00    +0.000 N 
ATOM     20  C   UNL     1      46.779   4.182  14.245  0.00  0.00    +0.000 C 
ATOM     21  O   UNL     1      47.227   3.171  13.710  0.00  0.00    +0.000 OA
ATOM     22  H   UNL     1      46.610   5.276  15.988  0.00  0.00    +0.000 HD
BRANCH  20  23
ATOM     23  C   UNL     1      46.129   5.243  13.464  0.00  0.00    +0.000 A 
ATOM     24  C   UNL     1      46.797   6.441  13.249  0.00  0.00    +0.000 A 
ATOM     25  S   UNL     1      45.941   7.535  12.260  0.00  0.00    +0.000 S 
ATOM     26  C   UNL     1      44.623   6.466  12.125  0.00  0.00    +0.000 A 
ATOM     27  N   UNL     1      43.523   6.804  11.402  0.00  0.00    +0.000 NA
ATOM     28  C   UNL     1      42.585   5.914  11.407  0.00  0.00    +0.000 A 
ATOM     29  N   UNL     1      42.652   4.718  12.072  0.00  0.00    +0.000 N 
ATOM     30  C   UNL     1      43.752   4.322  12.794  0.00  0.00    +0.000 A 
ATOM     31  O   UNL     1      43.791   3.230  13.348  0.00  0.00    +0.000 OA
ATOM     32  C   UNL     1      44.836   5.287  12.818  0.00  0.00    +0.000 A 
ATOM     33  H   UNL     1      41.882   4.064  12.039  0.00  0.00    +0.000 HD
ENDBRANCH  20  23
ENDBRANCH  18  19
ENDBRANCH   4  18
TORSDOF 6
ENDMDL
MODEL 9
REMARK VINA RESULT:    -6.949      3.909      9.623
REMARK INTER + INTRA:         -10.276
REMARK INTER:                  -8.767
REMARK INTRA:                  -1.509
REMARK UNBOUND:                -0.890
REMARK  Name = 
REMARK  7 active torsions:
REMARK  status: ('A' for Active; 'I' for Inactive)
REMARK    1  A    between atoms: C_1  and  N_2
REMARK    2  A    between atoms: N_2  and  C_3
REMARK    3  A    between atoms: C_3  and  C_4
REMARK    4  A    between atoms: C_7  and  C_8
REMARK    5  A    between atoms: C_8  and  N_9
REMARK    6  A    between atoms: C_10  and  C_12
REMARK    7  A    between atoms: C_24  and  C_26
REMARK                            x       y       z     vdW  Elec       q    Type
REMARK                         _______ _______ _______ _____ _____    ______ ____
ROOT
ATOM      1  C   UNL     1      50.455   5.570  18.946  0.00  0.00    +0.000 A 
ATOM      2  C   UNL     1      49.504   4.761  19.591  0.00  0.00    +0.000 A 
ATOM      3  C   UNL     1      48.525   4.092  18.856  0.00  0.00    +0.000 A 
ATOM      4  C   UNL     1      48.487   4.210  17.461  0.00  0.00    +0.000 A 
ATOM      5  C   UNL     1      49.426   5.030  16.821  0.00  0.00    +0.000 A 
ATOM      6  C   UNL     1      50.409   5.696  17.555  0.00  0.00    +0.000 A 
ENDROOT
BRANCH   1   7
ATOM      7  C   UNL     1      51.474   6.331  19.753  0.00  0.00    +0.000 C 
BRANCH   7   9
ATOM      8  C   UNL     1      51.795   6.500  22.265  0.00  0.00    +0.000 C 
ATOM      9  N   UNL     1      51.080   6.887  21.052  0.00  0.00    +0.000 N 
ATOM     10  C   UNL     1      50.222   7.994  21.194  0.00  0.00    +0.000 C 
ATOM     11  O   UNL     1      50.085   8.571  22.276  0.00  0.00    +0.000 OA
BRANCH  10  12
ATOM     12  C   UNL     1      49.470   8.560  20.043  0.00  0.00    +0.000 A 
ATOM     13  C   UNL     1      48.166   8.215  19.688  0.00  0.00    +0.000 A 
ATOM     14  C   UNL     1      47.582   8.771  18.551  0.00  0.00    +0.000 A 
ATOM     15  C   UNL     1      48.297   9.719  17.840  0.00  0.00    +0.000 A 
ATOM     16  N   UNL     1      49.530  10.136  18.192  0.00  0.00    +0.000 NA
ATOM     17  C   UNL     1      50.085   9.555  19.288  0.00  0.00    +0.000 A 
ENDBRANCH  10  12
ENDBRANCH   7   9
ENDBRANCH   1   7
BRANCH   4  18
ATOM     18  C   UNL     1      47.405   3.532  16.665  0.00  0.00    +0.000 C 
BRANCH  18  19
ATOM     19  N   UNL     1      46.828   4.459  15.727  0.00  0.00    +0.000 N 
ATOM     20  C   UNL     1      46.796   4.206  14.383  0.00  0.00    +0.000 C 
ATOM     21  O   UNL     1      47.205   3.150  13.907  0.00  0.00    +0.000 OA
ATOM     22  H   UNL     1      46.684   5.408  16.058  0.00  0.00    +0.000 HD
BRANCH  20  23
ATOM     23  C   UNL     1      46.173   5.240  13.546  0.00  0.00    +0.000 A 
ATOM     24  C   UNL     1      46.865   6.414  13.279  0.00  0.00    +0.000 A 
ATOM     25  S   UNL     1      46.039   7.473  12.230  0.00  0.00    +0.000 S 
ATOM     26  C   UNL     1      44.702   6.424  12.134  0.00  0.00    +0.000 A 
ATOM     27  N   UNL     1      43.615   6.746  11.386  0.00  0.00    +0.000 NA
ATOM     28  C   UNL     1      42.661   5.875  11.425  0.00  0.00    +0.000 A 
ATOM     29  N   UNL     1      42.699   4.711  12.148  0.00  0.00    +0.000 N 
ATOM     30  C   UNL     1      43.785   4.331  12.899  0.00  0.00    +0.000 A 
ATOM     31  O   UNL     1      43.799   3.267  13.506  0.00  0.00    +0.000 OA
ATOM     32  C   UNL     1      44.886   5.276  12.887  0.00  0.00    +0.000 A 
ATOM     33  H   UNL     1      41.917   4.071  12.140  0.00  0.00    +0.000 HD
ENDBRANCH  20  23
ENDBRANCH  18  19
ENDBRANCH   4  18
TORSDOF 6
ENDMDL
