MODEL 1
REMARK VINA RESULT:    -7.348      0.000      0.000
REMARK INTER + INTRA:         -12.740
REMARK INTER:                 -12.074
REMARK INTRA:                  -0.666
REMARK UNBOUND:                -0.666
REMARK  Name = 
REMARK  12 active torsions:
REMARK  status: ('A' for Active; 'I' for Inactive)
REMARK    1  A    between atoms: N_1  and  C_2
REMARK    2  A    between atoms: C_2  and  C_3
REMARK    3  A    between atoms: C_3  and  N_4
REMARK    4  A    between atoms: C_3  and  C_22
REMARK    5  A    between atoms: N_4  and  C_5
REMARK    6  A    between atoms: C_8  and  C_9
REMARK    7  A    between atoms: C_9  and  N_10
REMARK    8  A    between atoms: N_10  and  C_11
REMARK    9  A    between atoms: N_15  and  C_16
REMARK   10  A    between atoms: C_16  and  C_17
REMARK   11  A    between atoms: C_17  and  O_18
REMARK   12  A    between atoms: C_22  and  C_24
REMARK                            x       y       z     vdW  Elec       q    Type
REMARK                         _______ _______ _______ _____ _____    ______ ____
ROOT
ATOM      1  N   UNL     1      47.547   6.237  14.431  0.00  0.00    +0.000 N 
ATOM      2  H   UNL     1      47.906   5.731  15.240  0.00  0.00    +0.000 HD
ENDROOT
BRANCH   1   3
ATOM      3  C   UNL     1      46.572   5.604  13.686  0.00  0.00    +0.000 A 
ATOM      4  C   UNL     1      45.500   6.266  13.094  0.00  0.00    +0.000 A 
ATOM      5  C   UNL     1      44.506   5.553  12.422  0.00  0.00    +0.000 A 
ATOM      6  C   UNL     1      44.583   4.166  12.371  0.00  0.00    +0.000 A 
ATOM      7  N   UNL     1      45.596   3.480  12.953  0.00  0.00    +0.000 NA
ATOM      8  C   UNL     1      46.549   4.209  13.584  0.00  0.00    +0.000 A 
BRANCH   6   9
ATOM      9  C   UNL     1      43.487   3.365  11.693  0.00  0.00    +0.000 C 
BRANCH   9  10
ATOM     10  N   UNL     1      43.976   2.267  10.842  0.00  0.00    +0.000 NA
ATOM     11  H   UNL     1      43.187   1.620  10.744  0.00  0.00    +0.000 HD
BRANCH  10  12
ATOM     12  C   UNL     1      44.388   2.686   9.490  0.00  0.00    +0.000 C 
ATOM     13  C   UNL     1      44.811   4.159   9.421  0.00  0.00    +0.000 C 
ATOM     14  C   UNL     1      45.317   4.498   8.023  0.00  0.00    +0.000 C 
ATOM     15  C   UNL     1      46.427   3.546   7.581  0.00  0.00    +0.000 C 
ATOM     16  N   UNL     1      45.993   2.136   7.635  0.00  0.00    +0.000 NA
ATOM     17  C   UNL     1      45.563   1.793   9.007  0.00  0.00    +0.000 C 
BRANCH  16  18
ATOM     18  C   UNL     1      47.100   1.268   7.169  0.00  0.00    +0.000 C 
BRANCH  18  19
ATOM     19  C   UNL     1      48.343   2.040   6.697  0.00  0.00    +0.000 C 
BRANCH  19  20
ATOM     20  O   UNL     1      48.574   1.821   5.309  0.00  0.00    +0.000 OA
ATOM     21  H   UNL     1      49.546   1.797   5.209  0.00  0.00    +0.000 HD
ENDBRANCH  19  20
ENDBRANCH  18  19
ENDBRANCH  16  18
ENDBRANCH  10  12
ENDBRANCH   9  10
ENDBRANCH   6   9
ENDBRANCH   1   3
BRANCH   1  22
ATOM     22  C   UNL     1      48.360   7.392  13.983  0.00  0.00    +0.000 C 
BRANCH  22  23
ATOM     23  C   UNL     1      49.363   7.780  15.095  0.00  0.00    +0.000 C 
ATOM     24  O   UNL     1      50.556   7.936  14.843  0.00  0.00    +0.000 OA
BRANCH  23  25
ATOM     25  C   UNL     1      48.870   7.879  16.478  0.00  0.00    +0.000 A 
ATOM     26  C   UNL     1      48.287   9.029  16.997  0.00  0.00    +0.000 A 
ATOM     27  S   UNL     1      47.697   8.829  18.590  0.00  0.00    +0.000 S 
ATOM     28  C   UNL     1      48.204   7.204  18.629  0.00  0.00    +0.000 A 
ATOM     29  N   UNL     1      47.963   6.420  19.718  0.00  0.00    +0.000 NA
ATOM     30  C   UNL     1      48.386   5.208  19.599  0.00  0.00    +0.000 A 
ATOM     31  N   UNL     1      49.052   4.713  18.505  0.00  0.00    +0.000 N 
ATOM     32  C   UNL     1      49.424   5.503  17.438  0.00  0.00    +0.000 A 
ATOM     33  O   UNL     1      50.233   5.103  16.605  0.00  0.00    +0.000 OA
ATOM     34  C   UNL     1      48.860   6.839  17.472  0.00  0.00    +0.000 A 
ATOM     35  H   UNL     1      49.429   3.775  18.513  0.00  0.00    +0.000 HD
ENDBRANCH  23  25
ENDBRANCH  22  23
BRANCH  22  36
ATOM     36  C   UNL     1      49.129   7.020  12.697  0.00  0.00    +0.000 C 
BRANCH  36  37
ATOM     37  N   UNL     1      48.641   7.761  11.519  0.00  0.00    +0.000 NA
ATOM     38  H   UNL     1      49.151   8.642  11.448  0.00  0.00    +0.000 HD
ATOM     39  H   UNL     1      48.883   7.229  10.679  0.00  0.00    +0.000 HD
ENDBRANCH  36  37
ENDBRANCH  22  36
ENDBRANCH   1  22
TORSDOF 12
ENDMDL
MODEL 2
REMARK VINA RESULT:    -7.334      2.783      4.029
REMARK INTER + INTRA:         -12.716
REMARK INTER:                 -12.374
REMARK INTRA:                  -0.342
REMARK UNBOUND:                -0.666
REMARK  Name = 
REMARK  12 active torsions:
REMARK  status: ('A' for Active; 'I' for Inactive)
REMARK    1  A    between atoms: N_1  and  C_2
REMARK    2  A    between atoms: C_2  and  C_3
REMARK    3  A    between atoms: C_3  and  N_4
REMARK    4  A    between atoms: C_3  and  C_22
REMARK    5  A    between atoms: N_4  and  C_5
REMARK    6  A    between atoms: C_8  and  C_9
REMARK    7  A    between atoms: C_9  and  N_10
REMARK    8  A    between atoms: N_10  and  C_11
REMARK    9  A    between atoms: N_15  and  C_16
REMARK   10  A    between atoms: C_16  and  C_17
REMARK   11  A    between atoms: C_17  and  O_18
REMARK   12  A    between atoms: C_22  and  C_24
REMARK                            x       y       z     vdW  Elec       q    Type
REMARK                         _______ _______ _______ _____ _____    ______ ____
ROOT
ATOM      1  N   UNL     1      48.504   5.714  15.670  0.00  0.00    +0.000 N 
ATOM      2  H   UNL     1      49.034   6.509  16.027  0.00  0.00    +0.000 HD
ENDROOT
BRANCH   1   3
ATOM      3  C   UNL     1      47.684   5.951  14.586  0.00  0.00    +0.000 A 
ATOM      4  C   UNL     1      47.607   7.175  13.928  0.00  0.00    +0.000 A 
ATOM      5  C   UNL     1      46.695   7.368  12.888  0.00  0.00    +0.000 A 
ATOM      6  C   UNL     1      45.844   6.329  12.530  0.00  0.00    +0.000 A 
ATOM      7  N   UNL     1      45.870   5.129  13.158  0.00  0.00    +0.000 NA
ATOM      8  C   UNL     1      46.779   4.976  14.154  0.00  0.00    +0.000 A 
BRANCH   6   9
ATOM      9  C   UNL     1      44.809   6.532  11.439  0.00  0.00    +0.000 C 
BRANCH   9  10
ATOM     10  N   UNL     1      45.274   6.175  10.087  0.00  0.00    +0.000 NA
ATOM     11  H   UNL     1      46.199   6.607   9.991  0.00  0.00    +0.000 HD
BRANCH  10  12
ATOM     12  C   UNL     1      45.426   4.725   9.862  0.00  0.00    +0.000 C 
ATOM     13  C   UNL     1      44.126   3.944  10.091  0.00  0.00    +0.000 C 
ATOM     14  C   UNL     1      44.328   2.472   9.746  0.00  0.00    +0.000 C 
ATOM     15  C   UNL     1      44.878   2.297   8.332  0.00  0.00    +0.000 C 
ATOM     16  N   UNL     1      46.138   3.041   8.139  0.00  0.00    +0.000 NA
ATOM     17  C   UNL     1      45.923   4.477   8.412  0.00  0.00    +0.000 C 
BRANCH  16  18
ATOM     18  C   UNL     1      46.634   2.808   6.761  0.00  0.00    +0.000 C 
BRANCH  18  19
ATOM     19  C   UNL     1      48.130   2.464   6.685  0.00  0.00    +0.000 C 
BRANCH  19  20
ATOM     20  O   UNL     1      48.420   1.741   5.493  0.00  0.00    +0.000 OA
ATOM     21  H   UNL     1      49.369   1.513   5.552  0.00  0.00    +0.000 HD
ENDBRANCH  19  20
ENDBRANCH  18  19
ENDBRANCH  16  18
ENDBRANCH  10  12
ENDBRANCH   9  10
ENDBRANCH   6   9
ENDBRANCH   1   3
BRANCH   1  22
ATOM     22  C   UNL     1      48.425   4.539  16.570  0.00  0.00    +0.000 C 
BRANCH  22  23
ATOM     23  C   UNL     1      49.291   4.792  17.828  0.00  0.00    +0.000 C 
ATOM     24  O   UNL     1      48.814   5.336  18.823  0.00  0.00    +0.000 OA
BRANCH  23  25
ATOM     25  C   UNL     1      50.719   4.443  17.776  0.00  0.00    +0.000 A 
ATOM     26  C   UNL     1      51.736   5.375  17.937  0.00  0.00    +0.000 A 
ATOM     27  S   UNL     1      53.298   4.677  17.951  0.00  0.00    +0.000 S 
ATOM     28  C   UNL     1      52.657   3.114  17.739  0.00  0.00    +0.000 A 
ATOM     29  N   UNL     1      53.472   2.021  17.706  0.00  0.00    +0.000 NA
ATOM     30  C   UNL     1      52.848   0.903  17.560  0.00  0.00    +0.000 A 
ATOM     31  N   UNL     1      51.488   0.776  17.416  0.00  0.00    +0.000 N 
ATOM     32  C   UNL     1      50.644   1.862  17.320  0.00  0.00    +0.000 A 
ATOM     33  O   UNL     1      49.485   1.730  16.937  0.00  0.00    +0.000 OA
ATOM     34  C   UNL     1      51.285   3.131  17.606  0.00  0.00    +0.000 A 
ATOM     35  H   UNL     1      51.073  -0.126  17.222  0.00  0.00    +0.000 HD
ENDBRANCH  23  25
ENDBRANCH  22  23
BRANCH  22  36
ATOM     36  C   UNL     1      46.959   4.299  16.988  0.00  0.00    +0.000 C 
BRANCH  36  37
ATOM     37  N   UNL     1      46.776   3.007  17.674  0.00  0.00    +0.000 NA
ATOM     38  H   UNL     1      46.010   3.093  18.341  0.00  0.00    +0.000 HD
ATOM     39  H   UNL     1      46.472   2.314  16.985  0.00  0.00    +0.000 HD
ENDBRANCH  36  37
ENDBRANCH  22  36
ENDBRANCH   1  22
TORSDOF 12
ENDMDL
MODEL 3
REMARK VINA RESULT:    -7.264      3.434      9.014
REMARK INTER + INTRA:         -12.601
REMARK INTER:                 -11.528
REMARK INTRA:                  -1.072
REMARK UNBOUND:                -0.666
REMARK  Name = 
REMARK  12 active torsions:
REMARK  status: ('A' for Active; 'I' for Inactive)
REMARK    1  A    between atoms: N_1  and  C_2
REMARK    2  A    between atoms: C_2  and  C_3
REMARK    3  A    between atoms: C_3  and  N_4
REMARK    4  A    between atoms: C_3  and  C_22
REMARK    5  A    between atoms: N_4  and  C_5
REMARK    6  A    between atoms: C_8  and  C_9
REMARK    7  A    between atoms: C_9  and  N_10
REMARK    8  A    between atoms: N_10  and  C_11
REMARK    9  A    between atoms: N_15  and  C_16
REMARK   10  A    between atoms: C_16  and  C_17
REMARK   11  A    between atoms: C_17  and  O_18
REMARK   12  A    between atoms: C_22  and  C_24
REMARK                            x       y       z     vdW  Elec       q    Type
REMARK                         _______ _______ _______ _____ _____    ______ ____
ROOT
ATOM      1  N   UNL     1      46.603   6.184  12.103  0.00  0.00    +0.000 N 
ATOM      2  H   UNL     1      46.765   5.493  11.370  0.00  0.00    +0.000 HD
ENDROOT
BRANCH   1   3
ATOM      3  C   UNL     1      46.998   5.838  13.380  0.00  0.00    +0.000 A 
ATOM      4  C   UNL     1      48.018   6.482  14.074  0.00  0.00    +0.000 A 
ATOM      5  C   UNL     1      48.421   6.028  15.332  0.00  0.00    +0.000 A 
ATOM      6  C   UNL     1      47.807   4.906  15.876  0.00  0.00    +0.000 A 
ATOM      7  N   UNL     1      46.826   4.236  15.225  0.00  0.00    +0.000 NA
ATOM      8  C   UNL     1      46.454   4.716  14.012  0.00  0.00    +0.000 A 
BRANCH   6   9
ATOM      9  C   UNL     1      48.263   4.362  17.217  0.00  0.00    +0.000 C 
BRANCH   9  10
ATOM     10  N   UNL     1      48.806   5.381  18.132  0.00  0.00    +0.000 NA
ATOM     11  H   UNL     1      48.357   5.207  19.037  0.00  0.00    +0.000 HD
BRANCH  10  12
ATOM     12  C   UNL     1      50.265   5.303  18.328  0.00  0.00    +0.000 C 
ATOM     13  C   UNL     1      50.711   5.779  19.716  0.00  0.00    +0.000 C 
ATOM     14  C   UNL     1      52.213   5.579  19.886  0.00  0.00    +0.000 C 
ATOM     15  C   UNL     1      52.623   4.135  19.600  0.00  0.00    +0.000 C 
ATOM     16  N   UNL     1      52.202   3.703  18.253  0.00  0.00    +0.000 NA
ATOM     17  C   UNL     1      50.737   3.839  18.114  0.00  0.00    +0.000 C 
BRANCH  16  18
ATOM     18  C   UNL     1      52.652   2.309  18.027  0.00  0.00    +0.000 C 
BRANCH  18  19
ATOM     19  C   UNL     1      51.567   1.388  17.446  0.00  0.00    +0.000 C 
BRANCH  19  20
ATOM     20  O   UNL     1      51.505   0.164  18.171  0.00  0.00    +0.000 OA
ATOM     21  H   UNL     1      50.894   0.334  18.914  0.00  0.00    +0.000 HD
ENDBRANCH  19  20
ENDBRANCH  18  19
ENDBRANCH  16  18
ENDBRANCH  10  12
ENDBRANCH   9  10
ENDBRANCH   6   9
ENDBRANCH   1   3
BRANCH   1  22
ATOM     22  C   UNL     1      45.669   7.280  11.757  0.00  0.00    +0.000 C 
BRANCH  22  23
ATOM     23  C   UNL     1      44.312   6.682  11.315  0.00  0.00    +0.000 C 
ATOM     24  O   UNL     1      43.345   7.408  11.090  0.00  0.00    +0.000 OA
BRANCH  23  25
ATOM     25  C   UNL     1      44.181   5.218  11.249  0.00  0.00    +0.000 A 
ATOM     26  C   UNL     1      43.502   4.472  12.204  0.00  0.00    +0.000 A 
ATOM     27  S   UNL     1      43.403   2.809  11.818  0.00  0.00    +0.000 S 
ATOM     28  C   UNL     1      44.266   3.040  10.369  0.00  0.00    +0.000 A 
ATOM     29  N   UNL     1      44.501   2.000   9.518  0.00  0.00    +0.000 NA
ATOM     30  C   UNL     1      45.148   2.327   8.453  0.00  0.00    +0.000 A 
ATOM     31  N   UNL     1      45.607   3.590   8.169  0.00  0.00    +0.000 N 
ATOM     32  C   UNL     1      45.499   4.640   9.057  0.00  0.00    +0.000 A 
ATOM     33  O   UNL     1      46.137   5.676   8.893  0.00  0.00    +0.000 OA
ATOM     34  C   UNL     1      44.669   4.350  10.210  0.00  0.00    +0.000 A 
ATOM     35  H   UNL     1      46.181   3.758   7.353  0.00  0.00    +0.000 HD
ENDBRANCH  23  25
ENDBRANCH  22  23
BRANCH  22  36
ATOM     36  C   UNL     1      45.458   8.193  12.984  0.00  0.00    +0.000 C 
BRANCH  36  37
ATOM     37  N   UNL     1      44.890   9.504  12.617  0.00  0.00    +0.000 NA
ATOM     38  H   UNL     1      45.625  10.078  12.206  0.00  0.00    +0.000 HD
ATOM     39  H   UNL     1      44.198   9.361  11.877  0.00  0.00    +0.000 HD
ENDBRANCH  36  37
ENDBRANCH  22  36
ENDBRANCH   1  22
TORSDOF 12
ENDMDL
MODEL 4
REMARK VINA RESULT:    -7.196      4.260      8.639
REMARK INTER + INTRA:         -12.490
REMARK INTER:                 -11.035
REMARK INTRA:                  -1.455
REMARK UNBOUND:                -0.666
REMARK  Name = 
REMARK  12 active torsions:
REMARK  status: ('A' for Active; 'I' for Inactive)
REMARK    1  A    between atoms: N_1  and  C_2
REMARK    2  A    between atoms: C_2  and  C_3
REMARK    3  A    between atoms: C_3  and  N_4
REMARK    4  A    between atoms: C_3  and  C_22
REMARK    5  A    between atoms: N_4  and  C_5
REMARK    6  A    between atoms: C_8  and  C_9
REMARK    7  A    between atoms: C_9  and  N_10
REMARK    8  A    between atoms: N_10  and  C_11
REMARK    9  A    between atoms: N_15  and  C_16
REMARK   10  A    between atoms: C_16  and  C_17
REMARK   11  A    between atoms: C_17  and  O_18
REMARK   12  A    between atoms: C_22  and  C_24
REMARK                            x       y       z     vdW  Elec       q    Type
REMARK                         _______ _______ _______ _____ _____    ______ ____
ROOT
ATOM      1  N   UNL     1      47.087   6.656  13.811  0.00  0.00    +0.000 N 
ATOM      2  H   UNL     1      46.703   7.540  14.144  0.00  0.00    +0.000 HD
ENDROOT
BRANCH   1   3
ATOM      3  C   UNL     1      47.516   5.765  14.774  0.00  0.00    +0.000 A 
ATOM      4  C   UNL     1      48.382   6.103  15.809  0.00  0.00    +0.000 A 
ATOM      5  C   UNL     1      48.839   5.131  16.702  0.00  0.00    +0.000 A 
ATOM      6  C   UNL     1      48.438   3.811  16.531  0.00  0.00    +0.000 A 
ATOM      7  N   UNL     1      47.614   3.434  15.524  0.00  0.00    +0.000 NA
ATOM      8  C   UNL     1      47.181   4.410  14.686  0.00  0.00    +0.000 A 
BRANCH   6   9
ATOM      9  C   UNL     1      48.963   2.728  17.455  0.00  0.00    +0.000 C 
BRANCH   9  10
ATOM     10  N   UNL     1      49.977   1.850  16.845  0.00  0.00    +0.000 NA
ATOM     11  H   UNL     1      49.825   1.914  15.834  0.00  0.00    +0.000 HD
BRANCH  10  12
ATOM     12  C   UNL     1      51.369   2.250  17.122  0.00  0.00    +0.000 C 
ATOM     13  C   UNL     1      51.480   3.330  18.205  0.00  0.00    +0.000 C 
ATOM     14  C   UNL     1      52.945   3.624  18.510  0.00  0.00    +0.000 C 
ATOM     15  C   UNL     1      53.710   2.351  18.869  0.00  0.00    +0.000 C 
ATOM     16  N   UNL     1      53.607   1.332  17.806  0.00  0.00    +0.000 NA
ATOM     17  C   UNL     1      52.187   1.004  17.557  0.00  0.00    +0.000 C 
BRANCH  16  18
ATOM     18  C   UNL     1      54.390   0.138  18.200  0.00  0.00    +0.000 C 
BRANCH  18  19
ATOM     19  C   UNL     1      54.651  -0.847  17.048  0.00  0.00    +0.000 C 
BRANCH  19  20
ATOM     20  O   UNL     1      54.338  -2.179  17.445  0.00  0.00    +0.000 OA
ATOM     21  H   UNL     1      53.378  -2.175  17.629  0.00  0.00    +0.000 HD
ENDBRANCH  19  20
ENDBRANCH  18  19
ENDBRANCH  16  18
ENDBRANCH  10  12
ENDBRANCH   9  10
ENDBRANCH   6   9
ENDBRANCH   1   3
BRANCH   1  22
ATOM     22  C   UNL     1      47.447   6.612  12.375  0.00  0.00    +0.000 C 
BRANCH  22  23
ATOM     23  C   UNL     1      46.183   6.862  11.518  0.00  0.00    +0.000 C 
ATOM     24  O   UNL     1      45.637   7.964  11.504  0.00  0.00    +0.000 OA
BRANCH  23  25
ATOM     25  C   UNL     1      45.600   5.728  10.784  0.00  0.00    +0.000 A 
ATOM     26  C   UNL     1      45.843   5.488   9.437  0.00  0.00    +0.000 A 
ATOM     27  S   UNL     1      45.136   4.037   8.870  0.00  0.00    +0.000 S 
ATOM     28  C   UNL     1      44.486   3.693  10.405  0.00  0.00    +0.000 A 
ATOM     29  N   UNL     1      43.782   2.546  10.627  0.00  0.00    +0.000 NA
ATOM     30  C   UNL     1      43.367   2.410  11.839  0.00  0.00    +0.000 A 
ATOM     31  N   UNL     1      43.565   3.324  12.845  0.00  0.00    +0.000 N 
ATOM     32  C   UNL     1      44.161   4.549  12.632  0.00  0.00    +0.000 A 
ATOM     33  O   UNL     1      44.094   5.440  13.474  0.00  0.00    +0.000 OA
ATOM     34  C   UNL     1      44.755   4.692  11.317  0.00  0.00    +0.000 A 
ATOM     35  H   UNL     1      43.139   3.191  13.753  0.00  0.00    +0.000 HD
ENDBRANCH  23  25
ENDBRANCH  22  23
BRANCH  22  36
ATOM     36  C   UNL     1      48.504   7.693  12.068  0.00  0.00    +0.000 C 
BRANCH  36  37
ATOM     37  N   UNL     1      49.879   7.163  12.117  0.00  0.00    +0.000 NA
ATOM     38  H   UNL     1      49.975   6.429  11.415  0.00  0.00    +0.000 HD
ATOM     39  H   UNL     1      50.524   7.906  11.837  0.00  0.00    +0.000 HD
ENDBRANCH  36  37
ENDBRANCH  22  36
ENDBRANCH   1  22
TORSDOF 12
ENDMDL
MODEL 5
REMARK VINA RESULT:    -7.025      2.192      2.964
REMARK INTER + INTRA:         -12.208
REMARK INTER:                 -11.053
REMARK INTRA:                  -1.155
REMARK UNBOUND:                -0.666
REMARK  Name = 
REMARK  12 active torsions:
REMARK  status: ('A' for Active; 'I' for Inactive)
REMARK    1  A    between atoms: N_1  and  C_2
REMARK    2  A    between atoms: C_2  and  C_3
REMARK    3  A    between atoms: C_3  and  N_4
REMARK    4  A    between atoms: C_3  and  C_22
REMARK    5  A    between atoms: N_4  and  C_5
REMARK    6  A    between atoms: C_8  and  C_9
REMARK    7  A    between atoms: C_9  and  N_10
REMARK    8  A    between atoms: N_10  and  C_11
REMARK    9  A    between atoms: N_15  and  C_16
REMARK   10  A    between atoms: C_16  and  C_17
REMARK   11  A    between atoms: C_17  and  O_18
REMARK   12  A    between atoms: C_22  and  C_24
REMARK                            x       y       z     vdW  Elec       q    Type
REMARK                         _______ _______ _______ _____ _____    ______ ____
ROOT
ATOM      1  N   UNL     1      48.809   6.291  14.843  0.00  0.00    +0.000 N 
ATOM      2  H   UNL     1      49.624   5.740  14.577  0.00  0.00    +0.000 HD
ENDROOT
BRANCH   1   3
ATOM      3  C   UNL     1      47.717   6.230  14.003  0.00  0.00    +0.000 A 
ATOM      4  C   UNL     1      47.283   7.296  13.220  0.00  0.00    +0.000 A 
ATOM      5  C   UNL     1      46.121   7.189  12.453  0.00  0.00    +0.000 A 
ATOM      6  C   UNL     1      45.384   6.012  12.497  0.00  0.00    +0.000 A 
ATOM      7  N   UNL     1      45.757   4.958  13.262  0.00  0.00    +0.000 NA
ATOM      8  C   UNL     1      46.899   5.095  13.982  0.00  0.00    +0.000 A 
BRANCH   6   9
ATOM      9  C   UNL     1      44.090   5.891  11.714  0.00  0.00    +0.000 C 
BRANCH   9  10
ATOM     10  N   UNL     1      44.273   5.684  10.267  0.00  0.00    +0.000 NA
ATOM     11  H   UNL     1      44.844   6.472   9.946  0.00  0.00    +0.000 HD
BRANCH  10  12
ATOM     12  C   UNL     1      44.984   4.440   9.919  0.00  0.00    +0.000 C 
ATOM     13  C   UNL     1      44.073   3.205   9.930  0.00  0.00    +0.000 C 
ATOM     14  C   UNL     1      44.846   1.975   9.466  0.00  0.00    +0.000 C 
ATOM     15  C   UNL     1      45.508   2.206   8.109  0.00  0.00    +0.000 C 
ATOM     16  N   UNL     1      46.394   3.386   8.126  0.00  0.00    +0.000 NA
ATOM     17  C   UNL     1      45.627   4.588   8.514  0.00  0.00    +0.000 C 
BRANCH  16  18
ATOM     18  C   UNL     1      47.026   3.538   6.793  0.00  0.00    +0.000 C 
BRANCH  18  19
ATOM     19  C   UNL     1      47.195   2.216   6.027  0.00  0.00    +0.000 C 
BRANCH  19  20
ATOM     20  O   UNL     1      48.572   1.863   5.932  0.00  0.00    +0.000 OA
ATOM     21  H   UNL     1      49.044   2.510   6.494  0.00  0.00    +0.000 HD
ENDBRANCH  19  20
ENDBRANCH  18  19
ENDBRANCH  16  18
ENDBRANCH  10  12
ENDBRANCH   9  10
ENDBRANCH   6   9
ENDBRANCH   1   3
BRANCH   1  22
ATOM     22  C   UNL     1      49.045   7.327  15.876  0.00  0.00    +0.000 C 
BRANCH  22  23
ATOM     23  C   UNL     1      48.825   6.716  17.281  0.00  0.00    +0.000 C 
ATOM     24  O   UNL     1      48.862   7.420  18.289  0.00  0.00    +0.000 OA
BRANCH  23  25
ATOM     25  C   UNL     1      48.654   5.259  17.390  0.00  0.00    +0.000 A 
ATOM     26  C   UNL     1      47.411   4.639  17.408  0.00  0.00    +0.000 A 
ATOM     27  S   UNL     1      47.507   2.931  17.422  0.00  0.00    +0.000 S 
ATOM     28  C   UNL     1      49.209   2.975  17.408  0.00  0.00    +0.000 A 
ATOM     29  N   UNL     1      49.939   1.824  17.371  0.00  0.00    +0.000 NA
ATOM     30  C   UNL     1      51.214   2.010  17.344  0.00  0.00    +0.000 A 
ATOM     31  N   UNL     1      51.829   3.238  17.378  0.00  0.00    +0.000 N 
ATOM     32  C   UNL     1      51.133   4.417  17.540  0.00  0.00    +0.000 A 
ATOM     33  O   UNL     1      51.713   5.461  17.825  0.00  0.00    +0.000 OA
ATOM     34  C   UNL     1      49.693   4.265  17.447  0.00  0.00    +0.000 A 
ATOM     35  H   UNL     1      52.837   3.307  17.439  0.00  0.00    +0.000 HD
ENDBRANCH  23  25
ENDBRANCH  22  23
BRANCH  22  36
ATOM     36  C   UNL     1      50.489   7.860  15.762  0.00  0.00    +0.000 C 
BRANCH  36  37
ATOM     37  N   UNL     1      51.053   7.664  14.413  0.00  0.00    +0.000 NA
ATOM     38  H   UNL     1      52.068   7.745  14.465  0.00  0.00    +0.000 HD
ATOM     39  H   UNL     1      50.863   6.703  14.118  0.00  0.00    +0.000 HD
ENDBRANCH  36  37
ENDBRANCH  22  36
ENDBRANCH   1  22
TORSDOF 12
ENDMDL
MODEL 6
REMARK VINA RESULT:    -6.974      1.867      2.384
REMARK INTER + INTRA:         -12.124
REMARK INTER:                 -10.691
REMARK INTRA:                  -1.433
REMARK UNBOUND:                -0.666
REMARK  Name = 
REMARK  12 active torsions:
REMARK  status: ('A' for Active; 'I' for Inactive)
REMARK    1  A    between atoms: N_1  and  C_2
REMARK    2  A    between atoms: C_2  and  C_3
REMARK    3  A    between atoms: C_3  and  N_4
REMARK    4  A    between atoms: C_3  and  C_22
REMARK    5  A    between atoms: N_4  and  C_5
REMARK    6  A    between atoms: C_8  and  C_9
REMARK    7  A    between atoms: C_9  and  N_10
REMARK    8  A    between atoms: N_10  and  C_11
REMARK    9  A    between atoms: N_15  and  C_16
REMARK   10  A    between atoms: C_16  and  C_17
REMARK   11  A    between atoms: C_17  and  O_18
REMARK   12  A    between atoms: C_22  and  C_24
REMARK                            x       y       z     vdW  Elec       q    Type
REMARK                         _______ _______ _______ _____ _____    ______ ____
ROOT
ATOM      1  N   UNL     1      48.226   7.223  13.304  0.00  0.00    +0.000 N 
ATOM      2  H   UNL     1      49.019   7.507  12.730  0.00  0.00    +0.000 HD
ENDROOT
BRANCH   1   3
ATOM      3  C   UNL     1      47.112   6.757  12.635  0.00  0.00    +0.000 A 
ATOM      4  C   UNL     1      46.297   7.556  11.839  0.00  0.00    +0.000 A 
ATOM      5  C   UNL     1      45.139   7.037  11.257  0.00  0.00    +0.000 A 
ATOM      6  C   UNL     1      44.792   5.713  11.501  0.00  0.00    +0.000 A 
ATOM      7  N   UNL     1      45.544   4.906  12.287  0.00  0.00    +0.000 NA
ATOM      8  C   UNL     1      46.668   5.443  12.823  0.00  0.00    +0.000 A 
BRANCH   6   9
ATOM      9  C   UNL     1      43.511   5.141  10.923  0.00  0.00    +0.000 C 
BRANCH   9  10
ATOM     10  N   UNL     1      43.629   4.676   9.530  0.00  0.00    +0.000 NA
ATOM     11  H   UNL     1      43.803   5.518   8.972  0.00  0.00    +0.000 HD
BRANCH  10  12
ATOM     12  C   UNL     1      44.744   3.739   9.297  0.00  0.00    +0.000 C 
ATOM     13  C   UNL     1      44.289   2.278   9.199  0.00  0.00    +0.000 C 
ATOM     14  C   UNL     1      45.473   1.378   8.860  0.00  0.00    +0.000 C 
ATOM     15  C   UNL     1      46.198   1.854   7.602  0.00  0.00    +0.000 C 
ATOM     16  N   UNL     1      46.644   3.256   7.725  0.00  0.00    +0.000 NA
ATOM     17  C   UNL     1      45.484   4.134   7.990  0.00  0.00    +0.000 C 
BRANCH  16  18
ATOM     18  C   UNL     1      47.362   3.648   6.488  0.00  0.00    +0.000 C 
BRANCH  18  19
ATOM     19  C   UNL     1      47.323   2.583   5.379  0.00  0.00    +0.000 C 
BRANCH  19  20
ATOM     20  O   UNL     1      48.563   1.887   5.308  0.00  0.00    +0.000 OA
ATOM     21  H   UNL     1      49.246   2.551   5.525  0.00  0.00    +0.000 HD
ENDBRANCH  19  20
ENDBRANCH  18  19
ENDBRANCH  16  18
ENDBRANCH  10  12
ENDBRANCH   9  10
ENDBRANCH   6   9
ENDBRANCH   1   3
BRANCH   1  22
ATOM     22  C   UNL     1      48.258   7.677  14.714  0.00  0.00    +0.000 C 
BRANCH  22  23
ATOM     23  C   UNL     1      49.231   6.785  15.522  0.00  0.00    +0.000 C 
ATOM     24  O   UNL     1      50.438   6.795  15.288  0.00  0.00    +0.000 OA
BRANCH  23  25
ATOM     25  C   UNL     1      48.668   5.863  16.521  0.00  0.00    +0.000 A 
ATOM     26  C   UNL     1      47.842   4.796  16.191  0.00  0.00    +0.000 A 
ATOM     27  S   UNL     1      47.430   3.819  17.533  0.00  0.00    +0.000 S 
ATOM     28  C   UNL     1      48.341   4.795  18.589  0.00  0.00    +0.000 A 
ATOM     29  N   UNL     1      48.449   4.485  19.913  0.00  0.00    +0.000 NA
ATOM     30  C   UNL     1      49.184   5.301  20.587  0.00  0.00    +0.000 A 
ATOM     31  N   UNL     1      49.801   6.413  20.068  0.00  0.00    +0.000 N 
ATOM     32  C   UNL     1      49.617   6.830  18.766  0.00  0.00    +0.000 A 
ATOM     33  O   UNL     1      49.964   7.951  18.405  0.00  0.00    +0.000 OA
ATOM     34  C   UNL     1      48.902   5.876  17.941  0.00  0.00    +0.000 A 
ATOM     35  H   UNL     1      50.296   7.056  20.672  0.00  0.00    +0.000 HD
ENDBRANCH  23  25
ENDBRANCH  22  23
BRANCH  22  36
ATOM     36  C   UNL     1      48.724   9.146  14.778  0.00  0.00    +0.000 C 
BRANCH  36  37
ATOM     37  N   UNL     1      49.342   9.482  16.075  0.00  0.00    +0.000 NA
ATOM     38  H   UNL     1      50.269   9.059  16.118  0.00  0.00    +0.000 HD
ATOM     39  H   UNL     1      49.492  10.493  16.110  0.00  0.00    +0.000 HD
ENDBRANCH  36  37
ENDBRANCH  22  36
ENDBRANCH   1  22
TORSDOF 12
ENDMDL
MODEL 7
REMARK VINA RESULT:    -6.936      1.607      2.385
REMARK INTER + INTRA:         -12.062
REMARK INTER:                 -10.266
REMARK INTRA:                  -1.796
REMARK UNBOUND:                -0.666
REMARK  Name = 
REMARK  12 active torsions:
REMARK  status: ('A' for Active; 'I' for Inactive)
REMARK    1  A    between atoms: N_1  and  C_2
REMARK    2  A    between atoms: C_2  and  C_3
REMARK    3  A    between atoms: C_3  and  N_4
REMARK    4  A    between atoms: C_3  and  C_22
REMARK    5  A    between atoms: N_4  and  C_5
REMARK    6  A    between atoms: C_8  and  C_9
REMARK    7  A    between atoms: C_9  and  N_10
REMARK    8  A    between atoms: N_10  and  C_11
REMARK    9  A    between atoms: N_15  and  C_16
REMARK   10  A    between atoms: C_16  and  C_17
REMARK   11  A    between atoms: C_17  and  O_18
REMARK   12  A    between atoms: C_22  and  C_24
REMARK                            x       y       z     vdW  Elec       q    Type
REMARK                         _______ _______ _______ _____ _____    ______ ____
ROOT
ATOM      1  N   UNL     1      49.899   7.222  14.144  0.00  0.00    +0.000 N 
ATOM      2  H   UNL     1      50.610   6.549  13.857  0.00  0.00    +0.000 HD
ENDROOT
BRANCH   1   3
ATOM      3  C   UNL     1      48.625   7.028  13.650  0.00  0.00    +0.000 A 
ATOM      4  C   UNL     1      47.854   5.902  13.921  0.00  0.00    +0.000 A 
ATOM      5  C   UNL     1      46.604   5.733  13.322  0.00  0.00    +0.000 A 
ATOM      6  C   UNL     1      46.145   6.694  12.428  0.00  0.00    +0.000 A 
ATOM      7  N   UNL     1      46.872   7.794  12.118  0.00  0.00    +0.000 NA
ATOM      8  C   UNL     1      48.075   7.928  12.731  0.00  0.00    +0.000 A 
BRANCH   6   9
ATOM      9  C   UNL     1      44.814   6.507  11.724  0.00  0.00    +0.000 C 
BRANCH   9  10
ATOM     10  N   UNL     1      44.926   6.180  10.292  0.00  0.00    +0.000 NA
ATOM     11  H   UNL     1      45.690   6.762   9.935  0.00  0.00    +0.000 HD
BRANCH  10  12
ATOM     12  C   UNL     1      45.265   4.771  10.018  0.00  0.00    +0.000 C 
ATOM     13  C   UNL     1      44.077   3.819  10.211  0.00  0.00    +0.000 C 
ATOM     14  C   UNL     1      44.469   2.399   9.817  0.00  0.00    +0.000 C 
ATOM     15  C   UNL     1      45.041   2.347   8.401  0.00  0.00    +0.000 C 
ATOM     16  N   UNL     1      46.194   3.254   8.243  0.00  0.00    +0.000 NA
ATOM     17  C   UNL     1      45.794   4.640   8.564  0.00  0.00    +0.000 C 
BRANCH  16  18
ATOM     18  C   UNL     1      46.719   3.136   6.861  0.00  0.00    +0.000 C 
BRANCH  18  19
ATOM     19  C   UNL     1      47.257   1.737   6.515  0.00  0.00    +0.000 C 
BRANCH  19  20
ATOM     20  O   UNL     1      48.468   1.835   5.771  0.00  0.00    +0.000 OA
ATOM     21  H   UNL     1      48.768   2.758   5.886  0.00  0.00    +0.000 HD
ENDBRANCH  19  20
ENDBRANCH  18  19
ENDBRANCH  16  18
ENDBRANCH  10  12
ENDBRANCH   9  10
ENDBRANCH   6   9
ENDBRANCH   1   3
BRANCH   1  22
ATOM     22  C   UNL     1      50.409   8.477  14.744  0.00  0.00    +0.000 C 
BRANCH  22  23
ATOM     23  C   UNL     1      50.921   8.193  16.177  0.00  0.00    +0.000 C 
ATOM     24  O   UNL     1      52.098   7.900  16.380  0.00  0.00    +0.000 OA
BRANCH  23  25
ATOM     25  C   UNL     1      49.950   8.201  17.281  0.00  0.00    +0.000 A 
ATOM     26  C   UNL     1      49.680   9.328  18.049  0.00  0.00    +0.000 A 
ATOM     27  S   UNL     1      48.424   9.088  19.185  0.00  0.00    +0.000 S 
ATOM     28  C   UNL     1      48.209   7.475  18.684  0.00  0.00    +0.000 A 
ATOM     29  N   UNL     1      47.238   6.693  19.237  0.00  0.00    +0.000 NA
ATOM     30  C   UNL     1      47.179   5.502  18.747  0.00  0.00    +0.000 A 
ATOM     31  N   UNL     1      48.015   5.011  17.775  0.00  0.00    +0.000 N 
ATOM     32  C   UNL     1      49.085   5.726  17.280  0.00  0.00    +0.000 A 
ATOM     33  O   UNL     1      49.959   5.178  16.614  0.00  0.00    +0.000 OA
ATOM     34  C   UNL     1      49.114   7.111  17.709  0.00  0.00    +0.000 A 
ATOM     35  H   UNL     1      47.966   4.039  17.497  0.00  0.00    +0.000 HD
ENDBRANCH  23  25
ENDBRANCH  22  23
BRANCH  22  36
ATOM     36  C   UNL     1      51.560   9.037  13.883  0.00  0.00    +0.000 C 
BRANCH  36  37
ATOM     37  N   UNL     1      52.368   7.970  13.264  0.00  0.00    +0.000 NA
ATOM     38  H   UNL     1      53.062   7.649  13.938  0.00  0.00    +0.000 HD
ATOM     39  H   UNL     1      51.761   7.168  13.081  0.00  0.00    +0.000 HD
ENDBRANCH  36  37
ENDBRANCH  22  36
ENDBRANCH   1  22
TORSDOF 12
ENDMDL
MODEL 8
REMARK VINA RESULT:    -6.837      2.107      3.549
REMARK INTER + INTRA:         -11.900
REMARK INTER:                  -9.926
REMARK INTRA:                  -1.974
REMARK UNBOUND:                -0.666
REMARK  Name = 
REMARK  12 active torsions:
REMARK  status: ('A' for Active; 'I' for Inactive)
REMARK    1  A    between atoms: N_1  and  C_2
REMARK    2  A    between atoms: C_2  and  C_3
REMARK    3  A    between atoms: C_3  and  N_4
REMARK    4  A    between atoms: C_3  and  C_22
REMARK    5  A    between atoms: N_4  and  C_5
REMARK    6  A    between atoms: C_8  and  C_9
REMARK    7  A    between atoms: C_9  and  N_10
REMARK    8  A    between atoms: N_10  and  C_11
REMARK    9  A    between atoms: N_15  and  C_16
REMARK   10  A    between atoms: C_16  and  C_17
REMARK   11  A    between atoms: C_17  and  O_18
REMARK   12  A    between atoms: C_22  and  C_24
REMARK                            x       y       z     vdW  Elec       q    Type
REMARK                         _______ _______ _______ _____ _____    ______ ____
ROOT
ATOM      1  N   UNL     1      50.443   7.258  14.307  0.00  0.00    +0.000 N 
ATOM      2  H   UNL     1      51.056   6.606  13.817  0.00  0.00    +0.000 HD
ENDROOT
BRANCH   1   3
ATOM      3  C   UNL     1      49.229   7.535  13.711  0.00  0.00    +0.000 A 
ATOM      4  C   UNL     1      48.201   8.233  14.338  0.00  0.00    +0.000 A 
ATOM      5  C   UNL     1      46.969   8.408  13.705  0.00  0.00    +0.000 A 
ATOM      6  C   UNL     1      46.768   7.853  12.447  0.00  0.00    +0.000 A 
ATOM      7  N   UNL     1      47.733   7.147  11.810  0.00  0.00    +0.000 NA
ATOM      8  C   UNL     1      48.920   7.011  12.451  0.00  0.00    +0.000 A 
BRANCH   6   9
ATOM      9  C   UNL     1      45.420   7.983  11.761  0.00  0.00    +0.000 C 
BRANCH   9  10
ATOM     10  N   UNL     1      44.333   7.234  12.415  0.00  0.00    +0.000 NA
ATOM     11  H   UNL     1      43.475   7.512  11.929  0.00  0.00    +0.000 HD
BRANCH  10  12
ATOM     12  C   UNL     1      44.459   5.768  12.308  0.00  0.00    +0.000 C 
ATOM     13  C   UNL     1      43.296   5.016  12.965  0.00  0.00    +0.000 C 
ATOM     14  C   UNL     1      43.438   3.515  12.732  0.00  0.00    +0.000 C 
ATOM     15  C   UNL     1      43.585   3.189  11.247  0.00  0.00    +0.000 C 
ATOM     16  N   UNL     1      44.721   3.908  10.638  0.00  0.00    +0.000 NA
ATOM     17  C   UNL     1      44.548   5.366  10.811  0.00  0.00    +0.000 C 
BRANCH  16  18
ATOM     18  C   UNL     1      44.827   3.528   9.209  0.00  0.00    +0.000 C 
BRANCH  18  19
ATOM     19  C   UNL     1      45.041   2.024   8.977  0.00  0.00    +0.000 C 
BRANCH  19  20
ATOM     20  O   UNL     1      46.247   1.794   8.254  0.00  0.00    +0.000 OA
ATOM     21  H   UNL     1      46.697   1.066   8.727  0.00  0.00    +0.000 HD
ENDBRANCH  19  20
ENDBRANCH  18  19
ENDBRANCH  16  18
ENDBRANCH  10  12
ENDBRANCH   9  10
ENDBRANCH   6   9
ENDBRANCH   1   3
BRANCH   1  22
ATOM     22  C   UNL     1      51.081   8.062  15.375  0.00  0.00    +0.000 C 
BRANCH  22  23
ATOM     23  C   UNL     1      51.467   7.139  16.556  0.00  0.00    +0.000 C 
ATOM     24  O   UNL     1      52.397   6.341  16.456  0.00  0.00    +0.000 OA
BRANCH  23  25
ATOM     25  C   UNL     1      50.642   7.179  17.773  0.00  0.00    +0.000 A 
ATOM     26  C   UNL     1      50.980   7.923  18.897  0.00  0.00    +0.000 A 
ATOM     27  S   UNL     1      49.785   7.883  20.120  0.00  0.00    +0.000 S 
ATOM     28  C   UNL     1      48.787   6.870  19.184  0.00  0.00    +0.000 A 
ATOM     29  N   UNL     1      47.561   6.480  19.637  0.00  0.00    +0.000 NA
ATOM     30  C   UNL     1      46.910   5.731  18.816  0.00  0.00    +0.000 A 
ATOM     31  N   UNL     1      47.378   5.313  17.594  0.00  0.00    +0.000 N 
ATOM     32  C   UNL     1      48.656   5.583  17.153  0.00  0.00    +0.000 A 
ATOM     33  O   UNL     1      49.132   4.989  16.189  0.00  0.00    +0.000 OA
ATOM     34  C   UNL     1      49.378   6.525  17.986  0.00  0.00    +0.000 A 
ATOM     35  H   UNL     1      46.846   4.658  17.036  0.00  0.00    +0.000 HD
ENDBRANCH  23  25
ENDBRANCH  22  23
BRANCH  22  36
ATOM     36  C   UNL     1      52.345   8.753  14.822  0.00  0.00    +0.000 C 
BRANCH  36  37
ATOM     37  N   UNL     1      53.154   7.853  13.979  0.00  0.00    +0.000 NA
ATOM     38  H   UNL     1      52.648   7.668  13.114  0.00  0.00    +0.000 HD
ATOM     39  H   UNL     1      54.009   8.345  13.706  0.00  0.00    +0.000 HD
ENDBRANCH  36  37
ENDBRANCH  22  36
ENDBRANCH   1  22
TORSDOF 12
ENDMDL
MODEL 9
REMARK VINA RESULT:    -6.679      2.553      4.791
REMARK INTER + INTRA:         -11.641
REMARK INTER:                  -9.819
REMARK INTRA:                  -1.821
REMARK UNBOUND:                -0.666
REMARK  Name = 
REMARK  12 active torsions:
REMARK  status: ('A' for Active; 'I' for Inactive)
REMARK    1  A    between atoms: N_1  and  C_2
REMARK    2  A    between atoms: C_2  and  C_3
REMARK    3  A    between atoms: C_3  and  N_4
REMARK    4  A    between atoms: C_3  and  C_22
REMARK    5  A    between atoms: N_4  and  C_5
REMARK    6  A    between atoms: C_8  and  C_9
REMARK    7  A    between atoms: C_9  and  N_10
REMARK    8  A    between atoms: N_10  and  C_11
REMARK    9  A    between atoms: N_15  and  C_16
REMARK   10  A    between atoms: C_16  and  C_17
REMARK   11  A    between atoms: C_17  and  O_18
REMARK   12  A    between atoms: C_22  and  C_24
REMARK                            x       y       z     vdW  Elec       q    Type
REMARK                         _______ _______ _______ _____ _____    ______ ____
ROOT
ATOM      1  N   UNL     1      49.292   7.433  17.489  0.00  0.00    +0.000 N 
ATOM      2  H   UNL     1      50.295   7.415  17.670  0.00  0.00    +0.000 HD
ENDROOT
BRANCH   1   3
ATOM      3  C   UNL     1      48.901   7.583  16.174  0.00  0.00    +0.000 A 
ATOM      4  C   UNL     1      48.337   8.749  15.663  0.00  0.00    +0.000 A 
ATOM      5  C   UNL     1      47.890   8.804  14.342  0.00  0.00    +0.000 A 
ATOM      6  C   UNL     1      47.990   7.670  13.544  0.00  0.00    +0.000 A 
ATOM      7  N   UNL     1      48.510   6.509  14.007  0.00  0.00    +0.000 NA
ATOM      8  C   UNL     1      48.947   6.499  15.291  0.00  0.00    +0.000 A 
BRANCH   6   9
ATOM      9  C   UNL     1      47.462   7.689  12.121  0.00  0.00    +0.000 C 
BRANCH   9  10
ATOM     10  N   UNL     1      46.007   7.486  12.012  0.00  0.00    +0.000 NA
ATOM     11  H   UNL     1      45.738   7.889  11.109  0.00  0.00    +0.000 HD
BRANCH  10  12
ATOM     12  C   UNL     1      45.591   6.071  12.018  0.00  0.00    +0.000 C 
ATOM     13  C   UNL     1      44.342   5.815  12.871  0.00  0.00    +0.000 C 
ATOM     14  C   UNL     1      43.912   4.357  12.752  0.00  0.00    +0.000 C 
ATOM     15  C   UNL     1      43.722   3.944  11.294  0.00  0.00    +0.000 C 
ATOM     16  N   UNL     1      44.941   4.180  10.496  0.00  0.00    +0.000 NA
ATOM     17  C   UNL     1      45.320   5.607  10.561  0.00  0.00    +0.000 C 
BRANCH  16  18
ATOM     18  C   UNL     1      44.704   3.734   9.102  0.00  0.00    +0.000 C 
BRANCH  18  19
ATOM     19  C   UNL     1      45.443   2.439   8.726  0.00  0.00    +0.000 C 
BRANCH  19  20
ATOM     20  O   UNL     1      44.694   1.297   9.133  0.00  0.00    +0.000 OA
ATOM     21  H   UNL     1      44.785   0.654   8.402  0.00  0.00    +0.000 HD
ENDBRANCH  19  20
ENDBRANCH  18  19
ENDBRANCH  16  18
ENDBRANCH  10  12
ENDBRANCH   9  10
ENDBRANCH   6   9
ENDBRANCH   1   3
BRANCH   1  22
ATOM     22  C   UNL     1      48.430   7.649  18.675  0.00  0.00    +0.000 C 
BRANCH  22  23
ATOM     23  C   UNL     1      48.140   6.290  19.357  0.00  0.00    +0.000 C 
ATOM     24  O   UNL     1      47.882   6.229  20.558  0.00  0.00    +0.000 OA
BRANCH  23  25
ATOM     25  C   UNL     1      48.262   5.064  18.553  0.00  0.00    +0.000 A 
ATOM     26  C   UNL     1      47.217   4.541  17.801  0.00  0.00    +0.000 A 
ATOM     27  S   UNL     1      47.669   3.178  16.871  0.00  0.00    +0.000 S 
ATOM     28  C   UNL     1      49.269   3.249  17.450  0.00  0.00    +0.000 A 
ATOM     29  N   UNL     1      50.213   2.369  17.010  0.00  0.00    +0.000 NA
ATOM     30  C   UNL     1      51.382   2.553  17.519  0.00  0.00    +0.000 A 
ATOM     31  N   UNL     1      51.691   3.517  18.447  0.00  0.00    +0.000 N 
ATOM     32  C   UNL     1      50.741   4.344  19.009  0.00  0.00    +0.000 A 
ATOM     33  O   UNL     1      50.993   5.009  20.010  0.00  0.00    +0.000 OA
ATOM     34  C   UNL     1      49.440   4.257  18.375  0.00  0.00    +0.000 A 
ATOM     35  H   UNL     1      52.611   3.552  18.866  0.00  0.00    +0.000 HD
ENDBRANCH  23  25
ENDBRANCH  22  23
BRANCH  22  36
ATOM     36  C   UNL     1      49.139   8.589  19.671  0.00  0.00    +0.000 C 
BRANCH  36  37
ATOM     37  N   UNL     1      50.355   7.983  20.246  0.00  0.00    +0.000 NA
ATOM     38  H   UNL     1      50.924   8.719  20.663  0.00  0.00    +0.000 HD
ATOM     39  H   UNL     1      50.078   7.370  21.017  0.00  0.00    +0.000 HD
ENDBRANCH  36  37
ENDBRANCH  22  36
ENDBRANCH   1  22
TORSDOF 12
ENDMDL
