MODEL 1
REMARK VINA RESULT:    -8.066      0.000      0.000
REMARK INTER + INTRA:         -11.949
REMARK INTER:                 -10.895
REMARK INTRA:                  -1.054
REMARK UNBOUND:                -1.054
REMARK  Name = 
REMARK  6 active torsions:
REMARK  status: ('A' for Active; 'I' for Inactive)
REMARK    1  A    between atoms: C_2  and  C_4
REMARK    2  A    between atoms: C_8  and  C_9
REMARK    3  A    between atoms: C_9  and  C_10
REMARK    4  A    between atoms: C_13  and  C_14
REMARK    5  A    between atoms: C_14  and  N_15
REMARK    6  A    between atoms: C_16  and  C_18
REMARK                            x       y       z     vdW  Elec       q    Type
REMARK                         _______ _______ _______ _____ _____    ______ ____
ROOT
ATOM      1  C   UNL     1      44.804   6.091  11.035  0.00  0.00    +0.000 A 
ATOM      2  C   UNL     1      46.048   5.556  11.362  0.00  0.00    +0.000 A 
ATOM      3  C   UNL     1      46.902   6.284  12.190  0.00  0.00    +0.000 A 
ATOM      4  C   UNL     1      46.517   7.542  12.660  0.00  0.00    +0.000 A 
ATOM      5  C   UNL     1      45.272   8.007  12.254  0.00  0.00    +0.000 A 
ATOM      6  N   UNL     1      44.416   7.323  11.458  0.00  0.00    +0.000 NA
ENDROOT
BRANCH   1   7
ATOM      7  C   UNL     1      43.778   5.253  10.297  0.00  0.00    +0.000 C 
BRANCH   7  12
ATOM      8  C   UNL     1      45.937   3.189   7.903  0.00  0.00    +0.000 A 
ATOM      9  C   UNL     1      45.723   1.892   8.384  0.00  0.00    +0.000 A 
ATOM     10  C   UNL     1      44.815   1.677   9.418  0.00  0.00    +0.000 A 
ATOM     11  C   UNL     1      44.147   2.758   9.995  0.00  0.00    +0.000 A 
ATOM     12  C   UNL     1      44.404   4.073   9.575  0.00  0.00    +0.000 A 
ATOM     13  C   UNL     1      45.288   4.276   8.505  0.00  0.00    +0.000 A 
BRANCH   8  15
ATOM     14  N   UNL     1      48.088   2.832   6.825  0.00  0.00    +0.000 N 
ATOM     15  C   UNL     1      46.871   3.453   6.777  0.00  0.00    +0.000 C 
ATOM     16  O   UNL     1      46.555   4.161   5.831  0.00  0.00    +0.000 OA
ATOM     17  H   UNL     1      48.665   2.918   5.996  0.00  0.00    +0.000 HD
ATOM     18  H   UNL     1      48.266   2.048   7.435  0.00  0.00    +0.000 HD
ENDBRANCH   8  15
ENDBRANCH   7  12
ENDBRANCH   1   7
BRANCH   4  19
ATOM     19  C   UNL     1      47.369   8.335  13.611  0.00  0.00    +0.000 C 
BRANCH  19  20
ATOM     20  N   UNL     1      47.731   7.552  14.767  0.00  0.00    +0.000 N 
ATOM     21  C   UNL     1      49.009   7.087  14.964  0.00  0.00    +0.000 C 
ATOM     22  O   UNL     1      49.928   7.340  14.193  0.00  0.00    +0.000 OA
ATOM     23  H   UNL     1      46.969   7.095  15.256  0.00  0.00    +0.000 HD
BRANCH  21  24
ATOM     24  C   UNL     1      49.226   6.328  16.204  0.00  0.00    +0.000 A 
ATOM     25  C   UNL     1      50.200   6.724  17.114  0.00  0.00    +0.000 A 
ATOM     26  S   UNL     1      50.233   5.779  18.535  0.00  0.00    +0.000 S 
ATOM     27  C   UNL     1      48.988   4.769  17.963  0.00  0.00    +0.000 A 
ATOM     28  N   UNL     1      48.532   3.723  18.703  0.00  0.00    +0.000 NA
ATOM     29  C   UNL     1      47.606   3.028  18.133  0.00  0.00    +0.000 A 
ATOM     30  N   UNL     1      47.091   3.287  16.887  0.00  0.00    +0.000 N 
ATOM     31  C   UNL     1      47.508   4.340  16.115  0.00  0.00    +0.000 A 
ATOM     32  O   UNL     1      47.009   4.558  15.013  0.00  0.00    +0.000 OA
ATOM     33  C   UNL     1      48.548   5.156  16.709  0.00  0.00    +0.000 A 
ATOM     34  H   UNL     1      46.362   2.708  16.496  0.00  0.00    +0.000 HD
ENDBRANCH  21  24
ENDBRANCH  19  20
ENDBRANCH   4  19
TORSDOF 6
ENDMDL
MODEL 2
REMARK VINA RESULT:    -7.587      2.706      8.203
REMARK INTER + INTRA:         -11.302
REMARK INTER:                 -10.093
REMARK INTRA:                  -1.209
REMARK UNBOUND:                -1.054
REMARK  Name = 
REMARK  6 active torsions:
REMARK  status: ('A' for Active; 'I' for Inactive)
REMARK    1  A    between atoms: C_2  and  C_4
REMARK    2  A    between atoms: C_8  and  C_9
REMARK    3  A    between atoms: C_9  and  C_10
REMARK    4  A    between atoms: C_13  and  C_14
REMARK    5  A    between atoms: C_14  and  N_15
REMARK    6  A    between atoms: C_16  and  C_18
REMARK                            x       y       z     vdW  Elec       q    Type
REMARK                         _______ _______ _______ _____ _____    ______ ____
ROOT
ATOM      1  C   UNL     1      49.353   8.085  15.655  0.00  0.00    +0.000 A 
ATOM      2  C   UNL     1      48.180   8.783  15.382  0.00  0.00    +0.000 A 
ATOM      3  C   UNL     1      47.640   8.723  14.097  0.00  0.00    +0.000 A 
ATOM      4  C   UNL     1      48.288   7.991  13.099  0.00  0.00    +0.000 A 
ATOM      5  C   UNL     1      49.470   7.355  13.458  0.00  0.00    +0.000 A 
ATOM      6  N   UNL     1      50.017   7.386  14.696  0.00  0.00    +0.000 NA
ENDROOT
BRANCH   1   7
ATOM      7  C   UNL     1      49.865   7.972  17.079  0.00  0.00    +0.000 C 
BRANCH   7  12
ATOM      8  C   UNL     1      48.151   4.609  17.719  0.00  0.00    +0.000 A 
ATOM      9  C   UNL     1      48.745   4.220  18.925  0.00  0.00    +0.000 A 
ATOM     10  C   UNL     1      49.628   5.082  19.573  0.00  0.00    +0.000 A 
ATOM     11  C   UNL     1      49.943   6.316  19.003  0.00  0.00    +0.000 A 
ATOM     12  C   UNL     1      49.413   6.691  17.758  0.00  0.00    +0.000 A 
ATOM     13  C   UNL     1      48.494   5.836  17.132  0.00  0.00    +0.000 A 
BRANCH   8  15
ATOM     14  N   UNL     1      46.914   4.028  15.707  0.00  0.00    +0.000 N 
ATOM     15  C   UNL     1      47.178   3.733  17.017  0.00  0.00    +0.000 C 
ATOM     16  O   UNL     1      46.664   2.770  17.567  0.00  0.00    +0.000 OA
ATOM     17  H   UNL     1      46.350   3.354  15.204  0.00  0.00    +0.000 HD
ATOM     18  H   UNL     1      47.514   4.630  15.163  0.00  0.00    +0.000 HD
ENDBRANCH   8  15
ENDBRANCH   7  12
ENDBRANCH   1   7
BRANCH   4  19
ATOM     19  C   UNL     1      47.712   7.837  11.719  0.00  0.00    +0.000 C 
BRANCH  19  20
ATOM     20  N   UNL     1      46.986   6.597  11.591  0.00  0.00    +0.000 N 
ATOM     21  C   UNL     1      45.625   6.524  11.767  0.00  0.00    +0.000 C 
ATOM     22  O   UNL     1      44.939   7.511  12.006  0.00  0.00    +0.000 OA
ATOM     23  H   UNL     1      47.531   5.746  11.679  0.00  0.00    +0.000 HD
BRANCH  21  24
ATOM     24  C   UNL     1      45.028   5.195  11.574  0.00  0.00    +0.000 A 
ATOM     25  C   UNL     1      44.369   4.558  12.620  0.00  0.00    +0.000 A 
ATOM     26  S   UNL     1      43.657   3.072  12.176  0.00  0.00    +0.000 S 
ATOM     27  C   UNL     1      44.252   3.194  10.586  0.00  0.00    +0.000 A 
ATOM     28  N   UNL     1      44.008   2.223   9.665  0.00  0.00    +0.000 NA
ATOM     29  C   UNL     1      44.544   2.436   8.510  0.00  0.00    +0.000 A 
ATOM     30  N   UNL     1      45.300   3.537   8.190  0.00  0.00    +0.000 N 
ATOM     31  C   UNL     1      45.554   4.547   9.081  0.00  0.00    +0.000 A 
ATOM     32  O   UNL     1      46.216   5.531   8.756  0.00  0.00    +0.000 OA
ATOM     33  C   UNL     1      44.975   4.359  10.397  0.00  0.00    +0.000 A 
ATOM     34  H   UNL     1      45.688   3.649   7.265  0.00  0.00    +0.000 HD
ENDBRANCH  21  24
ENDBRANCH  19  20
ENDBRANCH   4  19
TORSDOF 6
ENDMDL
MODEL 3
REMARK VINA RESULT:    -7.478      1.989      2.369
REMARK INTER + INTRA:         -11.155
REMARK INTER:                 -10.005
REMARK INTRA:                  -1.149
REMARK UNBOUND:                -1.054
REMARK  Name = 
REMARK  6 active torsions:
REMARK  status: ('A' for Active; 'I' for Inactive)
REMARK    1  A    between atoms: C_2  and  C_4
REMARK    2  A    between atoms: C_8  and  C_9
REMARK    3  A    between atoms: C_9  and  C_10
REMARK    4  A    between atoms: C_13  and  C_14
REMARK    5  A    between atoms: C_14  and  N_15
REMARK    6  A    between atoms: C_16  and  C_18
REMARK                            x       y       z     vdW  Elec       q    Type
REMARK                         _______ _______ _______ _____ _____    ______ ____
ROOT
ATOM      1  C   UNL     1      45.311   6.137  11.526  0.00  0.00    +0.000 A 
ATOM      2  C   UNL     1      46.056   5.276  12.328  0.00  0.00    +0.000 A 
ATOM      3  C   UNL     1      47.004   5.812  13.199  0.00  0.00    +0.000 A 
ATOM      4  C   UNL     1      47.214   7.193  13.241  0.00  0.00    +0.000 A 
ATOM      5  C   UNL     1      46.447   7.969  12.381  0.00  0.00    +0.000 A 
ATOM      6  N   UNL     1      45.513   7.481  11.529  0.00  0.00    +0.000 NA
ENDROOT
BRANCH   1   7
ATOM      7  C   UNL     1      44.147   5.610  10.709  0.00  0.00    +0.000 C 
BRANCH   7  12
ATOM      8  C   UNL     1      45.797   3.224   8.211  0.00  0.00    +0.000 A 
ATOM      9  C   UNL     1      45.319   1.986   8.653  0.00  0.00    +0.000 A 
ATOM     10  C   UNL     1      44.397   1.930   9.696  0.00  0.00    +0.000 A 
ATOM     11  C   UNL     1      43.978   3.106  10.319  0.00  0.00    +0.000 A 
ATOM     12  C   UNL     1      44.503   4.351   9.937  0.00  0.00    +0.000 A 
ATOM     13  C   UNL     1      45.399   4.402   8.859  0.00  0.00    +0.000 A 
BRANCH   8  15
ATOM     14  N   UNL     1      47.745   2.386   7.019  0.00  0.00    +0.000 N 
ATOM     15  C   UNL     1      46.753   3.327   7.078  0.00  0.00    +0.000 C 
ATOM     16  O   UNL     1      46.641   4.185   6.215  0.00  0.00    +0.000 OA
ATOM     17  H   UNL     1      48.312   2.389   6.180  0.00  0.00    +0.000 HD
ATOM     18  H   UNL     1      47.700   1.527   7.546  0.00  0.00    +0.000 HD
ENDBRANCH   8  15
ENDBRANCH   7  12
ENDBRANCH   1   7
BRANCH   4  19
ATOM     19  C   UNL     1      48.172   7.826  14.212  0.00  0.00    +0.000 C 
BRANCH  19  20
ATOM     20  N   UNL     1      48.048   7.242  15.525  0.00  0.00    +0.000 N 
ATOM     21  C   UNL     1      49.098   6.608  16.145  0.00  0.00    +0.000 C 
ATOM     22  O   UNL     1      50.212   6.532  15.639  0.00  0.00    +0.000 OA
ATOM     23  H   UNL     1      47.106   7.037  15.838  0.00  0.00    +0.000 HD
BRANCH  21  24
ATOM     24  C   UNL     1      48.823   6.090  17.493  0.00  0.00    +0.000 A 
ATOM     25  C   UNL     1      49.083   4.761  17.805  0.00  0.00    +0.000 A 
ATOM     26  S   UNL     1      48.795   4.374  19.443  0.00  0.00    +0.000 S 
ATOM     27  C   UNL     1      48.255   5.952  19.782  0.00  0.00    +0.000 A 
ATOM     28  N   UNL     1      47.837   6.302  21.028  0.00  0.00    +0.000 NA
ATOM     29  C   UNL     1      47.430   7.524  21.132  0.00  0.00    +0.000 A 
ATOM     30  N   UNL     1      47.407   8.429  20.101  0.00  0.00    +0.000 N 
ATOM     31  C   UNL     1      47.836   8.125  18.834  0.00  0.00    +0.000 A 
ATOM     32  O   UNL     1      47.824   8.966  17.939  0.00  0.00    +0.000 OA
ATOM     33  C   UNL     1      48.305   6.764  18.662  0.00  0.00    +0.000 A 
ATOM     34  H   UNL     1      47.082   9.374  20.246  0.00  0.00    +0.000 HD
ENDBRANCH  21  24
ENDBRANCH  19  20
ENDBRANCH   4  19
TORSDOF 6
ENDMDL
MODEL 4
REMARK VINA RESULT:    -7.432      3.144      4.866
REMARK INTER + INTRA:         -11.093
REMARK INTER:                 -10.292
REMARK INTRA:                  -0.801
REMARK UNBOUND:                -1.054
REMARK  Name = 
REMARK  6 active torsions:
REMARK  status: ('A' for Active; 'I' for Inactive)
REMARK    1  A    between atoms: C_2  and  C_4
REMARK    2  A    between atoms: C_8  and  C_9
REMARK    3  A    between atoms: C_9  and  C_10
REMARK    4  A    between atoms: C_13  and  C_14
REMARK    5  A    between atoms: C_14  and  N_15
REMARK    6  A    between atoms: C_16  and  C_18
REMARK                            x       y       z     vdW  Elec       q    Type
REMARK                         _______ _______ _______ _____ _____    ______ ____
ROOT
ATOM      1  C   UNL     1      47.329   5.690  13.869  0.00  0.00    +0.000 A 
ATOM      2  C   UNL     1      46.845   4.384  13.890  0.00  0.00    +0.000 A 
ATOM      3  C   UNL     1      47.021   3.615  15.040  0.00  0.00    +0.000 A 
ATOM      4  C   UNL     1      47.697   4.148  16.141  0.00  0.00    +0.000 A 
ATOM      5  C   UNL     1      48.172   5.448  16.014  0.00  0.00    +0.000 A 
ATOM      6  N   UNL     1      48.011   6.223  14.916  0.00  0.00    +0.000 NA
ENDROOT
BRANCH   1   7
ATOM      7  C   UNL     1      46.992   6.614  12.713  0.00  0.00    +0.000 C 
BRANCH   7  12
ATOM      8  C   UNL     1      44.966   4.972   9.911  0.00  0.00    +0.000 A 
ATOM      9  C   UNL     1      43.678   4.980  10.459  0.00  0.00    +0.000 A 
ATOM     10  C   UNL     1      43.451   5.594  11.688  0.00  0.00    +0.000 A 
ATOM     11  C   UNL     1      44.513   6.170  12.387  0.00  0.00    +0.000 A 
ATOM     12  C   UNL     1      45.823   6.107  11.887  0.00  0.00    +0.000 A 
ATOM     13  C   UNL     1      46.037   5.524  10.629  0.00  0.00    +0.000 A 
BRANCH   8  15
ATOM     14  N   UNL     1      44.294   3.505   8.091  0.00  0.00    +0.000 N 
ATOM     15  C   UNL     1      45.241   4.359   8.586  0.00  0.00    +0.000 C 
ATOM     16  O   UNL     1      46.247   4.631   7.946  0.00  0.00    +0.000 OA
ATOM     17  H   UNL     1      44.430   3.192   7.138  0.00  0.00    +0.000 HD
ATOM     18  H   UNL     1      43.354   3.477   8.459  0.00  0.00    +0.000 HD
ENDBRANCH   8  15
ENDBRANCH   7  12
ENDBRANCH   1   7
BRANCH   4  19
ATOM     19  C   UNL     1      47.851   3.387  17.428  0.00  0.00    +0.000 C 
BRANCH  19  20
ATOM     20  N   UNL     1      49.241   3.153  17.735  0.00  0.00    +0.000 N 
ATOM     21  C   UNL     1      50.001   2.247  17.036  0.00  0.00    +0.000 C 
ATOM     22  O   UNL     1      49.559   1.610  16.087  0.00  0.00    +0.000 OA
ATOM     23  H   UNL     1      49.550   3.433  18.659  0.00  0.00    +0.000 HD
BRANCH  21  24
ATOM     24  C   UNL     1      51.408   2.142  17.449  0.00  0.00    +0.000 A 
ATOM     25  C   UNL     1      51.994   0.898  17.653  0.00  0.00    +0.000 A 
ATOM     26  S   UNL     1      53.657   0.979  18.029  0.00  0.00    +0.000 S 
ATOM     27  C   UNL     1      53.643   2.680  17.993  0.00  0.00    +0.000 A 
ATOM     28  N   UNL     1      54.769   3.401  18.247  0.00  0.00    +0.000 NA
ATOM     29  C   UNL     1      54.603   4.681  18.212  0.00  0.00    +0.000 A 
ATOM     30  N   UNL     1      53.412   5.307  17.941  0.00  0.00    +0.000 N 
ATOM     31  C   UNL     1      52.258   4.621  17.662  0.00  0.00    +0.000 A 
ATOM     32  O   UNL     1      51.213   5.213  17.402  0.00  0.00    +0.000 OA
ATOM     33  C   UNL     1      52.388   3.177  17.688  0.00  0.00    +0.000 A 
ATOM     34  H   UNL     1      53.347   6.315  17.924  0.00  0.00    +0.000 HD
ENDBRANCH  21  24
ENDBRANCH  19  20
ENDBRANCH   4  19
TORSDOF 6
ENDMDL
MODEL 5
REMARK VINA RESULT:    -7.419      3.619      7.903
REMARK INTER + INTRA:         -11.075
REMARK INTER:                  -9.279
REMARK INTRA:                  -1.796
REMARK UNBOUND:                -1.054
REMARK  Name = 
REMARK  6 active torsions:
REMARK  status: ('A' for Active; 'I' for Inactive)
REMARK    1  A    between atoms: C_2  and  C_4
REMARK    2  A    between atoms: C_8  and  C_9
REMARK    3  A    between atoms: C_9  and  C_10
REMARK    4  A    between atoms: C_13  and  C_14
REMARK    5  A    between atoms: C_14  and  N_15
REMARK    6  A    between atoms: C_16  and  C_18
REMARK                            x       y       z     vdW  Elec       q    Type
REMARK                         _______ _______ _______ _____ _____    ______ ____
ROOT
ATOM      1  C   UNL     1      49.973   7.192  18.716  0.00  0.00    +0.000 A 
ATOM      2  C   UNL     1      48.674   7.655  18.912  0.00  0.00    +0.000 A 
ATOM      3  C   UNL     1      48.100   8.486  17.951  0.00  0.00    +0.000 A 
ATOM      4  C   UNL     1      48.833   8.863  16.822  0.00  0.00    +0.000 A 
ATOM      5  C   UNL     1      50.132   8.377  16.730  0.00  0.00    +0.000 A 
ATOM      6  N   UNL     1      50.716   7.564  17.641  0.00  0.00    +0.000 NA
ENDROOT
BRANCH   1   7
ATOM      7  C   UNL     1      50.560   6.141  19.640  0.00  0.00    +0.000 C 
BRANCH   7  12
ATOM      8  C   UNL     1      49.986   3.045  17.464  0.00  0.00    +0.000 A 
ATOM      9  C   UNL     1      51.256   2.457  17.477  0.00  0.00    +0.000 A 
ATOM     10  C   UNL     1      52.268   3.010  18.259  0.00  0.00    +0.000 A 
ATOM     11  C   UNL     1      52.023   4.166  19.000  0.00  0.00    +0.000 A 
ATOM     12  C   UNL     1      50.777   4.811  18.941  0.00  0.00    +0.000 A 
ATOM     13  C   UNL     1      49.752   4.225  18.185  0.00  0.00    +0.000 A 
BRANCH   8  15
ATOM     14  N   UNL     1      47.621   2.968  16.901  0.00  0.00    +0.000 N 
ATOM     15  C   UNL     1      48.871   2.464  16.671  0.00  0.00    +0.000 C 
ATOM     16  O   UNL     1      49.063   1.603  15.824  0.00  0.00    +0.000 OA
ATOM     17  H   UNL     1      46.892   2.656  16.270  0.00  0.00    +0.000 HD
ATOM     18  H   UNL     1      47.477   3.844  17.380  0.00  0.00    +0.000 HD
ENDBRANCH   8  15
ENDBRANCH   7  12
ENDBRANCH   1   7
BRANCH   4  19
ATOM     19  C   UNL     1      48.236   9.697  15.724  0.00  0.00    +0.000 C 
BRANCH  19  20
ATOM     20  N   UNL     1      47.321   8.926  14.919  0.00  0.00    +0.000 N 
ATOM     21  C   UNL     1      47.729   8.245  13.797  0.00  0.00    +0.000 C 
ATOM     22  O   UNL     1      48.899   8.219  13.432  0.00  0.00    +0.000 OA
ATOM     23  H   UNL     1      46.337   9.152  15.017  0.00  0.00    +0.000 HD
BRANCH  21  24
ATOM     24  C   UNL     1      46.684   7.482  13.100  0.00  0.00    +0.000 A 
ATOM     25  C   UNL     1      45.771   8.127  12.273  0.00  0.00    +0.000 A 
ATOM     26  S   UNL     1      44.701   7.064  11.474  0.00  0.00    +0.000 S 
ATOM     27  C   UNL     1      45.378   5.707  12.248  0.00  0.00    +0.000 A 
ATOM     28  N   UNL     1      44.906   4.453  12.015  0.00  0.00    +0.000 NA
ATOM     29  C   UNL     1      45.496   3.525  12.692  0.00  0.00    +0.000 A 
ATOM     30  N   UNL     1      46.521   3.738  13.579  0.00  0.00    +0.000 N 
ATOM     31  C   UNL     1      47.040   4.982  13.831  0.00  0.00    +0.000 A 
ATOM     32  O   UNL     1      47.973   5.135  14.616  0.00  0.00    +0.000 OA
ATOM     33  C   UNL     1      46.412   6.062  13.096  0.00  0.00    +0.000 A 
ATOM     34  H   UNL     1      46.946   2.968  14.076  0.00  0.00    +0.000 HD
ENDBRANCH  21  24
ENDBRANCH  19  20
ENDBRANCH   4  19
TORSDOF 6
ENDMDL
MODEL 6
REMARK VINA RESULT:    -7.402      1.704      2.038
REMARK INTER + INTRA:         -11.052
REMARK INTER:                  -9.991
REMARK INTRA:                  -1.060
REMARK UNBOUND:                -1.054
REMARK  Name = 
REMARK  6 active torsions:
REMARK  status: ('A' for Active; 'I' for Inactive)
REMARK    1  A    between atoms: C_2  and  C_4
REMARK    2  A    between atoms: C_8  and  C_9
REMARK    3  A    between atoms: C_9  and  C_10
REMARK    4  A    between atoms: C_13  and  C_14
REMARK    5  A    between atoms: C_14  and  N_15
REMARK    6  A    between atoms: C_16  and  C_18
REMARK                            x       y       z     vdW  Elec       q    Type
REMARK                         _______ _______ _______ _____ _____    ______ ____
ROOT
ATOM      1  C   UNL     1      45.141   5.975  11.746  0.00  0.00    +0.000 A 
ATOM      2  C   UNL     1      45.663   7.260  11.623  0.00  0.00    +0.000 A 
ATOM      3  C   UNL     1      46.800   7.602  12.354  0.00  0.00    +0.000 A 
ATOM      4  C   UNL     1      47.386   6.669  13.214  0.00  0.00    +0.000 A 
ATOM      5  C   UNL     1      46.775   5.424  13.296  0.00  0.00    +0.000 A 
ATOM      6  N   UNL     1      45.676   5.058  12.595  0.00  0.00    +0.000 NA
ENDROOT
BRANCH   1   7
ATOM      7  C   UNL     1      44.024   5.509  10.830  0.00  0.00    +0.000 C 
BRANCH   7  12
ATOM      8  C   UNL     1      45.742   3.215   8.292  0.00  0.00    +0.000 A 
ATOM      9  C   UNL     1      45.272   1.959   8.692  0.00  0.00    +0.000 A 
ATOM     10  C   UNL     1      44.336   1.862   9.719  0.00  0.00    +0.000 A 
ATOM     11  C   UNL     1      43.893   3.015  10.368  0.00  0.00    +0.000 A 
ATOM     12  C   UNL     1      44.407   4.277  10.030  0.00  0.00    +0.000 A 
ATOM     13  C   UNL     1      45.319   4.369   8.967  0.00  0.00    +0.000 A 
BRANCH   8  15
ATOM     14  N   UNL     1      47.674   2.393   7.064  0.00  0.00    +0.000 N 
ATOM     15  C   UNL     1      46.713   3.361   7.177  0.00  0.00    +0.000 C 
ATOM     16  O   UNL     1      46.639   4.279   6.374  0.00  0.00    +0.000 OA
ATOM     17  H   UNL     1      48.250   2.433   6.232  0.00  0.00    +0.000 HD
ATOM     18  H   UNL     1      47.594   1.502   7.531  0.00  0.00    +0.000 HD
ENDBRANCH   8  15
ENDBRANCH   7  12
ENDBRANCH   1   7
BRANCH   4  19
ATOM     19  C   UNL     1      48.652   6.964  13.970  0.00  0.00    +0.000 C 
BRANCH  19  20
ATOM     20  N   UNL     1      48.452   6.844  15.393  0.00  0.00    +0.000 N 
ATOM     21  C   UNL     1      49.037   7.706  16.289  0.00  0.00    +0.000 C 
ATOM     22  O   UNL     1      49.732   8.651  15.935  0.00  0.00    +0.000 OA
ATOM     23  H   UNL     1      48.135   5.941  15.727  0.00  0.00    +0.000 HD
BRANCH  21  24
ATOM     24  C   UNL     1      48.714   7.471  17.703  0.00  0.00    +0.000 A 
ATOM     25  C   UNL     1      48.181   8.489  18.486  0.00  0.00    +0.000 A 
ATOM     26  S   UNL     1      47.779   7.996  20.070  0.00  0.00    +0.000 S 
ATOM     27  C   UNL     1      48.357   6.420  19.789  0.00  0.00    +0.000 A 
ATOM     28  N   UNL     1      48.320   5.471  20.763  0.00  0.00    +0.000 NA
ATOM     29  C   UNL     1      48.817   4.330  20.417  0.00  0.00    +0.000 A 
ATOM     30  N   UNL     1      49.345   4.052  19.182  0.00  0.00    +0.000 N 
ATOM     31  C   UNL     1      49.386   4.972  18.166  0.00  0.00    +0.000 A 
ATOM     32  O   UNL     1      49.846   4.682  17.063  0.00  0.00    +0.000 OA
ATOM     33  C   UNL     1      48.840   6.272  18.501  0.00  0.00    +0.000 A 
ATOM     34  H   UNL     1      49.716   3.136  18.970  0.00  0.00    +0.000 HD
ENDBRANCH  21  24
ENDBRANCH  19  20
ENDBRANCH   4  19
TORSDOF 6
ENDMDL
MODEL 7
REMARK VINA RESULT:    -7.350      1.825      2.458
REMARK INTER + INTRA:         -10.982
REMARK INTER:                  -9.555
REMARK INTRA:                  -1.427
REMARK UNBOUND:                -1.054
REMARK  Name = 
REMARK  6 active torsions:
REMARK  status: ('A' for Active; 'I' for Inactive)
REMARK    1  A    between atoms: C_2  and  C_4
REMARK    2  A    between atoms: C_8  and  C_9
REMARK    3  A    between atoms: C_9  and  C_10
REMARK    4  A    between atoms: C_13  and  C_14
REMARK    5  A    between atoms: C_14  and  N_15
REMARK    6  A    between atoms: C_16  and  C_18
REMARK                            x       y       z     vdW  Elec       q    Type
REMARK                         _______ _______ _______ _____ _____    ______ ____
ROOT
ATOM      1  C   UNL     1      45.893   7.657  11.984  0.00  0.00    +0.000 A 
ATOM      2  C   UNL     1      46.971   6.816  11.717  0.00  0.00    +0.000 A 
ATOM      3  C   UNL     1      48.158   6.990  12.429  0.00  0.00    +0.000 A 
ATOM      4  C   UNL     1      48.262   8.011  13.377  0.00  0.00    +0.000 A 
ATOM      5  C   UNL     1      47.146   8.820  13.550  0.00  0.00    +0.000 A 
ATOM      6  N   UNL     1      45.977   8.674  12.882  0.00  0.00    +0.000 NA
ENDROOT
BRANCH   1   7
ATOM      7  C   UNL     1      44.534   7.381  11.369  0.00  0.00    +0.000 C 
BRANCH   7  12
ATOM      8  C   UNL     1      44.127   3.702  10.392  0.00  0.00    +0.000 A 
ATOM      9  C   UNL     1      43.673   3.145  11.593  0.00  0.00    +0.000 A 
ATOM     10  C   UNL     1      43.413   3.969  12.686  0.00  0.00    +0.000 A 
ATOM     11  C   UNL     1      43.638   5.343  12.592  0.00  0.00    +0.000 A 
ATOM     12  C   UNL     1      44.163   5.909  11.419  0.00  0.00    +0.000 A 
ATOM     13  C   UNL     1      44.383   5.079  10.310  0.00  0.00    +0.000 A 
BRANCH   8  15
ATOM     14  N   UNL     1      44.384   3.495   7.982  0.00  0.00    +0.000 N 
ATOM     15  C   UNL     1      44.381   2.861   9.194  0.00  0.00    +0.000 C 
ATOM     16  O   UNL     1      44.615   1.664   9.285  0.00  0.00    +0.000 OA
ATOM     17  H   UNL     1      44.681   2.939   7.189  0.00  0.00    +0.000 HD
ATOM     18  H   UNL     1      44.467   4.497   7.903  0.00  0.00    +0.000 HD
ENDBRANCH   8  15
ENDBRANCH   7  12
ENDBRANCH   1   7
BRANCH   4  19
ATOM     19  C   UNL     1      49.493   8.195  14.220  0.00  0.00    +0.000 C 
BRANCH  19  20
ATOM     20  N   UNL     1      49.544   7.229  15.289  0.00  0.00    +0.000 N 
ATOM     21  C   UNL     1      49.024   7.487  16.534  0.00  0.00    +0.000 C 
ATOM     22  O   UNL     1      48.452   8.538  16.803  0.00  0.00    +0.000 OA
ATOM     23  H   UNL     1      50.237   6.494  15.198  0.00  0.00    +0.000 HD
BRANCH  21  24
ATOM     24  C   UNL     1      49.128   6.392  17.509  0.00  0.00    +0.000 A 
ATOM     25  C   UNL     1      49.813   6.572  18.705  0.00  0.00    +0.000 A 
ATOM     26  S   UNL     1      49.737   5.223  19.748  0.00  0.00    +0.000 S 
ATOM     27  C   UNL     1      48.838   4.325  18.616  0.00  0.00    +0.000 A 
ATOM     28  N   UNL     1      48.445   3.050  18.879  0.00  0.00    +0.000 NA
ATOM     29  C   UNL     1      47.794   2.482  17.919  0.00  0.00    +0.000 A 
ATOM     30  N   UNL     1      47.497   3.077  16.719  0.00  0.00    +0.000 N 
ATOM     31  C   UNL     1      47.857   4.365  16.418  0.00  0.00    +0.000 A 
ATOM     32  O   UNL     1      47.554   4.876  15.342  0.00  0.00    +0.000 OA
ATOM     33  C   UNL     1      48.591   5.050  17.463  0.00  0.00    +0.000 A 
ATOM     34  H   UNL     1      46.979   2.581  16.008  0.00  0.00    +0.000 HD
ENDBRANCH  21  24
ENDBRANCH  19  20
ENDBRANCH   4  19
TORSDOF 6
ENDMDL
MODEL 8
REMARK VINA RESULT:    -6.985      3.261      4.644
REMARK INTER + INTRA:         -10.489
REMARK INTER:                  -9.835
REMARK INTRA:                  -0.653
REMARK UNBOUND:                -1.054
REMARK  Name = 
REMARK  6 active torsions:
REMARK  status: ('A' for Active; 'I' for Inactive)
REMARK    1  A    between atoms: C_2  and  C_4
REMARK    2  A    between atoms: C_8  and  C_9
REMARK    3  A    between atoms: C_9  and  C_10
REMARK    4  A    between atoms: C_13  and  C_14
REMARK    5  A    between atoms: C_14  and  N_15
REMARK    6  A    between atoms: C_16  and  C_18
REMARK                            x       y       z     vdW  Elec       q    Type
REMARK                         _______ _______ _______ _____ _____    ______ ____
ROOT
ATOM      1  C   UNL     1      47.452   5.647  13.957  0.00  0.00    +0.000 A 
ATOM      2  C   UNL     1      47.025   4.417  14.452  0.00  0.00    +0.000 A 
ATOM      3  C   UNL     1      47.272   4.103  15.788  0.00  0.00    +0.000 A 
ATOM      4  C   UNL     1      47.960   5.005  16.604  0.00  0.00    +0.000 A 
ATOM      5  C   UNL     1      48.375   6.192  16.012  0.00  0.00    +0.000 A 
ATOM      6  N   UNL     1      48.145   6.531  14.721  0.00  0.00    +0.000 NA
ENDROOT
BRANCH   1   7
ATOM      7  C   UNL     1      47.038   6.101  12.569  0.00  0.00    +0.000 C 
BRANCH   7  12
ATOM      8  C   UNL     1      44.361   4.106  10.696  0.00  0.00    +0.000 A 
ATOM      9  C   UNL     1      43.241   4.315  11.507  0.00  0.00    +0.000 A 
ATOM     10  C   UNL     1      43.328   5.170  12.604  0.00  0.00    +0.000 A 
ATOM     11  C   UNL     1      44.541   5.789  12.910  0.00  0.00    +0.000 A 
ATOM     12  C   UNL     1      45.693   5.533  12.150  0.00  0.00    +0.000 A 
ATOM     13  C   UNL     1      45.586   4.704  11.024  0.00  0.00    +0.000 A 
BRANCH   8  15
ATOM     14  N   UNL     1      44.290   3.850   8.278  0.00  0.00    +0.000 N 
ATOM     15  C   UNL     1      44.297   3.230   9.497  0.00  0.00    +0.000 C 
ATOM     16  O   UNL     1      44.290   2.011   9.589  0.00  0.00    +0.000 OA
ATOM     17  H   UNL     1      44.373   3.245   7.470  0.00  0.00    +0.000 HD
ATOM     18  H   UNL     1      44.566   4.814   8.166  0.00  0.00    +0.000 HD
ENDBRANCH   8  15
ENDBRANCH   7  12
ENDBRANCH   1   7
BRANCH   4  19
ATOM     19  C   UNL     1      48.189   4.746  18.066  0.00  0.00    +0.000 C 
BRANCH  19  20
ATOM     20  N   UNL     1      49.454   4.089  18.290  0.00  0.00    +0.000 N 
ATOM     21  C   UNL     1      50.634   4.788  18.384  0.00  0.00    +0.000 C 
ATOM     22  O   UNL     1      50.681   6.011  18.323  0.00  0.00    +0.000 OA
ATOM     23  H   UNL     1      49.494   3.101  18.064  0.00  0.00    +0.000 HD
BRANCH  21  24
ATOM     24  C   UNL     1      51.834   3.979  18.641  0.00  0.00    +0.000 A 
ATOM     25  C   UNL     1      52.853   4.466  19.452  0.00  0.00    +0.000 A 
ATOM     26  S   UNL     1      54.114   3.345  19.713  0.00  0.00    +0.000 S 
ATOM     27  C   UNL     1      53.375   2.190  18.705  0.00  0.00    +0.000 A 
ATOM     28  N   UNL     1      53.951   0.979  18.479  0.00  0.00    +0.000 NA
ATOM     29  C   UNL     1      53.293   0.215  17.672  0.00  0.00    +0.000 A 
ATOM     30  N   UNL     1      52.105   0.553  17.072  0.00  0.00    +0.000 N 
ATOM     31  C   UNL     1      51.480   1.755  17.285  0.00  0.00    +0.000 A 
ATOM     32  O   UNL     1      50.406   2.017  16.750  0.00  0.00    +0.000 OA
ATOM     33  C   UNL     1      52.178   2.651  18.185  0.00  0.00    +0.000 A 
ATOM     34  H   UNL     1      51.635  -0.091  16.453  0.00  0.00    +0.000 HD
ENDBRANCH  21  24
ENDBRANCH  19  20
ENDBRANCH   4  19
TORSDOF 6
ENDMDL
MODEL 9
REMARK VINA RESULT:    -6.782      3.643      4.908
REMARK INTER + INTRA:         -10.215
REMARK INTER:                  -9.007
REMARK INTRA:                  -1.209
REMARK UNBOUND:                -1.054
REMARK  Name = 
REMARK  6 active torsions:
REMARK  status: ('A' for Active; 'I' for Inactive)
REMARK    1  A    between atoms: C_2  and  C_4
REMARK    2  A    between atoms: C_8  and  C_9
REMARK    3  A    between atoms: C_9  and  C_10
REMARK    4  A    between atoms: C_13  and  C_14
REMARK    5  A    between atoms: C_14  and  N_15
REMARK    6  A    between atoms: C_16  and  C_18
REMARK                            x       y       z     vdW  Elec       q    Type
REMARK                         _______ _______ _______ _____ _____    ______ ____
ROOT
ATOM      1  C   UNL     1      48.660   8.143  13.507  0.00  0.00    +0.000 A 
ATOM      2  C   UNL     1      49.857   7.501  13.813  0.00  0.00    +0.000 A 
ATOM      3  C   UNL     1      50.290   7.473  15.138  0.00  0.00    +0.000 A 
ATOM      4  C   UNL     1      49.540   8.105  16.134  0.00  0.00    +0.000 A 
ATOM      5  C   UNL     1      48.378   8.749  15.727  0.00  0.00    +0.000 A 
ATOM      6  N   UNL     1      47.925   8.787  14.451  0.00  0.00    +0.000 NA
ENDROOT
BRANCH   1   7
ATOM      7  C   UNL     1      48.063   8.032  12.116  0.00  0.00    +0.000 C 
BRANCH   7  12
ATOM      8  C   UNL     1      45.806   4.969  12.532  0.00  0.00    +0.000 A 
ATOM      9  C   UNL     1      44.554   5.500  12.203  0.00  0.00    +0.000 A 
ATOM     10  C   UNL     1      44.454   6.818  11.762  0.00  0.00    +0.000 A 
ATOM     11  C   UNL     1      45.596   7.615  11.681  0.00  0.00    +0.000 A 
ATOM     12  C   UNL     1      46.850   7.121  12.076  0.00  0.00    +0.000 A 
ATOM     13  C   UNL     1      46.948   5.781  12.480  0.00  0.00    +0.000 A 
BRANCH   8  15
ATOM     14  N   UNL     1      45.034   2.662  12.505  0.00  0.00    +0.000 N 
ATOM     15  C   UNL     1      45.958   3.557  12.971  0.00  0.00    +0.000 C 
ATOM     16  O   UNL     1      46.884   3.200  13.684  0.00  0.00    +0.000 OA
ATOM     17  H   UNL     1      45.218   1.687  12.707  0.00  0.00    +0.000 HD
ATOM     18  H   UNL     1      44.439   2.869  11.717  0.00  0.00    +0.000 HD
ENDBRANCH   8  15
ENDBRANCH   7  12
ENDBRANCH   1   7
BRANCH   4  19
ATOM     19  C   UNL     1      49.927   8.044  17.585  0.00  0.00    +0.000 C 
BRANCH  19  20
ATOM     20  N   UNL     1      50.838   6.956  17.838  0.00  0.00    +0.000 N 
ATOM     21  C   UNL     1      50.453   5.820  18.509  0.00  0.00    +0.000 C 
ATOM     22  O   UNL     1      49.305   5.644  18.901  0.00  0.00    +0.000 OA
ATOM     23  H   UNL     1      51.827   7.178  17.791  0.00  0.00    +0.000 HD
BRANCH  21  24
ATOM     24  C   UNL     1      51.489   4.789  18.664  0.00  0.00    +0.000 A 
ATOM     25  C   UNL     1      52.636   5.045  19.407  0.00  0.00    +0.000 A 
ATOM     26  S   UNL     1      53.671   3.696  19.555  0.00  0.00    +0.000 S 
ATOM     27  C   UNL     1      52.656   2.736  18.584  0.00  0.00    +0.000 A 
ATOM     28  N   UNL     1      52.970   1.444  18.295  0.00  0.00    +0.000 NA
ATOM     29  C   UNL     1      52.122   0.847  17.526  0.00  0.00    +0.000 A 
ATOM     30  N   UNL     1      50.985   1.425  17.020  0.00  0.00    +0.000 N 
ATOM     31  C   UNL     1      50.620   2.717  17.299  0.00  0.00    +0.000 A 
ATOM     32  O   UNL     1      49.582   3.196  16.849  0.00  0.00    +0.000 OA
ATOM     33  C   UNL     1      51.538   3.435  18.161  0.00  0.00    +0.000 A 
ATOM     34  H   UNL     1      50.357   0.903  16.426  0.00  0.00    +0.000 HD
ENDBRANCH  21  24
ENDBRANCH  19  20
ENDBRANCH   4  19
TORSDOF 6
ENDMDL
