MODEL 1
REMARK VINA RESULT:    -8.853      0.000      0.000
REMARK INTER + INTRA:         -12.068
REMARK INTER:                 -11.441
REMARK INTRA:                  -0.627
REMARK UNBOUND:                -0.627
REMARK  Name = 
REMARK  5 active torsions:
REMARK  status: ('A' for Active; 'I' for Inactive)
REMARK    1  A    between atoms: C_2  and  C_4
REMARK    2  A    between atoms: C_7  and  C_8
REMARK    3  A    between atoms: C_8  and  O_9
REMARK    4  A    between atoms: O_9  and  C_10
REMARK    5  A    between atoms: C_15  and  C_16
REMARK                            x       y       z     vdW  Elec       q    Type
REMARK                         _______ _______ _______ _____ _____    ______ ____
ROOT
ATOM      1  O   UNL     1      44.166   5.579  10.924  0.00  0.00    +0.000 OA
ENDROOT
BRANCH   1   2
ATOM      2  C   UNL     1      45.169   5.402  11.835  0.00  0.00    +0.000 A 
ATOM      3  C   UNL     1      45.491   4.216  12.484  0.00  0.00    +0.000 A 
ATOM      4  C   UNL     1      46.546   4.205  13.389  0.00  0.00    +0.000 A 
ATOM      5  F   UNL     1      46.868   3.056  14.000  0.00  0.00    +0.000 F 
ATOM      6  C   UNL     1      47.263   5.360  13.692  0.00  0.00    +0.000 A 
ATOM      7  C   UNL     1      46.934   6.576  13.073  0.00  0.00    +0.000 A 
ATOM      8  C   UNL     1      45.905   6.557  12.119  0.00  0.00    +0.000 A 
BRANCH   7   9
ATOM      9  C   UNL     1      47.625   7.860  13.520  0.00  0.00    +0.000 C 
ATOM     10  C   UNL     1      47.971   8.749  12.311  0.00  0.00    +0.000 C 
ATOM     11  C   UNL     1      49.225   8.272  11.578  0.00  0.00    +0.000 C 
ATOM     12  C   UNL     1      50.397   8.008  12.525  0.00  0.00    +0.000 C 
ATOM     13  N   UNL     1      50.047   7.173  13.670  0.00  0.00    +0.000 NA
ATOM     14  C   UNL     1      48.882   7.680  14.400  0.00  0.00    +0.000 C 
ATOM     15  H   UNL     1      50.842   7.087  14.301  0.00  0.00    +0.000 HD
ENDBRANCH   7   9
ENDBRANCH   1   2
BRANCH   1  16
ATOM     16  C   UNL     1      43.621   4.411  10.312  0.00  0.00    +0.000 C 
BRANCH  16  20
ATOM     17  C   UNL     1      46.513   2.529   7.712  0.00  0.00    +0.000 A 
ATOM     18  C   UNL     1      46.397   3.924   7.725  0.00  0.00    +0.000 A 
ATOM     19  C   UNL     1      45.475   4.538   8.575  0.00  0.00    +0.000 A 
ATOM     20  C   UNL     1      44.665   3.772   9.427  0.00  0.00    +0.000 A 
ATOM     21  C   UNL     1      44.789   2.381   9.385  0.00  0.00    +0.000 A 
ATOM     22  F   UNL     1      44.011   1.620  10.174  0.00  0.00    +0.000 F 
ATOM     23  C   UNL     1      45.697   1.757   8.538  0.00  0.00    +0.000 A 
BRANCH  17  25
ATOM     24  N   UNL     1      48.497   2.576   6.307  0.00  0.00    +0.000 N 
ATOM     25  C   UNL     1      47.459   1.836   6.804  0.00  0.00    +0.000 C 
ATOM     26  O   UNL     1      47.341   0.650   6.538  0.00  0.00    +0.000 OA
ATOM     27  H   UNL     1      49.194   2.069   5.777  0.00  0.00    +0.000 HD
ATOM     28  H   UNL     1      48.765   3.467   6.702  0.00  0.00    +0.000 HD
ENDBRANCH  17  25
ENDBRANCH  16  20
ENDBRANCH   1  16
TORSDOF 5
ENDMDL
MODEL 2
REMARK VINA RESULT:    -8.608      1.904      2.303
REMARK INTER + INTRA:         -11.751
REMARK INTER:                 -10.837
REMARK INTRA:                  -0.914
REMARK UNBOUND:                -0.627
REMARK  Name = 
REMARK  5 active torsions:
REMARK  status: ('A' for Active; 'I' for Inactive)
REMARK    1  A    between atoms: C_2  and  C_4
REMARK    2  A    between atoms: C_7  and  C_8
REMARK    3  A    between atoms: C_8  and  O_9
REMARK    4  A    between atoms: O_9  and  C_10
REMARK    5  A    between atoms: C_15  and  C_16
REMARK                            x       y       z     vdW  Elec       q    Type
REMARK                         _______ _______ _______ _____ _____    ______ ____
ROOT
ATOM      1  O   UNL     1      44.447   5.015  11.526  0.00  0.00    +0.000 OA
ENDROOT
BRANCH   1   2
ATOM      2  C   UNL     1      44.742   6.334  11.728  0.00  0.00    +0.000 A 
ATOM      3  C   UNL     1      44.112   7.418  11.129  0.00  0.00    +0.000 A 
ATOM      4  C   UNL     1      44.536   8.704  11.444  0.00  0.00    +0.000 A 
ATOM      5  F   UNL     1      43.915   9.751  10.880  0.00  0.00    +0.000 F 
ATOM      6  C   UNL     1      45.601   8.933  12.311  0.00  0.00    +0.000 A 
ATOM      7  C   UNL     1      46.273   7.852  12.902  0.00  0.00    +0.000 A 
ATOM      8  C   UNL     1      45.794   6.563  12.620  0.00  0.00    +0.000 A 
BRANCH   7   9
ATOM      9  C   UNL     1      47.527   8.106  13.731  0.00  0.00    +0.000 C 
ATOM     10  C   UNL     1      48.339   9.282  13.156  0.00  0.00    +0.000 C 
ATOM     11  C   UNL     1      49.168   8.875  11.937  0.00  0.00    +0.000 C 
ATOM     12  C   UNL     1      49.981   7.602  12.174  0.00  0.00    +0.000 C 
ATOM     13  N   UNL     1      49.197   6.502  12.728  0.00  0.00    +0.000 NA
ATOM     14  C   UNL     1      48.460   6.891  13.934  0.00  0.00    +0.000 C 
ATOM     15  H   UNL     1      49.799   5.706  12.931  0.00  0.00    +0.000 HD
ENDBRANCH   7   9
ENDBRANCH   1   2
BRANCH   1  16
ATOM     16  C   UNL     1      43.809   4.665  10.298  0.00  0.00    +0.000 C 
BRANCH  16  20
ATOM     17  C   UNL     1      46.509   2.508   7.706  0.00  0.00    +0.000 A 
ATOM     18  C   UNL     1      46.485   3.907   7.672  0.00  0.00    +0.000 A 
ATOM     19  C   UNL     1      45.626   4.610   8.519  0.00  0.00    +0.000 A 
ATOM     20  C   UNL     1      44.788   3.928   9.415  0.00  0.00    +0.000 A 
ATOM     21  C   UNL     1      44.819   2.532   9.419  0.00  0.00    +0.000 A 
ATOM     22  F   UNL     1      44.011   1.852  10.251  0.00  0.00    +0.000 F 
ATOM     23  C   UNL     1      45.663   1.820   8.576  0.00  0.00    +0.000 A 
BRANCH  17  25
ATOM     24  N   UNL     1      48.475   2.365   6.282  0.00  0.00    +0.000 N 
ATOM     25  C   UNL     1      47.386   1.722   6.803  0.00  0.00    +0.000 C 
ATOM     26  O   UNL     1      47.169   0.544   6.563  0.00  0.00    +0.000 OA
ATOM     27  H   UNL     1      49.122   1.793   5.755  0.00  0.00    +0.000 HD
ATOM     28  H   UNL     1      48.818   3.239   6.656  0.00  0.00    +0.000 HD
ENDBRANCH  17  25
ENDBRANCH  16  20
ENDBRANCH   1  16
TORSDOF 5
ENDMDL
MODEL 3
REMARK VINA RESULT:    -8.430      1.416      1.913
REMARK INTER + INTRA:         -11.521
REMARK INTER:                 -11.013
REMARK INTRA:                  -0.508
REMARK UNBOUND:                -0.627
REMARK  Name = 
REMARK  5 active torsions:
REMARK  status: ('A' for Active; 'I' for Inactive)
REMARK    1  A    between atoms: C_2  and  C_4
REMARK    2  A    between atoms: C_7  and  C_8
REMARK    3  A    between atoms: C_8  and  O_9
REMARK    4  A    between atoms: O_9  and  C_10
REMARK    5  A    between atoms: C_15  and  C_16
REMARK                            x       y       z     vdW  Elec       q    Type
REMARK                         _______ _______ _______ _____ _____    ______ ____
ROOT
ATOM      1  O   UNL     1      43.796   4.391  11.568  0.00  0.00    +0.000 OA
ENDROOT
BRANCH   1   2
ATOM      2  C   UNL     1      44.987   4.642  12.187  0.00  0.00    +0.000 A 
ATOM      3  C   UNL     1      45.626   3.818  13.106  0.00  0.00    +0.000 A 
ATOM      4  C   UNL     1      46.841   4.223  13.647  0.00  0.00    +0.000 A 
ATOM      5  F   UNL     1      47.466   3.419  14.519  0.00  0.00    +0.000 F 
ATOM      6  C   UNL     1      47.414   5.451  13.325  0.00  0.00    +0.000 A 
ATOM      7  C   UNL     1      46.770   6.314  12.424  0.00  0.00    +0.000 A 
ATOM      8  C   UNL     1      45.574   5.864  11.842  0.00  0.00    +0.000 A 
BRANCH   7   9
ATOM      9  C   UNL     1      47.328   7.714  12.192  0.00  0.00    +0.000 C 
ATOM     10  C   UNL     1      48.857   7.735  12.378  0.00  0.00    +0.000 C 
ATOM     11  C   UNL     1      49.264   7.766  13.851  0.00  0.00    +0.000 C 
ATOM     12  C   UNL     1      48.514   8.835  14.648  0.00  0.00    +0.000 C 
ATOM     13  N   UNL     1      47.068   8.805  14.451  0.00  0.00    +0.000 NA
ATOM     14  C   UNL     1      46.694   8.842  13.035  0.00  0.00    +0.000 C 
ATOM     15  H   UNL     1      46.628   9.577  14.948  0.00  0.00    +0.000 HD
ENDBRANCH   7   9
ENDBRANCH   1   2
BRANCH   1  16
ATOM     16  C   UNL     1      43.693   4.721  10.184  0.00  0.00    +0.000 C 
BRANCH  16  20
ATOM     17  C   UNL     1      46.258   2.060   7.948  0.00  0.00    +0.000 A 
ATOM     18  C   UNL     1      45.205   1.534   8.706  0.00  0.00    +0.000 A 
ATOM     19  C   UNL     1      44.363   2.390   9.417  0.00  0.00    +0.000 A 
ATOM     20  C   UNL     1      44.555   3.780   9.376  0.00  0.00    +0.000 A 
ATOM     21  C   UNL     1      45.622   4.280   8.625  0.00  0.00    +0.000 A 
ATOM     22  F   UNL     1      45.843   5.605   8.585  0.00  0.00    +0.000 F 
ATOM     23  C   UNL     1      46.472   3.438   7.919  0.00  0.00    +0.000 A 
BRANCH  17  25
ATOM     24  N   UNL     1      48.312   1.769   6.679  0.00  0.00    +0.000 N 
ATOM     25  C   UNL     1      47.192   1.182   7.201  0.00  0.00    +0.000 C 
ATOM     26  O   UNL     1      46.992  -0.017   7.086  0.00  0.00    +0.000 OA
ATOM     27  H   UNL     1      48.992   1.145   6.265  0.00  0.00    +0.000 HD
ATOM     28  H   UNL     1      48.630   2.683   6.970  0.00  0.00    +0.000 HD
ENDBRANCH  17  25
ENDBRANCH  16  20
ENDBRANCH   1  16
TORSDOF 5
ENDMDL
MODEL 4
REMARK VINA RESULT:    -7.468      4.427      8.124
REMARK INTER + INTRA:         -10.277
REMARK INTER:                  -9.524
REMARK INTRA:                  -0.753
REMARK UNBOUND:                -0.627
REMARK  Name = 
REMARK  5 active torsions:
REMARK  status: ('A' for Active; 'I' for Inactive)
REMARK    1  A    between atoms: C_2  and  C_4
REMARK    2  A    between atoms: C_7  and  C_8
REMARK    3  A    between atoms: C_8  and  O_9
REMARK    4  A    between atoms: O_9  and  C_10
REMARK    5  A    between atoms: C_15  and  C_16
REMARK                            x       y       z     vdW  Elec       q    Type
REMARK                         _______ _______ _______ _____ _____    ______ ____
ROOT
ATOM      1  O   UNL     1      46.945   3.496  14.764  0.00  0.00    +0.000 OA
ENDROOT
BRANCH   1   2
ATOM      2  C   UNL     1      46.658   4.338  13.728  0.00  0.00    +0.000 A 
ATOM      3  C   UNL     1      47.216   5.591  13.508  0.00  0.00    +0.000 A 
ATOM      4  C   UNL     1      46.811   6.326  12.399  0.00  0.00    +0.000 A 
ATOM      5  F   UNL     1      47.365   7.527  12.177  0.00  0.00    +0.000 F 
ATOM      6  C   UNL     1      45.833   5.857  11.526  0.00  0.00    +0.000 A 
ATOM      7  C   UNL     1      45.233   4.608  11.746  0.00  0.00    +0.000 A 
ATOM      8  C   UNL     1      45.694   3.853  12.837  0.00  0.00    +0.000 A 
BRANCH   7   9
ATOM      9  C   UNL     1      44.062   4.170  10.873  0.00  0.00    +0.000 C 
ATOM     10  C   UNL     1      44.126   2.658  10.584  0.00  0.00    +0.000 C 
ATOM     11  C   UNL     1      45.135   2.318   9.487  0.00  0.00    +0.000 C 
ATOM     12  C   UNL     1      44.972   3.194   8.243  0.00  0.00    +0.000 C 
ATOM     13  N   UNL     1      44.903   4.622   8.538  0.00  0.00    +0.000 NA
ATOM     14  C   UNL     1      43.885   4.938   9.545  0.00  0.00    +0.000 C 
ATOM     15  H   UNL     1      44.724   5.150   7.686  0.00  0.00    +0.000 HD
ENDBRANCH   7   9
ENDBRANCH   1   2
BRANCH   1  16
ATOM     16  C   UNL     1      47.069   4.073  16.064  0.00  0.00    +0.000 C 
BRANCH  16  20
ATOM     17  C   UNL     1      51.001   3.371  17.711  0.00  0.00    +0.000 A 
ATOM     18  C   UNL     1      50.208   2.284  17.322  0.00  0.00    +0.000 A 
ATOM     19  C   UNL     1      48.943   2.506  16.774  0.00  0.00    +0.000 A 
ATOM     20  C   UNL     1      48.457   3.811  16.600  0.00  0.00    +0.000 A 
ATOM     21  C   UNL     1      49.261   4.878  17.009  0.00  0.00    +0.000 A 
ATOM     22  F   UNL     1      48.812   6.138  16.875  0.00  0.00    +0.000 F 
ATOM     23  C   UNL     1      50.518   4.671  17.563  0.00  0.00    +0.000 A 
BRANCH  17  25
ATOM     24  N   UNL     1      52.741   1.889  18.541  0.00  0.00    +0.000 N 
ATOM     25  C   UNL     1      52.338   3.177  18.323  0.00  0.00    +0.000 C 
ATOM     26  O   UNL     1      53.065   4.123  18.588  0.00  0.00    +0.000 OA
ATOM     27  H   UNL     1      53.694   1.766  18.859  0.00  0.00    +0.000 HD
ATOM     28  H   UNL     1      52.286   1.098  18.106  0.00  0.00    +0.000 HD
ENDBRANCH  17  25
ENDBRANCH  16  20
ENDBRANCH   1  16
TORSDOF 5
ENDMDL
MODEL 5
REMARK VINA RESULT:    -7.046      3.985      6.207
REMARK INTER + INTRA:          -9.732
REMARK INTER:                  -8.939
REMARK INTRA:                  -0.794
REMARK UNBOUND:                -0.627
REMARK  Name = 
REMARK  5 active torsions:
REMARK  status: ('A' for Active; 'I' for Inactive)
REMARK    1  A    between atoms: C_2  and  C_4
REMARK    2  A    between atoms: C_7  and  C_8
REMARK    3  A    between atoms: C_8  and  O_9
REMARK    4  A    between atoms: O_9  and  C_10
REMARK    5  A    between atoms: C_15  and  C_16
REMARK                            x       y       z     vdW  Elec       q    Type
REMARK                         _______ _______ _______ _____ _____    ______ ____
ROOT
ATOM      1  O   UNL     1      48.385   7.323  14.192  0.00  0.00    +0.000 OA
ENDROOT
BRANCH   1   2
ATOM      2  C   UNL     1      49.337   7.050  15.132  0.00  0.00    +0.000 A 
ATOM      3  C   UNL     1      50.679   7.407  15.072  0.00  0.00    +0.000 A 
ATOM      4  C   UNL     1      51.521   7.048  16.118  0.00  0.00    +0.000 A 
ATOM      5  F   UNL     1      52.811   7.410  16.068  0.00  0.00    +0.000 F 
ATOM      6  C   UNL     1      51.066   6.307  17.206  0.00  0.00    +0.000 A 
ATOM      7  C   UNL     1      49.722   5.908  17.272  0.00  0.00    +0.000 A 
ATOM      8  C   UNL     1      48.871   6.328  16.237  0.00  0.00    +0.000 A 
BRANCH   7   9
ATOM      9  C   UNL     1      49.267   4.973  18.388  0.00  0.00    +0.000 C 
ATOM     10  C   UNL     1      49.620   3.510  18.059  0.00  0.00    +0.000 C 
ATOM     11  C   UNL     1      48.639   2.883  17.068  0.00  0.00    +0.000 C 
ATOM     12  C   UNL     1      47.178   3.108  17.462  0.00  0.00    +0.000 C 
ATOM     13  N   UNL     1      46.865   4.499  17.779  0.00  0.00    +0.000 NA
ATOM     14  C   UNL     1      47.775   5.064  18.779  0.00  0.00    +0.000 C 
ATOM     15  H   UNL     1      45.902   4.580  18.100  0.00  0.00    +0.000 HD
ENDBRANCH   7   9
ENDBRANCH   1   2
BRANCH   1  16
ATOM     16  C   UNL     1      48.445   6.596  12.965  0.00  0.00    +0.000 C 
BRANCH  16  20
ATOM     17  C   UNL     1      44.423   5.398  11.941  0.00  0.00    +0.000 A 
ATOM     18  C   UNL     1      45.052   6.410  11.208  0.00  0.00    +0.000 A 
ATOM     19  C   UNL     1      46.358   6.790  11.524  0.00  0.00    +0.000 A 
ATOM     20  C   UNL     1      47.055   6.161  12.568  0.00  0.00    +0.000 A 
ATOM     21  C   UNL     1      46.399   5.164  13.294  0.00  0.00    +0.000 A 
ATOM     22  F   UNL     1      47.034   4.559  14.314  0.00  0.00    +0.000 F 
ATOM     23  C   UNL     1      45.098   4.782  12.995  0.00  0.00    +0.000 A 
BRANCH  17  25
ATOM     24  N   UNL     1      42.060   5.944  11.765  0.00  0.00    +0.000 N 
ATOM     25  C   UNL     1      43.027   4.984  11.656  0.00  0.00    +0.000 C 
ATOM     26  O   UNL     1      42.755   3.846  11.304  0.00  0.00    +0.000 OA
ATOM     27  H   UNL     1      41.131   5.679  11.466  0.00  0.00    +0.000 HD
ATOM     28  H   UNL     1      42.278   6.930  11.800  0.00  0.00    +0.000 HD
ENDBRANCH  17  25
ENDBRANCH  16  20
ENDBRANCH   1  16
TORSDOF 5
ENDMDL
MODEL 6
REMARK VINA RESULT:    -7.001      4.930      7.947
REMARK INTER + INTRA:          -9.675
REMARK INTER:                  -9.233
REMARK INTRA:                  -0.442
REMARK UNBOUND:                -0.627
REMARK  Name = 
REMARK  5 active torsions:
REMARK  status: ('A' for Active; 'I' for Inactive)
REMARK    1  A    between atoms: C_2  and  C_4
REMARK    2  A    between atoms: C_7  and  C_8
REMARK    3  A    between atoms: C_8  and  O_9
REMARK    4  A    between atoms: O_9  and  C_10
REMARK    5  A    between atoms: C_15  and  C_16
REMARK                            x       y       z     vdW  Elec       q    Type
REMARK                         _______ _______ _______ _____ _____    ______ ____
ROOT
ATOM      1  O   UNL     1      47.969   5.819  15.809  0.00  0.00    +0.000 OA
ENDROOT
BRANCH   1   2
ATOM      2  C   UNL     1      47.573   5.899  14.504  0.00  0.00    +0.000 A 
ATOM      3  C   UNL     1      48.021   6.820  13.564  0.00  0.00    +0.000 A 
ATOM      4  C   UNL     1      47.513   6.765  12.271  0.00  0.00    +0.000 A 
ATOM      5  F   UNL     1      47.960   7.642  11.359  0.00  0.00    +0.000 F 
ATOM      6  C   UNL     1      46.539   5.840  11.903  0.00  0.00    +0.000 A 
ATOM      7  C   UNL     1      46.049   4.923  12.845  0.00  0.00    +0.000 A 
ATOM      8  C   UNL     1      46.614   4.952  14.130  0.00  0.00    +0.000 A 
BRANCH   7   9
ATOM      9  C   UNL     1      44.881   4.014  12.476  0.00  0.00    +0.000 C 
ATOM     10  C   UNL     1      44.458   4.230  11.011  0.00  0.00    +0.000 C 
ATOM     11  C   UNL     1      43.602   5.485  10.831  0.00  0.00    +0.000 C 
ATOM     12  C   UNL     1      42.455   5.566  11.839  0.00  0.00    +0.000 C 
ATOM     13  N   UNL     1      42.875   5.350  13.221  0.00  0.00    +0.000 NA
ATOM     14  C   UNL     1      43.637   4.110  13.388  0.00  0.00    +0.000 C 
ATOM     15  H   UNL     1      42.065   5.346  13.839  0.00  0.00    +0.000 HD
ENDBRANCH   7   9
ENDBRANCH   1   2
BRANCH   1  16
ATOM     16  C   UNL     1      47.573   4.663  16.546  0.00  0.00    +0.000 C 
BRANCH  16  20
ATOM     17  C   UNL     1      50.995   2.164  17.386  0.00  0.00    +0.000 A 
ATOM     18  C   UNL     1      49.906   1.635  16.683  0.00  0.00    +0.000 A 
ATOM     19  C   UNL     1      48.804   2.443  16.394  0.00  0.00    +0.000 A 
ATOM     20  C   UNL     1      48.777   3.787  16.796  0.00  0.00    +0.000 A 
ATOM     21  C   UNL     1      49.869   4.288  17.509  0.00  0.00    +0.000 A 
ATOM     22  F   UNL     1      49.861   5.566  17.926  0.00  0.00    +0.000 F 
ATOM     23  C   UNL     1      50.968   3.492  17.810  0.00  0.00    +0.000 A 
BRANCH  17  25
ATOM     24  N   UNL     1      51.923   0.098  18.271  0.00  0.00    +0.000 N 
ATOM     25  C   UNL     1      52.172   1.332  17.737  0.00  0.00    +0.000 C 
ATOM     26  O   UNL     1      53.313   1.715  17.527  0.00  0.00    +0.000 OA
ATOM     27  H   UNL     1      52.727  -0.501  18.407  0.00  0.00    +0.000 HD
ATOM     28  H   UNL     1      51.015  -0.342  18.218  0.00  0.00    +0.000 HD
ENDBRANCH  17  25
ENDBRANCH  16  20
ENDBRANCH   1  16
TORSDOF 5
ENDMDL
MODEL 7
REMARK VINA RESULT:    -6.745      4.656      8.507
REMARK INTER + INTRA:          -9.344
REMARK INTER:                  -8.723
REMARK INTRA:                  -0.621
REMARK UNBOUND:                -0.627
REMARK  Name = 
REMARK  5 active torsions:
REMARK  status: ('A' for Active; 'I' for Inactive)
REMARK    1  A    between atoms: C_2  and  C_4
REMARK    2  A    between atoms: C_7  and  C_8
REMARK    3  A    between atoms: C_8  and  O_9
REMARK    4  A    between atoms: O_9  and  C_10
REMARK    5  A    between atoms: C_15  and  C_16
REMARK                            x       y       z     vdW  Elec       q    Type
REMARK                         _______ _______ _______ _____ _____    ______ ____
ROOT
ATOM      1  O   UNL     1      47.999   5.104  14.631  0.00  0.00    +0.000 OA
ENDROOT
BRANCH   1   2
ATOM      2  C   UNL     1      47.372   5.911  13.725  0.00  0.00    +0.000 A 
ATOM      3  C   UNL     1      47.395   7.300  13.707  0.00  0.00    +0.000 A 
ATOM      4  C   UNL     1      46.699   7.975  12.711  0.00  0.00    +0.000 A 
ATOM      5  F   UNL     1      46.736   9.315  12.683  0.00  0.00    +0.000 F 
ATOM      6  C   UNL     1      45.947   7.297  11.754  0.00  0.00    +0.000 A 
ATOM      7  C   UNL     1      45.884   5.895  11.772  0.00  0.00    +0.000 A 
ATOM      8  C   UNL     1      46.639   5.227  12.748  0.00  0.00    +0.000 A 
BRANCH   7   9
ATOM      9  C   UNL     1      44.943   5.171  10.815  0.00  0.00    +0.000 C 
ATOM     10  C   UNL     1      43.471   5.425  11.192  0.00  0.00    +0.000 C 
ATOM     11  C   UNL     1      43.015   4.564  12.371  0.00  0.00    +0.000 C 
ATOM     12  C   UNL     1      43.378   3.088  12.198  0.00  0.00    +0.000 C 
ATOM     13  N   UNL     1      44.774   2.868  11.832  0.00  0.00    +0.000 NA
ATOM     14  C   UNL     1      45.176   3.651  10.660  0.00  0.00    +0.000 C 
ATOM     15  H   UNL     1      44.942   1.878  11.662  0.00  0.00    +0.000 HD
ENDBRANCH   7   9
ENDBRANCH   1   2
BRANCH   1  16
ATOM     16  C   UNL     1      47.180   4.234  15.412  0.00  0.00    +0.000 C 
BRANCH  16  20
ATOM     17  C   UNL     1      48.490   4.477  19.521  0.00  0.00    +0.000 A 
ATOM     18  C   UNL     1      47.768   5.537  18.960  0.00  0.00    +0.000 A 
ATOM     19  C   UNL     1      47.328   5.457  17.638  0.00  0.00    +0.000 A 
ATOM     20  C   UNL     1      47.595   4.318  16.862  0.00  0.00    +0.000 A 
ATOM     21  C   UNL     1      48.330   3.280  17.440  0.00  0.00    +0.000 A 
ATOM     22  F   UNL     1      48.620   2.187  16.713  0.00  0.00    +0.000 F 
ATOM     23  C   UNL     1      48.781   3.351  18.752  0.00  0.00    +0.000 A 
BRANCH  17  25
ATOM     24  N   UNL     1      50.357   4.520  21.079  0.00  0.00    +0.000 N 
ATOM     25  C   UNL     1      49.000   4.535  20.913  0.00  0.00    +0.000 C 
ATOM     26  O   UNL     1      48.245   4.627  21.869  0.00  0.00    +0.000 OA
ATOM     27  H   UNL     1      50.695   4.666  22.021  0.00  0.00    +0.000 HD
ATOM     28  H   UNL     1      50.998   4.701  20.318  0.00  0.00    +0.000 HD
ENDBRANCH  17  25
ENDBRANCH  16  20
ENDBRANCH   1  16
TORSDOF 5
ENDMDL
MODEL 8
REMARK VINA RESULT:    -6.713      4.406      7.318
REMARK INTER + INTRA:          -9.302
REMARK INTER:                  -8.360
REMARK INTRA:                  -0.942
REMARK UNBOUND:                -0.627
REMARK  Name = 
REMARK  5 active torsions:
REMARK  status: ('A' for Active; 'I' for Inactive)
REMARK    1  A    between atoms: C_2  and  C_4
REMARK    2  A    between atoms: C_7  and  C_8
REMARK    3  A    between atoms: C_8  and  O_9
REMARK    4  A    between atoms: O_9  and  C_10
REMARK    5  A    between atoms: C_15  and  C_16
REMARK                            x       y       z     vdW  Elec       q    Type
REMARK                         _______ _______ _______ _____ _____    ______ ____
ROOT
ATOM      1  O   UNL     1      47.344   3.200  14.745  0.00  0.00    +0.000 OA
ENDROOT
BRANCH   1   2
ATOM      2  C   UNL     1      46.822   4.157  13.923  0.00  0.00    +0.000 A 
ATOM      3  C   UNL     1      45.871   3.960  12.929  0.00  0.00    +0.000 A 
ATOM      4  C   UNL     1      45.444   5.047  12.176  0.00  0.00    +0.000 A 
ATOM      5  F   UNL     1      44.513   4.859  11.230  0.00  0.00    +0.000 F 
ATOM      6  C   UNL     1      45.973   6.322  12.363  0.00  0.00    +0.000 A 
ATOM      7  C   UNL     1      46.958   6.539  13.339  0.00  0.00    +0.000 A 
ATOM      8  C   UNL     1      47.335   5.443  14.131  0.00  0.00    +0.000 A 
BRANCH   7   9
ATOM      9  C   UNL     1      47.635   7.901  13.437  0.00  0.00    +0.000 C 
ATOM     10  C   UNL     1      47.994   8.439  12.039  0.00  0.00    +0.000 C 
ATOM     11  C   UNL     1      49.261   7.796  11.474  0.00  0.00    +0.000 C 
ATOM     12  C   UNL     1      50.421   7.803  12.472  0.00  0.00    +0.000 C 
ATOM     13  N   UNL     1      50.059   7.299  13.793  0.00  0.00    +0.000 NA
ATOM     14  C   UNL     1      48.882   7.972  14.348  0.00  0.00    +0.000 C 
ATOM     15  H   UNL     1      50.845   7.391  14.433  0.00  0.00    +0.000 HD
ENDBRANCH   7   9
ENDBRANCH   1   2
BRANCH   1  16
ATOM     16  C   UNL     1      47.354   3.471  16.146  0.00  0.00    +0.000 C 
BRANCH  16  20
ATOM     17  C   UNL     1      51.340   3.121  17.775  0.00  0.00    +0.000 A 
ATOM     18  C   UNL     1      50.707   1.992  17.244  0.00  0.00    +0.000 A 
ATOM     19  C   UNL     1      49.425   2.102  16.702  0.00  0.00    +0.000 A 
ATOM     20  C   UNL     1      48.763   3.339  16.674  0.00  0.00    +0.000 A 
ATOM     21  C   UNL     1      49.410   4.449  17.223  0.00  0.00    +0.000 A 
ATOM     22  F   UNL     1      48.791   5.642  17.231  0.00  0.00    +0.000 F 
ATOM     23  C   UNL     1      50.682   4.351  17.773  0.00  0.00    +0.000 A 
BRANCH  17  25
ATOM     24  N   UNL     1      52.825   3.522  19.658  0.00  0.00    +0.000 N 
ATOM     25  C   UNL     1      52.690   3.041  18.385  0.00  0.00    +0.000 C 
ATOM     26  O   UNL     1      53.632   2.536  17.794  0.00  0.00    +0.000 OA
ATOM     27  H   UNL     1      53.720   3.366  20.103  0.00  0.00    +0.000 HD
ATOM     28  H   UNL     1      52.030   3.705  20.255  0.00  0.00    +0.000 HD
ENDBRANCH  17  25
ENDBRANCH  16  20
ENDBRANCH   1  16
TORSDOF 5
ENDMDL
MODEL 9
REMARK VINA RESULT:    -6.557      4.485      6.251
REMARK INTER + INTRA:          -9.100
REMARK INTER:                  -8.273
REMARK INTRA:                  -0.828
REMARK UNBOUND:                -0.627
REMARK  Name = 
REMARK  5 active torsions:
REMARK  status: ('A' for Active; 'I' for Inactive)
REMARK    1  A    between atoms: C_2  and  C_4
REMARK    2  A    between atoms: C_7  and  C_8
REMARK    3  A    between atoms: C_8  and  O_9
REMARK    4  A    between atoms: O_9  and  C_10
REMARK    5  A    between atoms: C_15  and  C_16
REMARK                            x       y       z     vdW  Elec       q    Type
REMARK                         _______ _______ _______ _____ _____    ______ ____
ROOT
ATOM      1  O   UNL     1      46.545   3.843  15.420  0.00  0.00    +0.000 OA
ENDROOT
BRANCH   1   2
ATOM      2  C   UNL     1      47.537   3.730  16.352  0.00  0.00    +0.000 A 
ATOM      3  C   UNL     1      48.492   2.723  16.418  0.00  0.00    +0.000 A 
ATOM      4  C   UNL     1      49.437   2.754  17.437  0.00  0.00    +0.000 A 
ATOM      5  F   UNL     1      50.370   1.792  17.489  0.00  0.00    +0.000 F 
ATOM      6  C   UNL     1      49.428   3.744  18.416  0.00  0.00    +0.000 A 
ATOM      7  C   UNL     1      48.453   4.753  18.387  0.00  0.00    +0.000 A 
ATOM      8  C   UNL     1      47.542   4.741  17.319  0.00  0.00    +0.000 A 
BRANCH   7   9
ATOM      9  C   UNL     1      48.360   5.745  19.542  0.00  0.00    +0.000 C 
ATOM     10  C   UNL     1      47.490   6.956  19.159  0.00  0.00    +0.000 C 
ATOM     11  C   UNL     1      48.245   7.964  18.291  0.00  0.00    +0.000 C 
ATOM     12  C   UNL     1      49.616   8.326  18.864  0.00  0.00    +0.000 C 
ATOM     13  N   UNL     1      50.422   7.164  19.231  0.00  0.00    +0.000 NA
ATOM     14  C   UNL     1      49.706   6.242  20.116  0.00  0.00    +0.000 C 
ATOM     15  H   UNL     1      51.291   7.462  19.670  0.00  0.00    +0.000 HD
ENDBRANCH   7   9
ENDBRANCH   1   2
BRANCH   1  16
ATOM     16  C   UNL     1      46.930   3.835  14.046  0.00  0.00    +0.000 C 
BRANCH  16  20
ATOM     17  C   UNL     1      45.344   7.408  12.207  0.00  0.00    +0.000 A 
ATOM     18  C   UNL     1      46.692   7.362  12.582  0.00  0.00    +0.000 A 
ATOM     19  C   UNL     1      47.214   6.204  13.162  0.00  0.00    +0.000 A 
ATOM     20  C   UNL     1      46.402   5.077  13.367  0.00  0.00    +0.000 A 
ATOM     21  C   UNL     1      45.057   5.154  12.998  0.00  0.00    +0.000 A 
ATOM     22  F   UNL     1      44.251   4.098  13.204  0.00  0.00    +0.000 F 
ATOM     23  C   UNL     1      44.523   6.303  12.428  0.00  0.00    +0.000 A 
BRANCH  17  25
ATOM     24  N   UNL     1      43.542   8.483  10.978  0.00  0.00    +0.000 N 
ATOM     25  C   UNL     1      44.744   8.628  11.614  0.00  0.00    +0.000 C 
ATOM     26  O   UNL     1      45.278   9.722  11.719  0.00  0.00    +0.000 OA
ATOM     27  H   UNL     1      43.092   9.336  10.672  0.00  0.00    +0.000 HD
ATOM     28  H   UNL     1      42.963   7.663  11.096  0.00  0.00    +0.000 HD
ENDBRANCH  17  25
ENDBRANCH  16  20
ENDBRANCH   1  16
TORSDOF 5
ENDMDL
