MODEL 1
REMARK VINA RESULT:    -7.956      0.000      0.000
REMARK INTER + INTRA:         -10.702
REMARK INTER:                 -10.281
REMARK INTRA:                  -0.421
REMARK UNBOUND:                -0.421
REMARK  Name = 
REMARK  6 active torsions:
REMARK  status: ('A' for Active; 'I' for Inactive)
REMARK    1  A    between atoms: C_1  and  C_2
REMARK    2  A    between atoms: C_2  and  N_3
REMARK    3  A    between atoms: C_2  and  C_16
REMARK    4  A    between atoms: C_4  and  C_6
REMARK    5  A    between atoms: C_19  and  O_20
REMARK    6  A    between atoms: O_20  and  C_21
REMARK                            x       y       z     vdW  Elec       q    Type
REMARK                         _______ _______ _______ _____ _____    ______ ____
ROOT
ATOM      1  C   UNL     1      42.859   5.005  13.296  0.00  0.00    +0.000 C 
ATOM      2  C   UNL     1      44.216   4.361  13.000  0.00  0.00    +0.000 C 
ENDROOT
BRANCH   2   3
ATOM      3  C   UNL     1      44.544   4.315  11.518  0.00  0.00    +0.000 A 
ATOM      4  C   UNL     1      45.361   5.316  10.971  0.00  0.00    +0.000 A 
ATOM      5  C   UNL     1      45.666   5.322   9.610  0.00  0.00    +0.000 A 
ATOM      6  C   UNL     1      45.186   4.309   8.777  0.00  0.00    +0.000 A 
ATOM      7  C   UNL     1      44.327   3.343   9.297  0.00  0.00    +0.000 A 
ATOM      8  C   UNL     1      44.001   3.350  10.656  0.00  0.00    +0.000 A 
BRANCH   6   9
ATOM      9  O   UNL     1      45.434   4.236   7.426  0.00  0.00    +0.000 OA
BRANCH   9  10
ATOM     10  C   UNL     1      46.313   3.266   6.965  0.00  0.00    +0.000 A 
ATOM     11  C   UNL     1      46.836   3.441   5.691  0.00  0.00    +0.000 A 
ATOM     12  N   UNL     1      47.729   2.579   5.145  0.00  0.00    +0.000 NA
ATOM     13  C   UNL     1      48.064   1.528   5.928  0.00  0.00    +0.000 A 
ATOM     14  C   UNL     1      47.517   1.335   7.187  0.00  0.00    +0.000 A 
ATOM     15  N   UNL     1      46.621   2.190   7.726  0.00  0.00    +0.000 NA
ENDBRANCH   9  10
ENDBRANCH   6   9
ENDBRANCH   2   3
BRANCH   2  16
ATOM     16  N   UNL     1      45.292   5.049  13.689  0.00  0.00    +0.000 N 
ATOM     17  C   UNL     1      46.449   4.439  14.089  0.00  0.00    +0.000 C 
ATOM     18  O   UNL     1      46.644   3.237  13.900  0.00  0.00    +0.000 OA
ATOM     19  H   UNL     1      45.161   6.044  13.838  0.00  0.00    +0.000 HD
BRANCH  17  20
ATOM     20  C   UNL     1      47.455   5.278  14.760  0.00  0.00    +0.000 A 
ATOM     21  C   UNL     1      48.073   6.298  14.048  0.00  0.00    +0.000 A 
ATOM     22  S   UNL     1      49.246   7.154  14.938  0.00  0.00    +0.000 S 
ATOM     23  C   UNL     1      48.979   6.196  16.316  0.00  0.00    +0.000 A 
ATOM     24  N   UNL     1      49.705   6.394  17.449  0.00  0.00    +0.000 NA
ATOM     25  C   UNL     1      49.402   5.603  18.424  0.00  0.00    +0.000 A 
ATOM     26  N   UNL     1      48.427   4.643  18.371  0.00  0.00    +0.000 N 
ATOM     27  C   UNL     1      47.658   4.419  17.255  0.00  0.00    +0.000 A 
ATOM     28  O   UNL     1      46.776   3.566  17.261  0.00  0.00    +0.000 OA
ATOM     29  C   UNL     1      47.980   5.257  16.113  0.00  0.00    +0.000 A 
ATOM     30  H   UNL     1      48.224   4.066  19.175  0.00  0.00    +0.000 HD
ENDBRANCH  17  20
ENDBRANCH   2  16
TORSDOF 5
ENDMDL
MODEL 2
REMARK VINA RESULT:    -7.800      1.949      3.129
REMARK INTER + INTRA:         -10.501
REMARK INTER:                 -10.594
REMARK INTRA:                   0.093
REMARK UNBOUND:                -0.421
REMARK  Name = 
REMARK  6 active torsions:
REMARK  status: ('A' for Active; 'I' for Inactive)
REMARK    1  A    between atoms: C_1  and  C_2
REMARK    2  A    between atoms: C_2  and  N_3
REMARK    3  A    between atoms: C_2  and  C_16
REMARK    4  A    between atoms: C_4  and  C_6
REMARK    5  A    between atoms: C_19  and  O_20
REMARK    6  A    between atoms: O_20  and  C_21
REMARK                            x       y       z     vdW  Elec       q    Type
REMARK                         _______ _______ _______ _____ _____    ______ ____
ROOT
ATOM      1  C   UNL     1      47.922   8.923  12.332  0.00  0.00    +0.000 C 
ATOM      2  C   UNL     1      46.786   8.210  13.073  0.00  0.00    +0.000 C 
ENDROOT
BRANCH   2   3
ATOM      3  C   UNL     1      46.101   7.147  12.232  0.00  0.00    +0.000 A 
ATOM      4  C   UNL     1      45.005   6.457  12.770  0.00  0.00    +0.000 A 
ATOM      5  C   UNL     1      44.364   5.457  12.038  0.00  0.00    +0.000 A 
ATOM      6  C   UNL     1      44.787   5.153  10.743  0.00  0.00    +0.000 A 
ATOM      7  C   UNL     1      45.910   5.790  10.220  0.00  0.00    +0.000 A 
ATOM      8  C   UNL     1      46.568   6.774  10.962  0.00  0.00    +0.000 A 
BRANCH   6   9
ATOM      9  O   UNL     1      44.216   4.183   9.950  0.00  0.00    +0.000 OA
BRANCH   9  10
ATOM     10  C   UNL     1      45.021   3.510   9.043  0.00  0.00    +0.000 A 
ATOM     11  C   UNL     1      45.278   2.170   9.298  0.00  0.00    +0.000 A 
ATOM     12  N   UNL     1      46.023   1.399   8.467  0.00  0.00    +0.000 NA
ATOM     13  C   UNL     1      46.507   2.036   7.376  0.00  0.00    +0.000 A 
ATOM     14  C   UNL     1      46.278   3.381   7.138  0.00  0.00    +0.000 A 
ATOM     15  N   UNL     1      45.544   4.150   7.971  0.00  0.00    +0.000 NA
ENDBRANCH   9  10
ENDBRANCH   6   9
ENDBRANCH   2   3
BRANCH   2  16
ATOM     16  N   UNL     1      47.257   7.595  14.300  0.00  0.00    +0.000 N 
ATOM     17  C   UNL     1      48.370   6.805  14.373  0.00  0.00    +0.000 C 
ATOM     18  O   UNL     1      49.045   6.545  13.376  0.00  0.00    +0.000 OA
ATOM     19  H   UNL     1      46.727   7.811  15.138  0.00  0.00    +0.000 HD
BRANCH  17  20
ATOM     20  C   UNL     1      48.729   6.269  15.697  0.00  0.00    +0.000 A 
ATOM     21  C   UNL     1      49.703   6.914  16.448  0.00  0.00    +0.000 A 
ATOM     22  S   UNL     1      50.048   6.157  17.935  0.00  0.00    +0.000 S 
ATOM     23  C   UNL     1      48.907   4.932  17.638  0.00  0.00    +0.000 A 
ATOM     24  N   UNL     1      48.728   3.921  18.530  0.00  0.00    +0.000 NA
ATOM     25  C   UNL     1      47.831   3.058  18.187  0.00  0.00    +0.000 A 
ATOM     26  N   UNL     1      47.087   3.125  17.039  0.00  0.00    +0.000 N 
ATOM     27  C   UNL     1      47.222   4.135  16.117  0.00  0.00    +0.000 A 
ATOM     28  O   UNL     1      46.515   4.170  15.116  0.00  0.00    +0.000 OA
ATOM     29  C   UNL     1      48.245   5.117  16.435  0.00  0.00    +0.000 A 
ATOM     30  H   UNL     1      46.385   2.427  16.835  0.00  0.00    +0.000 HD
ENDBRANCH  17  20
ENDBRANCH   2  16
TORSDOF 5
ENDMDL
MODEL 3
REMARK VINA RESULT:    -7.165      4.030      8.411
REMARK INTER + INTRA:          -9.680
REMARK INTER:                  -8.761
REMARK INTRA:                  -0.919
REMARK UNBOUND:                -0.421
REMARK  Name = 
REMARK  6 active torsions:
REMARK  status: ('A' for Active; 'I' for Inactive)
REMARK    1  A    between atoms: C_1  and  C_2
REMARK    2  A    between atoms: C_2  and  N_3
REMARK    3  A    between atoms: C_2  and  C_16
REMARK    4  A    between atoms: C_4  and  C_6
REMARK    5  A    between atoms: C_19  and  O_20
REMARK    6  A    between atoms: O_20  and  C_21
REMARK                            x       y       z     vdW  Elec       q    Type
REMARK                         _______ _______ _______ _____ _____    ______ ____
ROOT
ATOM      1  C   UNL     1      48.296   9.167  14.605  0.00  0.00    +0.000 C 
ATOM      2  C   UNL     1      48.447   7.698  14.196  0.00  0.00    +0.000 C 
ENDROOT
BRANCH   2   3
ATOM      3  C   UNL     1      48.932   6.811  15.329  0.00  0.00    +0.000 A 
ATOM      4  C   UNL     1      50.253   6.946  15.781  0.00  0.00    +0.000 A 
ATOM      5  C   UNL     1      50.743   6.133  16.803  0.00  0.00    +0.000 A 
ATOM      6  C   UNL     1      49.910   5.195  17.416  0.00  0.00    +0.000 A 
ATOM      7  C   UNL     1      48.615   5.012  16.938  0.00  0.00    +0.000 A 
ATOM      8  C   UNL     1      48.131   5.808  15.897  0.00  0.00    +0.000 A 
BRANCH   6   9
ATOM      9  O   UNL     1      50.307   4.352  18.428  0.00  0.00    +0.000 OA
BRANCH   9  10
ATOM     10  C   UNL     1      51.113   3.269  18.112  0.00  0.00    +0.000 A 
ATOM     11  C   UNL     1      50.525   2.223  17.414  0.00  0.00    +0.000 A 
ATOM     12  N   UNL     1      51.218   1.127  17.020  0.00  0.00    +0.000 NA
ATOM     13  C   UNL     1      52.525   1.121  17.368  0.00  0.00    +0.000 A 
ATOM     14  C   UNL     1      53.107   2.148  18.092  0.00  0.00    +0.000 A 
ATOM     15  N   UNL     1      52.413   3.235  18.492  0.00  0.00    +0.000 NA
ENDBRANCH   9  10
ENDBRANCH   6   9
ENDBRANCH   2   3
BRANCH   2  16
ATOM     16  N   UNL     1      47.200   7.157  13.689  0.00  0.00    +0.000 N 
ATOM     17  C   UNL     1      46.958   6.927  12.363  0.00  0.00    +0.000 C 
ATOM     18  O   UNL     1      47.796   7.188  11.498  0.00  0.00    +0.000 OA
ATOM     19  H   UNL     1      46.503   6.916  14.386  0.00  0.00    +0.000 HD
BRANCH  17  20
ATOM     20  C   UNL     1      45.649   6.356  12.008  0.00  0.00    +0.000 A 
ATOM     21  C   UNL     1      44.678   7.179  11.450  0.00  0.00    +0.000 A 
ATOM     22  S   UNL     1      43.200   6.394  11.134  0.00  0.00    +0.000 S 
ATOM     23  C   UNL     1      43.794   4.917  11.731  0.00  0.00    +0.000 A 
ATOM     24  N   UNL     1      42.996   3.816  11.775  0.00  0.00    +0.000 NA
ATOM     25  C   UNL     1      43.568   2.759  12.247  0.00  0.00    +0.000 A 
ATOM     26  N   UNL     1      44.871   2.702  12.664  0.00  0.00    +0.000 N 
ATOM     27  C   UNL     1      45.718   3.784  12.623  0.00  0.00    +0.000 A 
ATOM     28  O   UNL     1      46.887   3.679  12.981  0.00  0.00    +0.000 OA
ATOM     29  C   UNL     1      45.116   5.012  12.134  0.00  0.00    +0.000 A 
ATOM     30  H   UNL     1      45.268   1.839  13.007  0.00  0.00    +0.000 HD
ENDBRANCH  17  20
ENDBRANCH   2  16
TORSDOF 5
ENDMDL
MODEL 4
REMARK VINA RESULT:    -7.156      3.266      5.064
REMARK INTER + INTRA:          -9.669
REMARK INTER:                  -8.380
REMARK INTRA:                  -1.290
REMARK UNBOUND:                -0.421
REMARK  Name = 
REMARK  6 active torsions:
REMARK  status: ('A' for Active; 'I' for Inactive)
REMARK    1  A    between atoms: C_1  and  C_2
REMARK    2  A    between atoms: C_2  and  N_3
REMARK    3  A    between atoms: C_2  and  C_16
REMARK    4  A    between atoms: C_4  and  C_6
REMARK    5  A    between atoms: C_19  and  O_20
REMARK    6  A    between atoms: O_20  and  C_21
REMARK                            x       y       z     vdW  Elec       q    Type
REMARK                         _______ _______ _______ _____ _____    ______ ____
ROOT
ATOM      1  C   UNL     1      50.336   8.653  13.129  0.00  0.00    +0.000 C 
ATOM      2  C   UNL     1      49.029   8.667  13.928  0.00  0.00    +0.000 C 
ENDROOT
BRANCH   2   3
ATOM      3  C   UNL     1      47.845   8.130  13.143  0.00  0.00    +0.000 A 
ATOM      4  C   UNL     1      46.591   8.734  13.307  0.00  0.00    +0.000 A 
ATOM      5  C   UNL     1      45.474   8.256  12.621  0.00  0.00    +0.000 A 
ATOM      6  C   UNL     1      45.599   7.184  11.735  0.00  0.00    +0.000 A 
ATOM      7  C   UNL     1      46.827   6.538  11.609  0.00  0.00    +0.000 A 
ATOM      8  C   UNL     1      47.941   7.001  12.313  0.00  0.00    +0.000 A 
BRANCH   6   9
ATOM      9  O   UNL     1      44.554   6.645  11.020  0.00  0.00    +0.000 OA
BRANCH   9  10
ATOM     10  C   UNL     1      44.128   5.363  11.332  0.00  0.00    +0.000 A 
ATOM     11  C   UNL     1      44.018   4.459  10.285  0.00  0.00    +0.000 A 
ATOM     12  N   UNL     1      43.643   3.169  10.470  0.00  0.00    +0.000 NA
ATOM     13  C   UNL     1      43.372   2.831  11.752  0.00  0.00    +0.000 A 
ATOM     14  C   UNL     1      43.450   3.740  12.794  0.00  0.00    +0.000 A 
ATOM     15  N   UNL     1      43.814   5.027  12.606  0.00  0.00    +0.000 NA
ENDBRANCH   9  10
ENDBRANCH   6   9
ENDBRANCH   2   3
BRANCH   2  16
ATOM     16  N   UNL     1      49.151   7.906  15.158  0.00  0.00    +0.000 N 
ATOM     17  C   UNL     1      48.629   8.312  16.354  0.00  0.00    +0.000 C 
ATOM     18  O   UNL     1      48.028   9.381  16.468  0.00  0.00    +0.000 OA
ATOM     19  H   UNL     1      49.625   7.012  15.083  0.00  0.00    +0.000 HD
BRANCH  17  20
ATOM     20  C   UNL     1      48.820   7.419  17.509  0.00  0.00    +0.000 A 
ATOM     21  C   UNL     1      49.193   7.961  18.733  0.00  0.00    +0.000 A 
ATOM     22  S   UNL     1      49.422   6.806  19.964  0.00  0.00    +0.000 S 
ATOM     23  C   UNL     1      49.033   5.529  18.912  0.00  0.00    +0.000 A 
ATOM     24  N   UNL     1      49.073   4.239  19.344  0.00  0.00    +0.000 NA
ATOM     25  C   UNL     1      48.753   3.365  18.449  0.00  0.00    +0.000 A 
ATOM     26  N   UNL     1      48.382   3.667  17.166  0.00  0.00    +0.000 N 
ATOM     27  C   UNL     1      48.312   4.955  16.691  0.00  0.00    +0.000 A 
ATOM     28  O   UNL     1      47.947   5.180  15.541  0.00  0.00    +0.000 OA
ATOM     29  C   UNL     1      48.697   5.979  17.646  0.00  0.00    +0.000 A 
ATOM     30  H   UNL     1      48.124   2.938  16.516  0.00  0.00    +0.000 HD
ENDBRANCH  17  20
ENDBRANCH   2  16
TORSDOF 5
ENDMDL
MODEL 5
REMARK VINA RESULT:    -7.016      4.220      6.175
REMARK INTER + INTRA:          -9.488
REMARK INTER:                  -8.544
REMARK INTRA:                  -0.944
REMARK UNBOUND:                -0.421
REMARK  Name = 
REMARK  6 active torsions:
REMARK  status: ('A' for Active; 'I' for Inactive)
REMARK    1  A    between atoms: C_1  and  C_2
REMARK    2  A    between atoms: C_2  and  N_3
REMARK    3  A    between atoms: C_2  and  C_16
REMARK    4  A    between atoms: C_4  and  C_6
REMARK    5  A    between atoms: C_19  and  O_20
REMARK    6  A    between atoms: O_20  and  C_21
REMARK                            x       y       z     vdW  Elec       q    Type
REMARK                         _______ _______ _______ _____ _____    ______ ____
ROOT
ATOM      1  C   UNL     1      44.393   4.259  12.916  0.00  0.00    +0.000 C 
ATOM      2  C   UNL     1      45.633   5.157  12.893  0.00  0.00    +0.000 C 
ENDROOT
BRANCH   2   3
ATOM      3  C   UNL     1      45.331   6.579  12.454  0.00  0.00    +0.000 A 
ATOM      4  C   UNL     1      44.330   6.797  11.497  0.00  0.00    +0.000 A 
ATOM      5  C   UNL     1      44.039   8.086  11.050  0.00  0.00    +0.000 A 
ATOM      6  C   UNL     1      44.723   9.184  11.577  0.00  0.00    +0.000 A 
ATOM      7  C   UNL     1      45.759   8.975  12.485  0.00  0.00    +0.000 A 
ATOM      8  C   UNL     1      46.068   7.682  12.914  0.00  0.00    +0.000 A 
BRANCH   6   9
ATOM      9  O   UNL     1      44.504  10.488  11.196  0.00  0.00    +0.000 OA
BRANCH   9  10
ATOM     10  C   UNL     1      43.196  10.930  11.067  0.00  0.00    +0.000 A 
ATOM     11  C   UNL     1      42.693  11.052   9.779  0.00  0.00    +0.000 A 
ATOM     12  N   UNL     1      41.419  11.443   9.527  0.00  0.00    +0.000 NA
ATOM     13  C   UNL     1      40.677  11.717  10.624  0.00  0.00    +0.000 A 
ATOM     14  C   UNL     1      41.188  11.628  11.908  0.00  0.00    +0.000 A 
ATOM     15  N   UNL     1      42.459  11.248  12.157  0.00  0.00    +0.000 NA
ENDBRANCH   9  10
ENDBRANCH   6   9
ENDBRANCH   2   3
BRANCH   2  16
ATOM     16  N   UNL     1      46.280   5.203  14.191  0.00  0.00    +0.000 N 
ATOM     17  C   UNL     1      47.068   4.199  14.681  0.00  0.00    +0.000 C 
ATOM     18  O   UNL     1      47.266   3.164  14.044  0.00  0.00    +0.000 OA
ATOM     19  H   UNL     1      46.146   6.056  14.725  0.00  0.00    +0.000 HD
BRANCH  17  20
ATOM     20  C   UNL     1      47.670   4.404  16.009  0.00  0.00    +0.000 A 
ATOM     21  C   UNL     1      47.375   3.511  17.033  0.00  0.00    +0.000 A 
ATOM     22  S   UNL     1      48.104   3.898  18.523  0.00  0.00    +0.000 S 
ATOM     23  C   UNL     1      48.845   5.279  17.864  0.00  0.00    +0.000 A 
ATOM     24  N   UNL     1      49.605   6.096  18.642  0.00  0.00    +0.000 NA
ATOM     25  C   UNL     1      50.113   7.107  18.020  0.00  0.00    +0.000 A 
ATOM     26  N   UNL     1      49.942   7.365  16.686  0.00  0.00    +0.000 N 
ATOM     27  C   UNL     1      49.197   6.559  15.858  0.00  0.00    +0.000 A 
ATOM     28  O   UNL     1      49.093   6.813  14.662  0.00  0.00    +0.000 OA
ATOM     29  C   UNL     1      48.570   5.424  16.513  0.00  0.00    +0.000 A 
ATOM     30  H   UNL     1      50.381   8.164  16.251  0.00  0.00    +0.000 HD
ENDBRANCH  17  20
ENDBRANCH   2  16
TORSDOF 5
ENDMDL
MODEL 6
REMARK VINA RESULT:    -6.996      2.637      4.286
REMARK INTER + INTRA:          -9.462
REMARK INTER:                  -8.482
REMARK INTRA:                  -0.980
REMARK UNBOUND:                -0.421
REMARK  Name = 
REMARK  6 active torsions:
REMARK  status: ('A' for Active; 'I' for Inactive)
REMARK    1  A    between atoms: C_1  and  C_2
REMARK    2  A    between atoms: C_2  and  N_3
REMARK    3  A    between atoms: C_2  and  C_16
REMARK    4  A    between atoms: C_4  and  C_6
REMARK    5  A    between atoms: C_19  and  O_20
REMARK    6  A    between atoms: O_20  and  C_21
REMARK                            x       y       z     vdW  Elec       q    Type
REMARK                         _______ _______ _______ _____ _____    ______ ____
ROOT
ATOM      1  C   UNL     1      49.752   7.664  13.530  0.00  0.00    +0.000 C 
ATOM      2  C   UNL     1      48.332   7.930  14.038  0.00  0.00    +0.000 C 
ENDROOT
BRANCH   2   3
ATOM      3  C   UNL     1      47.265   7.218  13.226  0.00  0.00    +0.000 A 
ATOM      4  C   UNL     1      47.162   5.822  13.314  0.00  0.00    +0.000 A 
ATOM      5  C   UNL     1      46.211   5.128  12.567  0.00  0.00    +0.000 A 
ATOM      6  C   UNL     1      45.322   5.822  11.742  0.00  0.00    +0.000 A 
ATOM      7  C   UNL     1      45.452   7.202  11.602  0.00  0.00    +0.000 A 
ATOM      8  C   UNL     1      46.421   7.895  12.331  0.00  0.00    +0.000 A 
BRANCH   6   9
ATOM      9  O   UNL     1      44.355   5.222  10.970  0.00  0.00    +0.000 OA
BRANCH   9  10
ATOM     10  C   UNL     1      44.753   4.349   9.968  0.00  0.00    +0.000 A 
ATOM     11  C   UNL     1      44.391   3.017  10.109  0.00  0.00    +0.000 A 
ATOM     12  N   UNL     1      44.694   2.076   9.180  0.00  0.00    +0.000 NA
ATOM     13  C   UNL     1      45.386   2.530   8.111  0.00  0.00    +0.000 A 
ATOM     14  C   UNL     1      45.776   3.853   7.984  0.00  0.00    +0.000 A 
ATOM     15  N   UNL     1      45.482   4.786   8.915  0.00  0.00    +0.000 NA
ENDBRANCH   9  10
ENDBRANCH   6   9
ENDBRANCH   2   3
BRANCH   2  16
ATOM     16  N   UNL     1      48.185   7.548  15.430  0.00  0.00    +0.000 N 
ATOM     17  C   UNL     1      48.609   8.319  16.476  0.00  0.00    +0.000 C 
ATOM     18  O   UNL     1      49.170   9.400  16.296  0.00  0.00    +0.000 OA
ATOM     19  H   UNL     1      47.707   6.669  15.602  0.00  0.00    +0.000 HD
BRANCH  17  20
ATOM     20  C   UNL     1      48.370   7.800  17.834  0.00  0.00    +0.000 A 
ATOM     21  C   UNL     1      47.913   8.665  18.820  0.00  0.00    +0.000 A 
ATOM     22  S   UNL     1      47.727   7.938  20.350  0.00  0.00    +0.000 S 
ATOM     23  C   UNL     1      48.251   6.433  19.758  0.00  0.00    +0.000 A 
ATOM     24  N   UNL     1      48.356   5.361  20.589  0.00  0.00    +0.000 NA
ATOM     25  C   UNL     1      48.761   4.277  20.015  0.00  0.00    +0.000 A 
ATOM     26  N   UNL     1      49.055   4.167  18.682  0.00  0.00    +0.000 N 
ATOM     27  C   UNL     1      48.948   5.218  17.803  0.00  0.00    +0.000 A 
ATOM     28  O   UNL     1      49.195   5.067  16.611  0.00  0.00    +0.000 OA
ATOM     29  C   UNL     1      48.530   6.474  18.402  0.00  0.00    +0.000 A 
ATOM     30  H   UNL     1      49.351   3.286  18.287  0.00  0.00    +0.000 HD
ENDBRANCH  17  20
ENDBRANCH   2  16
TORSDOF 5
ENDMDL
MODEL 7
REMARK VINA RESULT:    -6.989      4.183      8.893
REMARK INTER + INTRA:          -9.453
REMARK INTER:                  -8.504
REMARK INTRA:                  -0.949
REMARK UNBOUND:                -0.421
REMARK  Name = 
REMARK  6 active torsions:
REMARK  status: ('A' for Active; 'I' for Inactive)
REMARK    1  A    between atoms: C_1  and  C_2
REMARK    2  A    between atoms: C_2  and  N_3
REMARK    3  A    between atoms: C_2  and  C_16
REMARK    4  A    between atoms: C_4  and  C_6
REMARK    5  A    between atoms: C_19  and  O_20
REMARK    6  A    between atoms: O_20  and  C_21
REMARK                            x       y       z     vdW  Elec       q    Type
REMARK                         _______ _______ _______ _____ _____    ______ ____
ROOT
ATOM      1  C   UNL     1      48.166   9.225  15.662  0.00  0.00    +0.000 C 
ATOM      2  C   UNL     1      48.692   7.924  15.047  0.00  0.00    +0.000 C 
ENDROOT
BRANCH   2   3
ATOM      3  C   UNL     1      49.460   7.065  16.036  0.00  0.00    +0.000 A 
ATOM      4  C   UNL     1      50.849   6.940  15.892  0.00  0.00    +0.000 A 
ATOM      5  C   UNL     1      51.587   6.141  16.766  0.00  0.00    +0.000 A 
ATOM      6  C   UNL     1      50.953   5.481  17.820  0.00  0.00    +0.000 A 
ATOM      7  C   UNL     1      49.566   5.551  17.939  0.00  0.00    +0.000 A 
ATOM      8  C   UNL     1      48.823   6.331  17.049  0.00  0.00    +0.000 A 
BRANCH   6   9
ATOM      9  O   UNL     1      51.599   4.673  18.727  0.00  0.00    +0.000 OA
BRANCH   9  10
ATOM     10  C   UNL     1      51.903   3.371  18.357  0.00  0.00    +0.000 A 
ATOM     11  C   UNL     1      53.116   2.857  18.792  0.00  0.00    +0.000 A 
ATOM     12  N   UNL     1      53.510   1.587  18.522  0.00  0.00    +0.000 NA
ATOM     13  C   UNL     1      52.637   0.862  17.787  0.00  0.00    +0.000 A 
ATOM     14  C   UNL     1      51.440   1.384  17.324  0.00  0.00    +0.000 A 
ATOM     15  N   UNL     1      51.054   2.652  17.586  0.00  0.00    +0.000 NA
ENDBRANCH   9  10
ENDBRANCH   6   9
ENDBRANCH   2   3
BRANCH   2  16
ATOM     16  N   UNL     1      47.615   7.130  14.486  0.00  0.00    +0.000 N 
ATOM     17  C   UNL     1      47.777   6.269  13.436  0.00  0.00    +0.000 C 
ATOM     18  O   UNL     1      48.866   6.127  12.879  0.00  0.00    +0.000 OA
ATOM     19  H   UNL     1      46.713   7.216  14.942  0.00  0.00    +0.000 HD
BRANCH  17  20
ATOM     20  C   UNL     1      46.590   5.518  12.993  0.00  0.00    +0.000 A 
ATOM     21  C   UNL     1      46.570   4.136  13.131  0.00  0.00    +0.000 A 
ATOM     22  S   UNL     1      45.156   3.398  12.534  0.00  0.00    +0.000 S 
ATOM     23  C   UNL     1      44.508   4.897  12.062  0.00  0.00    +0.000 A 
ATOM     24  N   UNL     1      43.301   4.965  11.439  0.00  0.00    +0.000 NA
ATOM     25  C   UNL     1      42.921   6.162  11.137  0.00  0.00    +0.000 A 
ATOM     26  N   UNL     1      43.635   7.297  11.415  0.00  0.00    +0.000 N 
ATOM     27  C   UNL     1      44.851   7.278  12.056  0.00  0.00    +0.000 A 
ATOM     28  O   UNL     1      45.442   8.322  12.310  0.00  0.00    +0.000 OA
ATOM     29  C   UNL     1      45.344   5.953  12.389  0.00  0.00    +0.000 A 
ATOM     30  H   UNL     1      43.276   8.209  11.168  0.00  0.00    +0.000 HD
ENDBRANCH  17  20
ENDBRANCH   2  16
TORSDOF 5
ENDMDL
MODEL 8
REMARK VINA RESULT:    -6.893      4.185      6.128
REMARK INTER + INTRA:          -9.329
REMARK INTER:                  -8.528
REMARK INTRA:                  -0.801
REMARK UNBOUND:                -0.421
REMARK  Name = 
REMARK  6 active torsions:
REMARK  status: ('A' for Active; 'I' for Inactive)
REMARK    1  A    between atoms: C_1  and  C_2
REMARK    2  A    between atoms: C_2  and  N_3
REMARK    3  A    between atoms: C_2  and  C_16
REMARK    4  A    between atoms: C_4  and  C_6
REMARK    5  A    between atoms: C_19  and  O_20
REMARK    6  A    between atoms: O_20  and  C_21
REMARK                            x       y       z     vdW  Elec       q    Type
REMARK                         _______ _______ _______ _____ _____    ______ ____
ROOT
ATOM      1  C   UNL     1      44.343   4.715  13.252  0.00  0.00    +0.000 C 
ATOM      2  C   UNL     1      45.515   5.633  12.893  0.00  0.00    +0.000 C 
ENDROOT
BRANCH   2   3
ATOM      3  C   UNL     1      45.073   6.961  12.305  0.00  0.00    +0.000 A 
ATOM      4  C   UNL     1      45.653   8.145  12.785  0.00  0.00    +0.000 A 
ATOM      5  C   UNL     1      45.257   9.386  12.287  0.00  0.00    +0.000 A 
ATOM      6  C   UNL     1      44.298   9.464  11.275  0.00  0.00    +0.000 A 
ATOM      7  C   UNL     1      43.674   8.300  10.830  0.00  0.00    +0.000 A 
ATOM      8  C   UNL     1      44.052   7.058  11.346  0.00  0.00    +0.000 A 
BRANCH   6   9
ATOM      9  O   UNL     1      43.847  10.642  10.725  0.00  0.00    +0.000 OA
BRANCH   9  10
ATOM     10  C   UNL     1      42.533  11.020  10.956  0.00  0.00    +0.000 A 
ATOM     11  C   UNL     1      41.683  11.059   9.859  0.00  0.00    +0.000 A 
ATOM     12  N   UNL     1      40.370  11.382   9.964  0.00  0.00    +0.000 NA
ATOM     13  C   UNL     1      39.951  11.675  11.216  0.00  0.00    +0.000 A 
ATOM     14  C   UNL     1      40.805  11.669  12.307  0.00  0.00    +0.000 A 
ATOM     15  N   UNL     1      42.114  11.356  12.199  0.00  0.00    +0.000 NA
ENDBRANCH   9  10
ENDBRANCH   6   9
ENDBRANCH   2   3
BRANCH   2  16
ATOM     16  N   UNL     1      46.355   5.897  14.047  0.00  0.00    +0.000 N 
ATOM     17  C   UNL     1      47.337   5.049  14.478  0.00  0.00    +0.000 C 
ATOM     18  O   UNL     1      47.561   3.978  13.912  0.00  0.00    +0.000 OA
ATOM     19  H   UNL     1      46.202   6.783  14.516  0.00  0.00    +0.000 HD
BRANCH  17  20
ATOM     20  C   UNL     1      48.118   5.467  15.654  0.00  0.00    +0.000 A 
ATOM     21  C   UNL     1      48.976   6.555  15.548  0.00  0.00    +0.000 A 
ATOM     22  S   UNL     1      49.847   6.895  16.972  0.00  0.00    +0.000 S 
ATOM     23  C   UNL     1      49.114   5.599  17.793  0.00  0.00    +0.000 A 
ATOM     24  N   UNL     1      49.455   5.312  19.079  0.00  0.00    +0.000 NA
ATOM     25  C   UNL     1      48.824   4.308  19.589  0.00  0.00    +0.000 A 
ATOM     26  N   UNL     1      47.872   3.574  18.932  0.00  0.00    +0.000 N 
ATOM     27  C   UNL     1      47.484   3.837  17.640  0.00  0.00    +0.000 A 
ATOM     28  O   UNL     1      46.607   3.171  17.100  0.00  0.00    +0.000 OA
ATOM     29  C   UNL     1      48.189   4.937  17.003  0.00  0.00    +0.000 A 
ATOM     30  H   UNL     1      47.399   2.809  19.391  0.00  0.00    +0.000 HD
ENDBRANCH  17  20
ENDBRANCH   2  16
TORSDOF 5
ENDMDL
MODEL 9
REMARK VINA RESULT:    -6.762      3.240      4.417
REMARK INTER + INTRA:          -9.159
REMARK INTER:                  -8.111
REMARK INTRA:                  -1.048
REMARK UNBOUND:                -0.421
REMARK  Name = 
REMARK  6 active torsions:
REMARK  status: ('A' for Active; 'I' for Inactive)
REMARK    1  A    between atoms: C_1  and  C_2
REMARK    2  A    between atoms: C_2  and  N_3
REMARK    3  A    between atoms: C_2  and  C_16
REMARK    4  A    between atoms: C_4  and  C_6
REMARK    5  A    between atoms: C_19  and  O_20
REMARK    6  A    between atoms: O_20  and  C_21
REMARK                            x       y       z     vdW  Elec       q    Type
REMARK                         _______ _______ _______ _____ _____    ______ ____
ROOT
ATOM      1  C   UNL     1      47.355   9.746  12.564  0.00  0.00    +0.000 C 
ATOM      2  C   UNL     1      46.976   8.567  13.465  0.00  0.00    +0.000 C 
ENDROOT
BRANCH   2   3
ATOM      3  C   UNL     1      46.217   7.476  12.731  0.00  0.00    +0.000 A 
ATOM      4  C   UNL     1      45.098   7.825  11.962  0.00  0.00    +0.000 A 
ATOM      5  C   UNL     1      44.361   6.848  11.292  0.00  0.00    +0.000 A 
ATOM      6  C   UNL     1      44.750   5.509  11.353  0.00  0.00    +0.000 A 
ATOM      7  C   UNL     1      45.825   5.142  12.160  0.00  0.00    +0.000 A 
ATOM      8  C   UNL     1      46.549   6.117  12.852  0.00  0.00    +0.000 A 
BRANCH   6   9
ATOM      9  O   UNL     1      44.084   4.480  10.727  0.00  0.00    +0.000 OA
BRANCH   9  10
ATOM     10  C   UNL     1      44.736   3.782   9.721  0.00  0.00    +0.000 A 
ATOM     11  C   UNL     1      45.295   4.528   8.692  0.00  0.00    +0.000 A 
ATOM     12  N   UNL     1      45.985   3.961   7.672  0.00  0.00    +0.000 NA
ATOM     13  C   UNL     1      46.079   2.613   7.724  0.00  0.00    +0.000 A 
ATOM     14  C   UNL     1      45.494   1.865   8.732  0.00  0.00    +0.000 A 
ATOM     15  N   UNL     1      44.800   2.430   9.742  0.00  0.00    +0.000 NA
ENDBRANCH   9  10
ENDBRANCH   6   9
ENDBRANCH   2   3
BRANCH   2  16
ATOM     16  N   UNL     1      48.146   7.977  14.087  0.00  0.00    +0.000 N 
ATOM     17  C   UNL     1      48.561   8.274  15.356  0.00  0.00    +0.000 C 
ATOM     18  O   UNL     1      47.964   9.093  16.056  0.00  0.00    +0.000 OA
ATOM     19  H   UNL     1      48.642   7.285  13.536  0.00  0.00    +0.000 HD
BRANCH  17  20
ATOM     20  C   UNL     1      49.759   7.576  15.853  0.00  0.00    +0.000 A 
ATOM     21  C   UNL     1      49.667   6.808  17.007  0.00  0.00    +0.000 A 
ATOM     22  S   UNL     1      51.139   6.098  17.488  0.00  0.00    +0.000 S 
ATOM     23  C   UNL     1      51.964   6.790  16.173  0.00  0.00    +0.000 A 
ATOM     24  N   UNL     1      53.302   6.596  16.014  0.00  0.00    +0.000 NA
ATOM     25  C   UNL     1      53.806   7.171  14.974  0.00  0.00    +0.000 A 
ATOM     26  N   UNL     1      53.090   7.911  14.071  0.00  0.00    +0.000 N 
ATOM     27  C   UNL     1      51.737   8.120  14.181  0.00  0.00    +0.000 A 
ATOM     28  O   UNL     1      51.130   8.765  13.333  0.00  0.00    +0.000 OA
ATOM     29  C   UNL     1      51.121   7.524  15.354  0.00  0.00    +0.000 A 
ATOM     30  H   UNL     1      53.540   8.322  13.265  0.00  0.00    +0.000 HD
ENDBRANCH  17  20
ENDBRANCH   2  16
TORSDOF 5
ENDMDL
