MODEL 1
REMARK VINA RESULT:    -8.782      0.000      0.000
REMARK INTER + INTRA:         -12.872
REMARK INTER:                 -11.862
REMARK INTRA:                  -1.010
REMARK UNBOUND:                -1.010
REMARK  Name = 
REMARK  8 active torsions:
REMARK  status: ('A' for Active; 'I' for Inactive)
REMARK    1  A    between atoms: C_1  and  C_2
REMARK    2  A    between atoms: N_5  and  C_6
REMARK    3  A    between atoms: C_6  and  C_7
REMARK    4  A    between atoms: C_7  and  C_8
REMARK    5  A    between atoms: C_7  and  C_9
REMARK    6  A    between atoms: C_14  and  O_15
REMARK    7  A    between atoms: O_15  and  C_16
REMARK    8  A    between atoms: C_23  and  C_24
REMARK                            x       y       z     vdW  Elec       q    Type
REMARK                         _______ _______ _______ _____ _____    ______ ____
ROOT
ATOM      1  C   UNL     1      43.530   4.851  10.872  0.00  0.00    +0.000 C 
ENDROOT
BRANCH   1   6
ATOM      2  C   UNL     1      46.502   0.470   7.863  0.00  0.00    +0.000 C 
ATOM      3  C   UNL     1      46.155   1.912   8.099  0.00  0.00    +0.000 A 
ATOM      4  N   UNL     1      45.286   2.140   9.131  0.00  0.00    +0.000 NA
ATOM      5  C   UNL     1      44.895   3.402   9.398  0.00  0.00    +0.000 A 
ATOM      6  N   UNL     1      43.978   3.553  10.411  0.00  0.00    +0.000 N 
ATOM      7  C   UNL     1      45.380   4.471   8.657  0.00  0.00    +0.000 A 
ATOM      8  C   UNL     1      46.271   4.247   7.613  0.00  0.00    +0.000 A 
ATOM      9  C   UNL     1      46.658   2.944   7.299  0.00  0.00    +0.000 A 
ATOM     10  H   UNL     1      43.792   2.699  10.925  0.00  0.00    +0.000 HD
BRANCH   9  11
ATOM     11  C   UNL     1      47.585   2.706   6.162  0.00  0.00    +0.000 C 
ATOM     12  N   UNL     1      48.896   2.460   6.464  0.00  0.00    +0.000 N 
ATOM     13  O   UNL     1      47.223   2.735   4.992  0.00  0.00    +0.000 OA
ATOM     14  H   UNL     1      49.298   2.610   7.379  0.00  0.00    +0.000 HD
ATOM     15  H   UNL     1      49.533   2.370   5.682  0.00  0.00    +0.000 HD
ENDBRANCH   9  11
ENDBRANCH   1   6
BRANCH   1  16
ATOM     16  C   UNL     1      43.751   5.081  12.379  0.00  0.00    +0.000 C 
ATOM     17  C   UNL     1      43.326   3.871  13.218  0.00  0.00    +0.000 C 
BRANCH  16  18
ATOM     18  C   UNL     1      45.216   5.437  12.634  0.00  0.00    +0.000 A 
ATOM     19  C   UNL     1      45.899   6.352  11.817  0.00  0.00    +0.000 A 
ATOM     20  C   UNL     1      47.225   6.677  12.085  0.00  0.00    +0.000 A 
ATOM     21  F   UNL     1      47.857   7.558  11.298  0.00  0.00    +0.000 F 
ATOM     22  C   UNL     1      47.899   6.111  13.157  0.00  0.00    +0.000 A 
ATOM     23  C   UNL     1      47.233   5.213  13.987  0.00  0.00    +0.000 A 
ATOM     24  C   UNL     1      45.902   4.868  13.724  0.00  0.00    +0.000 A 
BRANCH  23  25
ATOM     25  O   UNL     1      47.983   4.706  15.020  0.00  0.00    +0.000 OA
BRANCH  25  26
ATOM     26  C   UNL     1      47.299   4.103  16.141  0.00  0.00    +0.000 C 
ATOM     27  C   UNL     1      47.412   4.791  17.509  0.00  0.00    +0.000 C 
ATOM     28  O   UNL     1      47.868   3.570  18.137  0.00  0.00    +0.000 OA
ATOM     29  C   UNL     1      48.049   2.959  16.837  0.00  0.00    +0.000 C 
ENDBRANCH  25  26
ENDBRANCH  23  25
ENDBRANCH  16  18
ENDBRANCH   1  16
TORSDOF 6
ENDMDL
MODEL 2
REMARK VINA RESULT:    -7.838      2.351      2.642
REMARK INTER + INTRA:         -11.598
REMARK INTER:                 -10.629
REMARK INTRA:                  -0.969
REMARK UNBOUND:                -1.010
REMARK  Name = 
REMARK  8 active torsions:
REMARK  status: ('A' for Active; 'I' for Inactive)
REMARK    1  A    between atoms: C_1  and  C_2
REMARK    2  A    between atoms: N_5  and  C_6
REMARK    3  A    between atoms: C_6  and  C_7
REMARK    4  A    between atoms: C_7  and  C_8
REMARK    5  A    between atoms: C_7  and  C_9
REMARK    6  A    between atoms: C_14  and  O_15
REMARK    7  A    between atoms: O_15  and  C_16
REMARK    8  A    between atoms: C_23  and  C_24
REMARK                            x       y       z     vdW  Elec       q    Type
REMARK                         _______ _______ _______ _____ _____    ______ ____
ROOT
ATOM      1  C   UNL     1      43.494   3.919  11.208  0.00  0.00    +0.000 C 
ENDROOT
BRANCH   1   6
ATOM      2  C   UNL     1      46.680   0.213   7.576  0.00  0.00    +0.000 C 
ATOM      3  C   UNL     1      46.220   1.580   7.997  0.00  0.00    +0.000 A 
ATOM      4  N   UNL     1      45.389   1.605   9.084  0.00  0.00    +0.000 NA
ATOM      5  C   UNL     1      44.903   2.785   9.516  0.00  0.00    +0.000 A 
ATOM      6  N   UNL     1      44.030   2.732  10.577  0.00  0.00    +0.000 N 
ATOM      7  C   UNL     1      45.253   3.973   8.889  0.00  0.00    +0.000 A 
ATOM      8  C   UNL     1      46.105   3.956   7.790  0.00  0.00    +0.000 A 
ATOM      9  C   UNL     1      46.588   2.740   7.307  0.00  0.00    +0.000 A 
ATOM     10  H   UNL     1      43.946   1.810  10.991  0.00  0.00    +0.000 HD
BRANCH   9  11
ATOM     11  C   UNL     1      47.472   2.722   6.112  0.00  0.00    +0.000 C 
ATOM     12  N   UNL     1      48.816   2.586   6.330  0.00  0.00    +0.000 N 
ATOM     13  O   UNL     1      47.047   2.836   4.969  0.00  0.00    +0.000 OA
ATOM     14  H   UNL     1      49.249   2.681   7.238  0.00  0.00    +0.000 HD
ATOM     15  H   UNL     1      49.416   2.647   5.516  0.00  0.00    +0.000 HD
ENDBRANCH   9  11
ENDBRANCH   1   6
BRANCH   1  16
ATOM     16  C   UNL     1      44.275   4.360  12.461  0.00  0.00    +0.000 C 
ATOM     17  C   UNL     1      45.294   3.306  12.907  0.00  0.00    +0.000 C 
BRANCH  16  18
ATOM     18  C   UNL     1      44.957   5.702  12.193  0.00  0.00    +0.000 A 
ATOM     19  C   UNL     1      44.233   6.809  11.722  0.00  0.00    +0.000 A 
ATOM     20  C   UNL     1      44.873   8.027  11.510  0.00  0.00    +0.000 A 
ATOM     21  F   UNL     1      44.164   9.073  11.068  0.00  0.00    +0.000 F 
ATOM     22  C   UNL     1      46.230   8.175  11.757  0.00  0.00    +0.000 A 
ATOM     23  C   UNL     1      46.961   7.092  12.238  0.00  0.00    +0.000 A 
ATOM     24  C   UNL     1      46.333   5.859  12.447  0.00  0.00    +0.000 A 
BRANCH  23  25
ATOM     25  O   UNL     1      48.295   7.337  12.452  0.00  0.00    +0.000 OA
BRANCH  25  26
ATOM     26  C   UNL     1      48.804   7.268  13.802  0.00  0.00    +0.000 C 
ATOM     27  C   UNL     1      48.370   8.358  14.792  0.00  0.00    +0.000 C 
ATOM     28  O   UNL     1      49.743   8.668  15.126  0.00  0.00    +0.000 OA
ATOM     29  C   UNL     1      50.203   7.864  14.014  0.00  0.00    +0.000 C 
ENDBRANCH  25  26
ENDBRANCH  23  25
ENDBRANCH  16  18
ENDBRANCH   1  16
TORSDOF 6
ENDMDL
MODEL 3
REMARK VINA RESULT:    -7.777      2.371      3.759
REMARK INTER + INTRA:         -11.515
REMARK INTER:                 -10.711
REMARK INTRA:                  -0.804
REMARK UNBOUND:                -1.010
REMARK  Name = 
REMARK  8 active torsions:
REMARK  status: ('A' for Active; 'I' for Inactive)
REMARK    1  A    between atoms: C_1  and  C_2
REMARK    2  A    between atoms: N_5  and  C_6
REMARK    3  A    between atoms: C_6  and  C_7
REMARK    4  A    between atoms: C_7  and  C_8
REMARK    5  A    between atoms: C_7  and  C_9
REMARK    6  A    between atoms: C_14  and  O_15
REMARK    7  A    between atoms: O_15  and  C_16
REMARK    8  A    between atoms: C_23  and  C_24
REMARK                            x       y       z     vdW  Elec       q    Type
REMARK                         _______ _______ _______ _____ _____    ______ ____
ROOT
ATOM      1  C   UNL     1      43.470   4.408  10.883  0.00  0.00    +0.000 C 
ENDROOT
BRANCH   1   6
ATOM      2  C   UNL     1      46.621   0.303   7.675  0.00  0.00    +0.000 C 
ATOM      3  C   UNL     1      46.206   1.716   7.971  0.00  0.00    +0.000 A 
ATOM      4  N   UNL     1      45.338   1.859   9.019  0.00  0.00    +0.000 NA
ATOM      5  C   UNL     1      44.888   3.089   9.341  0.00  0.00    +0.000 A 
ATOM      6  N   UNL     1      43.976   3.153  10.367  0.00  0.00    +0.000 N 
ATOM      7  C   UNL     1      45.312   4.208   8.638  0.00  0.00    +0.000 A 
ATOM      8  C   UNL     1      46.201   4.071   7.579  0.00  0.00    +0.000 A 
ATOM      9  C   UNL     1      46.648   2.802   7.209  0.00  0.00    +0.000 A 
ATOM     10  H   UNL     1      43.837   2.271  10.847  0.00  0.00    +0.000 HD
BRANCH   9  11
ATOM     11  C   UNL     1      47.574   2.655   6.055  0.00  0.00    +0.000 C 
ATOM     12  N   UNL     1      48.895   2.437   6.336  0.00  0.00    +0.000 N 
ATOM     13  O   UNL     1      47.201   2.735   4.891  0.00  0.00    +0.000 OA
ATOM     14  H   UNL     1      49.299   2.552   7.255  0.00  0.00    +0.000 HD
ATOM     15  H   UNL     1      49.528   2.410   5.546  0.00  0.00    +0.000 HD
ENDBRANCH   9  11
ENDBRANCH   1   6
BRANCH   1  16
ATOM     16  C   UNL     1      43.568   4.530  12.416  0.00  0.00    +0.000 C 
ATOM     17  C   UNL     1      43.449   3.171  13.114  0.00  0.00    +0.000 C 
BRANCH  16  18
ATOM     18  C   UNL     1      44.878   5.224  12.791  0.00  0.00    +0.000 A 
ATOM     19  C   UNL     1      45.739   4.686  13.760  0.00  0.00    +0.000 A 
ATOM     20  C   UNL     1      46.937   5.324  14.066  0.00  0.00    +0.000 A 
ATOM     21  F   UNL     1      47.749   4.791  14.988  0.00  0.00    +0.000 F 
ATOM     22  C   UNL     1      47.308   6.497  13.425  0.00  0.00    +0.000 A 
ATOM     23  C   UNL     1      46.472   7.038  12.450  0.00  0.00    +0.000 A 
ATOM     24  C   UNL     1      45.259   6.413  12.140  0.00  0.00    +0.000 A 
BRANCH  23  25
ATOM     25  O   UNL     1      46.924   8.200  11.873  0.00  0.00    +0.000 OA
BRANCH  25  26
ATOM     26  C   UNL     1      46.503   9.462  12.437  0.00  0.00    +0.000 C 
ATOM     27  C   UNL     1      45.035   9.876  12.260  0.00  0.00    +0.000 C 
ATOM     28  O   UNL     1      45.415  11.151  11.691  0.00  0.00    +0.000 OA
ATOM     29  C   UNL     1      46.786  10.700  11.574  0.00  0.00    +0.000 C 
ENDBRANCH  25  26
ENDBRANCH  23  25
ENDBRANCH  16  18
ENDBRANCH   1  16
TORSDOF 6
ENDMDL
MODEL 4
REMARK VINA RESULT:    -7.755      3.103      4.708
REMARK INTER + INTRA:         -11.485
REMARK INTER:                 -10.543
REMARK INTRA:                  -0.943
REMARK UNBOUND:                -1.010
REMARK  Name = 
REMARK  8 active torsions:
REMARK  status: ('A' for Active; 'I' for Inactive)
REMARK    1  A    between atoms: C_1  and  C_2
REMARK    2  A    between atoms: N_5  and  C_6
REMARK    3  A    between atoms: C_6  and  C_7
REMARK    4  A    between atoms: C_7  and  C_8
REMARK    5  A    between atoms: C_7  and  C_9
REMARK    6  A    between atoms: C_14  and  O_15
REMARK    7  A    between atoms: O_15  and  C_16
REMARK    8  A    between atoms: C_23  and  C_24
REMARK                            x       y       z     vdW  Elec       q    Type
REMARK                         _______ _______ _______ _____ _____    ______ ____
ROOT
ATOM      1  C   UNL     1      43.613   4.212  11.174  0.00  0.00    +0.000 C 
ENDROOT
BRANCH   1   6
ATOM      2  C   UNL     1      46.602   0.253   7.642  0.00  0.00    +0.000 C 
ATOM      3  C   UNL     1      46.204   1.652   8.020  0.00  0.00    +0.000 A 
ATOM      4  N   UNL     1      45.387   1.749   9.113  0.00  0.00    +0.000 NA
ATOM      5  C   UNL     1      44.955   2.963   9.509  0.00  0.00    +0.000 A 
ATOM      6  N   UNL     1      44.092   2.982  10.579  0.00  0.00    +0.000 N 
ATOM      7  C   UNL     1      45.348   4.113   8.839  0.00  0.00    +0.000 A 
ATOM      8  C   UNL     1      46.187   4.022   7.733  0.00  0.00    +0.000 A 
ATOM      9  C   UNL     1      46.614   2.771   7.287  0.00  0.00    +0.000 A 
ATOM     10  H   UNL     1      43.973   2.079  11.025  0.00  0.00    +0.000 HD
BRANCH   9  11
ATOM     11  C   UNL     1      47.484   2.675   6.086  0.00  0.00    +0.000 C 
ATOM     12  N   UNL     1      48.818   2.459   6.296  0.00  0.00    +0.000 N 
ATOM     13  O   UNL     1      47.056   2.795   4.944  0.00  0.00    +0.000 OA
ATOM     14  H   UNL     1      49.265   2.544   7.198  0.00  0.00    +0.000 HD
ATOM     15  H   UNL     1      49.413   2.467   5.476  0.00  0.00    +0.000 HD
ENDBRANCH   9  11
ENDBRANCH   1   6
BRANCH   1  16
ATOM     16  C   UNL     1      44.359   4.607  12.462  0.00  0.00    +0.000 C 
ATOM     17  C   UNL     1      45.327   3.514  12.929  0.00  0.00    +0.000 C 
BRANCH  16  18
ATOM     18  C   UNL     1      45.093   5.930  12.244  0.00  0.00    +0.000 A 
ATOM     19  C   UNL     1      46.496   5.995  12.225  0.00  0.00    +0.000 A 
ATOM     20  C   UNL     1      47.139   7.207  11.999  0.00  0.00    +0.000 A 
ATOM     21  F   UNL     1      48.478   7.246  11.976  0.00  0.00    +0.000 F 
ATOM     22  C   UNL     1      46.417   8.373  11.788  0.00  0.00    +0.000 A 
ATOM     23  C   UNL     1      45.026   8.326  11.789  0.00  0.00    +0.000 A 
ATOM     24  C   UNL     1      44.364   7.115  12.025  0.00  0.00    +0.000 A 
BRANCH  23  25
ATOM     25  O   UNL     1      44.401   9.529  11.573  0.00  0.00    +0.000 OA
BRANCH  25  26
ATOM     26  C   UNL     1      43.540   9.665  10.420  0.00  0.00    +0.000 C 
ATOM     27  C   UNL     1      43.728  10.896   9.521  0.00  0.00    +0.000 C 
ATOM     28  O   UNL     1      42.328  11.246   9.629  0.00  0.00    +0.000 OA
ATOM     29  C   UNL     1      42.159  10.279  10.693  0.00  0.00    +0.000 C 
ENDBRANCH  25  26
ENDBRANCH  23  25
ENDBRANCH  16  18
ENDBRANCH   1  16
TORSDOF 6
ENDMDL
MODEL 5
REMARK VINA RESULT:    -7.450      3.006      8.000
REMARK INTER + INTRA:         -11.074
REMARK INTER:                 -10.574
REMARK INTRA:                  -0.500
REMARK UNBOUND:                -1.010
REMARK  Name = 
REMARK  8 active torsions:
REMARK  status: ('A' for Active; 'I' for Inactive)
REMARK    1  A    between atoms: C_1  and  C_2
REMARK    2  A    between atoms: N_5  and  C_6
REMARK    3  A    between atoms: C_6  and  C_7
REMARK    4  A    between atoms: C_7  and  C_8
REMARK    5  A    between atoms: C_7  and  C_9
REMARK    6  A    between atoms: C_14  and  O_15
REMARK    7  A    between atoms: O_15  and  C_16
REMARK    8  A    between atoms: C_23  and  C_24
REMARK                            x       y       z     vdW  Elec       q    Type
REMARK                         _______ _______ _______ _____ _____    ______ ____
ROOT
ATOM      1  C   UNL     1      46.984   6.613  11.745  0.00  0.00    +0.000 C 
ENDROOT
BRANCH   1   6
ATOM      2  C   UNL     1      49.099   5.917  17.412  0.00  0.00    +0.000 C 
ATOM      3  C   UNL     1      48.396   5.400  16.189  0.00  0.00    +0.000 A 
ATOM      4  N   UNL     1      48.306   6.289  15.152  0.00  0.00    +0.000 NA
ATOM      5  C   UNL     1      47.667   5.922  14.023  0.00  0.00    +0.000 A 
ATOM      6  N   UNL     1      47.563   6.882  13.044  0.00  0.00    +0.000 N 
ATOM      7  C   UNL     1      47.124   4.652  13.892  0.00  0.00    +0.000 A 
ATOM      8  C   UNL     1      47.221   3.741  14.937  0.00  0.00    +0.000 A 
ATOM      9  C   UNL     1      47.846   4.115  16.127  0.00  0.00    +0.000 A 
ATOM     10  H   UNL     1      48.091   7.725  13.241  0.00  0.00    +0.000 HD
BRANCH   9  11
ATOM     11  C   UNL     1      47.920   3.150  17.255  0.00  0.00    +0.000 C 
ATOM     12  N   UNL     1      46.738   2.750  17.815  0.00  0.00    +0.000 N 
ATOM     13  O   UNL     1      48.981   2.725  17.696  0.00  0.00    +0.000 OA
ATOM     14  H   UNL     1      45.852   3.200  17.635  0.00  0.00    +0.000 HD
ATOM     15  H   UNL     1      46.802   2.149  18.628  0.00  0.00    +0.000 HD
ENDBRANCH   9  11
ENDBRANCH   1   6
BRANCH   1  16
ATOM     16  C   UNL     1      45.453   6.446  11.773  0.00  0.00    +0.000 C 
ATOM     17  C   UNL     1      44.726   7.692  11.253  0.00  0.00    +0.000 C 
BRANCH  16  18
ATOM     18  C   UNL     1      45.058   5.208  10.969  0.00  0.00    +0.000 A 
ATOM     19  C   UNL     1      44.284   4.183  11.538  0.00  0.00    +0.000 A 
ATOM     20  C   UNL     1      43.917   3.077  10.777  0.00  0.00    +0.000 A 
ATOM     21  F   UNL     1      43.172   2.114  11.336  0.00  0.00    +0.000 F 
ATOM     22  C   UNL     1      44.302   2.961   9.450  0.00  0.00    +0.000 A 
ATOM     23  C   UNL     1      45.057   3.974   8.865  0.00  0.00    +0.000 A 
ATOM     24  C   UNL     1      45.443   5.087   9.620  0.00  0.00    +0.000 A 
BRANCH  23  25
ATOM     25  O   UNL     1      45.390   3.768   7.548  0.00  0.00    +0.000 OA
BRANCH  25  26
ATOM     26  C   UNL     1      46.704   3.254   7.238  0.00  0.00    +0.000 C 
ATOM     27  C   UNL     1      47.003   2.872   5.781  0.00  0.00    +0.000 C 
ATOM     28  O   UNL     1      47.435   1.546   6.169  0.00  0.00    +0.000 OA
ATOM     29  C   UNL     1      46.909   1.756   7.502  0.00  0.00    +0.000 C 
ENDBRANCH  25  26
ENDBRANCH  23  25
ENDBRANCH  16  18
ENDBRANCH   1  16
TORSDOF 6
ENDMDL
MODEL 6
REMARK VINA RESULT:    -7.000      1.926      2.487
REMARK INTER + INTRA:         -10.465
REMARK INTER:                 -10.647
REMARK INTRA:                   0.181
REMARK UNBOUND:                -1.010
REMARK  Name = 
REMARK  8 active torsions:
REMARK  status: ('A' for Active; 'I' for Inactive)
REMARK    1  A    between atoms: C_1  and  C_2
REMARK    2  A    between atoms: N_5  and  C_6
REMARK    3  A    between atoms: C_6  and  C_7
REMARK    4  A    between atoms: C_7  and  C_8
REMARK    5  A    between atoms: C_7  and  C_9
REMARK    6  A    between atoms: C_14  and  O_15
REMARK    7  A    between atoms: O_15  and  C_16
REMARK    8  A    between atoms: C_23  and  C_24
REMARK                            x       y       z     vdW  Elec       q    Type
REMARK                         _______ _______ _______ _____ _____    ______ ____
ROOT
ATOM      1  C   UNL     1      42.848   4.779  10.986  0.00  0.00    +0.000 C 
ENDROOT
BRANCH   1   6
ATOM      2  C   UNL     1      47.012   4.040   6.605  0.00  0.00    +0.000 C 
ATOM      3  C   UNL     1      46.132   3.505   7.699  0.00  0.00    +0.000 A 
ATOM      4  N   UNL     1      45.342   4.435   8.317  0.00  0.00    +0.000 NA
ATOM      5  C   UNL     1      44.540   4.051   9.331  0.00  0.00    +0.000 A 
ATOM      6  N   UNL     1      43.816   5.046   9.943  0.00  0.00    +0.000 N 
ATOM      7  C   UNL     1      44.490   2.725   9.737  0.00  0.00    +0.000 A 
ATOM      8  C   UNL     1      45.283   1.773   9.107  0.00  0.00    +0.000 A 
ATOM      9  C   UNL     1      46.146   2.159   8.081  0.00  0.00    +0.000 A 
ATOM     10  H   UNL     1      43.879   5.945   9.477  0.00  0.00    +0.000 HD
BRANCH   9  11
ATOM     11  C   UNL     1      47.017   1.145   7.431  0.00  0.00    +0.000 C 
ATOM     12  N   UNL     1      48.167   1.593   6.840  0.00  0.00    +0.000 N 
ATOM     13  O   UNL     1      46.736  -0.048   7.396  0.00  0.00    +0.000 OA
ATOM     14  H   UNL     1      48.362   2.568   6.663  0.00  0.00    +0.000 HD
ATOM     15  H   UNL     1      48.716   0.906   6.338  0.00  0.00    +0.000 HD
ENDBRANCH   9  11
ENDBRANCH   1   6
BRANCH   1  16
ATOM     16  C   UNL     1      43.370   5.075  12.405  0.00  0.00    +0.000 C 
ATOM     17  C   UNL     1      43.806   3.801  13.138  0.00  0.00    +0.000 C 
BRANCH  16  18
ATOM     18  C   UNL     1      44.517   6.082  12.329  0.00  0.00    +0.000 A 
ATOM     19  C   UNL     1      44.328   7.367  11.795  0.00  0.00    +0.000 A 
ATOM     20  C   UNL     1      45.382   8.275  11.760  0.00  0.00    +0.000 A 
ATOM     21  F   UNL     1      45.179   9.498  11.253  0.00  0.00    +0.000 F 
ATOM     22  C   UNL     1      46.635   7.936  12.249  0.00  0.00    +0.000 A 
ATOM     23  C   UNL     1      46.837   6.671  12.796  0.00  0.00    +0.000 A 
ATOM     24  C   UNL     1      45.789   5.745  12.828  0.00  0.00    +0.000 A 
BRANCH  23  25
ATOM     25  O   UNL     1      48.110   6.430  13.252  0.00  0.00    +0.000 OA
BRANCH  25  26
ATOM     26  C   UNL     1      48.503   6.978  14.530  0.00  0.00    +0.000 C 
ATOM     27  C   UNL     1      50.001   7.179  14.798  0.00  0.00    +0.000 C 
ATOM     28  O   UNL     1      49.931   6.422  16.028  0.00  0.00    +0.000 OA
ATOM     29  C   UNL     1      48.599   5.969  15.683  0.00  0.00    +0.000 C 
ENDBRANCH  25  26
ENDBRANCH  23  25
ENDBRANCH  16  18
ENDBRANCH   1  16
TORSDOF 6
ENDMDL
MODEL 7
REMARK VINA RESULT:    -6.391      4.083      9.019
REMARK INTER + INTRA:          -9.644
REMARK INTER:                  -9.109
REMARK INTRA:                  -0.535
REMARK UNBOUND:                -1.010
REMARK  Name = 
REMARK  8 active torsions:
REMARK  status: ('A' for Active; 'I' for Inactive)
REMARK    1  A    between atoms: C_1  and  C_2
REMARK    2  A    between atoms: N_5  and  C_6
REMARK    3  A    between atoms: C_6  and  C_7
REMARK    4  A    between atoms: C_7  and  C_8
REMARK    5  A    between atoms: C_7  and  C_9
REMARK    6  A    between atoms: C_14  and  O_15
REMARK    7  A    between atoms: O_15  and  C_16
REMARK    8  A    between atoms: C_23  and  C_24
REMARK                            x       y       z     vdW  Elec       q    Type
REMARK                         _______ _______ _______ _____ _____    ______ ____
ROOT
ATOM      1  C   UNL     1      46.899   4.227  14.673  0.00  0.00    +0.000 C 
ENDROOT
BRANCH   1   6
ATOM      2  C   UNL     1      47.615   5.598  20.562  0.00  0.00    +0.000 C 
ATOM      3  C   UNL     1      48.163   5.343  19.186  0.00  0.00    +0.000 A 
ATOM      4  N   UNL     1      47.225   5.059  18.231  0.00  0.00    +0.000 NA
ATOM      5  C   UNL     1      47.625   4.789  16.973  0.00  0.00    +0.000 A 
ATOM      6  N   UNL     1      46.636   4.457  16.078  0.00  0.00    +0.000 N 
ATOM      7  C   UNL     1      48.971   4.819  16.631  0.00  0.00    +0.000 A 
ATOM      8  C   UNL     1      49.928   5.116  17.594  0.00  0.00    +0.000 A 
ATOM      9  C   UNL     1      49.534   5.362  18.910  0.00  0.00    +0.000 A 
ATOM     10  H   UNL     1      45.698   4.573  16.444  0.00  0.00    +0.000 HD
BRANCH   9  11
ATOM     11  C   UNL     1      50.562   5.648  19.945  0.00  0.00    +0.000 C 
ATOM     12  N   UNL     1      51.030   4.588  20.672  0.00  0.00    +0.000 N 
ATOM     13  O   UNL     1      50.981   6.777  20.170  0.00  0.00    +0.000 OA
ATOM     14  H   UNL     1      50.596   3.676  20.675  0.00  0.00    +0.000 HD
ATOM     15  H   UNL     1      51.676   4.802  21.422  0.00  0.00    +0.000 HD
ENDBRANCH   9  11
ENDBRANCH   1   6
BRANCH   1  16
ATOM     16  C   UNL     1      46.477   5.398  13.765  0.00  0.00    +0.000 C 
ATOM     17  C   UNL     1      47.652   5.948  12.947  0.00  0.00    +0.000 C 
BRANCH  16  18
ATOM     18  C   UNL     1      45.336   4.952  12.851  0.00  0.00    +0.000 A 
ATOM     19  C   UNL     1      44.087   5.594  12.873  0.00  0.00    +0.000 A 
ATOM     20  C   UNL     1      43.073   5.184  12.014  0.00  0.00    +0.000 A 
ATOM     21  F   UNL     1      41.891   5.814  12.045  0.00  0.00    +0.000 F 
ATOM     22  C   UNL     1      43.269   4.142  11.120  0.00  0.00    +0.000 A 
ATOM     23  C   UNL     1      44.505   3.503  11.073  0.00  0.00    +0.000 A 
ATOM     24  C   UNL     1      45.532   3.897  11.939  0.00  0.00    +0.000 A 
BRANCH  23  25
ATOM     25  O   UNL     1      44.602   2.484  10.157  0.00  0.00    +0.000 OA
BRANCH  25  26
ATOM     26  C   UNL     1      44.782   2.821   8.764  0.00  0.00    +0.000 C 
ATOM     27  C   UNL     1      46.012   2.256   8.039  0.00  0.00    +0.000 C 
ATOM     28  O   UNL     1      46.417   3.574   7.600  0.00  0.00    +0.000 OA
ATOM     29  C   UNL     1      45.447   4.177   8.490  0.00  0.00    +0.000 C 
ENDBRANCH  25  26
ENDBRANCH  23  25
ENDBRANCH  16  18
ENDBRANCH   1  16
TORSDOF 6
ENDMDL
MODEL 8
REMARK VINA RESULT:    -6.388      3.861      8.969
REMARK INTER + INTRA:          -9.639
REMARK INTER:                  -9.406
REMARK INTRA:                  -0.233
REMARK UNBOUND:                -1.010
REMARK  Name = 
REMARK  8 active torsions:
REMARK  status: ('A' for Active; 'I' for Inactive)
REMARK    1  A    between atoms: C_1  and  C_2
REMARK    2  A    between atoms: N_5  and  C_6
REMARK    3  A    between atoms: C_6  and  C_7
REMARK    4  A    between atoms: C_7  and  C_8
REMARK    5  A    between atoms: C_7  and  C_9
REMARK    6  A    between atoms: C_14  and  O_15
REMARK    7  A    between atoms: O_15  and  C_16
REMARK    8  A    between atoms: C_23  and  C_24
REMARK                            x       y       z     vdW  Elec       q    Type
REMARK                         _______ _______ _______ _____ _____    ______ ____
ROOT
ATOM      1  C   UNL     1      47.419   5.429  13.555  0.00  0.00    +0.000 C 
ENDROOT
BRANCH   1   6
ATOM      2  C   UNL     1      49.727   7.462  18.811  0.00  0.00    +0.000 C 
ATOM      3  C   UNL     1      48.991   6.435  17.997  0.00  0.00    +0.000 A 
ATOM      4  N   UNL     1      48.856   6.734  16.669  0.00  0.00    +0.000 NA
ATOM      5  C   UNL     1      48.185   5.884  15.866  0.00  0.00    +0.000 A 
ATOM      6  N   UNL     1      48.038   6.273  14.556  0.00  0.00    +0.000 N 
ATOM      7  C   UNL     1      47.653   4.703  16.365  0.00  0.00    +0.000 A 
ATOM      8  C   UNL     1      47.796   4.388  17.711  0.00  0.00    +0.000 A 
ATOM      9  C   UNL     1      48.455   5.273  18.564  0.00  0.00    +0.000 A 
ATOM     10  H   UNL     1      48.561   7.108  14.316  0.00  0.00    +0.000 HD
BRANCH   9  11
ATOM     11  C   UNL     1      48.578   4.950  20.009  0.00  0.00    +0.000 C 
ATOM     12  N   UNL     1      49.631   4.162  20.387  0.00  0.00    +0.000 N 
ATOM     13  O   UNL     1      47.778   5.346  20.849  0.00  0.00    +0.000 OA
ATOM     14  H   UNL     1      50.208   3.648  19.736  0.00  0.00    +0.000 HD
ATOM     15  H   UNL     1      49.665   3.888  21.362  0.00  0.00    +0.000 HD
ENDBRANCH   9  11
ENDBRANCH   1   6
BRANCH   1  16
ATOM     16  C   UNL     1      46.358   6.153  12.705  0.00  0.00    +0.000 C 
ATOM     17  C   UNL     1      46.982   7.165  11.739  0.00  0.00    +0.000 C 
BRANCH  16  18
ATOM     18  C   UNL     1      45.516   5.124  11.951  0.00  0.00    +0.000 A 
ATOM     19  C   UNL     1      44.832   4.101  12.627  0.00  0.00    +0.000 A 
ATOM     20  C   UNL     1      44.053   3.191  11.919  0.00  0.00    +0.000 A 
ATOM     21  F   UNL     1      43.402   2.227  12.584  0.00  0.00    +0.000 F 
ATOM     22  C   UNL     1      43.933   3.272  10.540  0.00  0.00    +0.000 A 
ATOM     23  C   UNL     1      44.593   4.288   9.853  0.00  0.00    +0.000 A 
ATOM     24  C   UNL     1      45.388   5.204  10.551  0.00  0.00    +0.000 A 
BRANCH  23  25
ATOM     25  O   UNL     1      44.414   4.285   8.492  0.00  0.00    +0.000 OA
BRANCH  25  26
ATOM     26  C   UNL     1      45.013   3.223   7.717  0.00  0.00    +0.000 C 
ATOM     27  C   UNL     1      45.801   2.139   8.468  0.00  0.00    +0.000 C 
ATOM     28  O   UNL     1      46.966   2.342   7.634  0.00  0.00    +0.000 OA
ATOM     29  C   UNL     1      46.377   3.548   7.091  0.00  0.00    +0.000 C 
ENDBRANCH  25  26
ENDBRANCH  23  25
ENDBRANCH  16  18
ENDBRANCH   1  16
TORSDOF 6
ENDMDL
MODEL 9
REMARK VINA RESULT:    -6.227      4.388      8.348
REMARK INTER + INTRA:          -9.422
REMARK INTER:                  -8.202
REMARK INTRA:                  -1.220
REMARK UNBOUND:                -1.010
REMARK  Name = 
REMARK  8 active torsions:
REMARK  status: ('A' for Active; 'I' for Inactive)
REMARK    1  A    between atoms: C_1  and  C_2
REMARK    2  A    between atoms: N_5  and  C_6
REMARK    3  A    between atoms: C_6  and  C_7
REMARK    4  A    between atoms: C_7  and  C_8
REMARK    5  A    between atoms: C_7  and  C_9
REMARK    6  A    between atoms: C_14  and  O_15
REMARK    7  A    between atoms: O_15  and  C_16
REMARK    8  A    between atoms: C_23  and  C_24
REMARK                            x       y       z     vdW  Elec       q    Type
REMARK                         _______ _______ _______ _____ _____    ______ ____
ROOT
ATOM      1  C   UNL     1      50.117   8.833  13.341  0.00  0.00    +0.000 C 
ENDROOT
BRANCH   1   6
ATOM      2  C   UNL     1      49.790   4.416  17.520  0.00  0.00    +0.000 C 
ATOM      3  C   UNL     1      49.389   5.760  16.980  0.00  0.00    +0.000 A 
ATOM      4  N   UNL     1      49.980   6.110  15.796  0.00  0.00    +0.000 NA
ATOM      5  C   UNL     1      49.702   7.311  15.250  0.00  0.00    +0.000 A 
ATOM      6  N   UNL     1      50.373   7.621  14.091  0.00  0.00    +0.000 N 
ATOM      7  C   UNL     1      48.810   8.182  15.860  0.00  0.00    +0.000 A 
ATOM      8  C   UNL     1      48.199   7.828  17.057  0.00  0.00    +0.000 A 
ATOM      9  C   UNL     1      48.502   6.605  17.656  0.00  0.00    +0.000 A 
ATOM     10  H   UNL     1      50.915   6.852  13.713  0.00  0.00    +0.000 HD
BRANCH   9  11
ATOM     11  C   UNL     1      47.873   6.243  18.952  0.00  0.00    +0.000 C 
ATOM     12  N   UNL     1      46.681   5.573  18.904  0.00  0.00    +0.000 N 
ATOM     13  O   UNL     1      48.368   6.532  20.035  0.00  0.00    +0.000 OA
ATOM     14  H   UNL     1      46.127   5.475  18.065  0.00  0.00    +0.000 HD
ATOM     15  H   UNL     1      46.224   5.395  19.790  0.00  0.00    +0.000 HD
ENDBRANCH   9  11
ENDBRANCH   1   6
BRANCH   1  16
ATOM     16  C   UNL     1      49.498   8.582  11.953  0.00  0.00    +0.000 C 
ATOM     17  C   UNL     1      50.248   7.497  11.172  0.00  0.00    +0.000 C 
BRANCH  16  18
ATOM     18  C   UNL     1      48.021   8.221  12.109  0.00  0.00    +0.000 A 
ATOM     19  C   UNL     1      47.054   9.199  12.394  0.00  0.00    +0.000 A 
ATOM     20  C   UNL     1      45.713   8.848  12.506  0.00  0.00    +0.000 A 
ATOM     21  F   UNL     1      44.805   9.798  12.770  0.00  0.00    +0.000 F 
ATOM     22  C   UNL     1      45.300   7.534  12.341  0.00  0.00    +0.000 A 
ATOM     23  C   UNL     1      46.242   6.553  12.045  0.00  0.00    +0.000 A 
ATOM     24  C   UNL     1      47.596   6.889  11.938  0.00  0.00    +0.000 A 
BRANCH  23  25
ATOM     25  O   UNL     1      45.737   5.284  11.900  0.00  0.00    +0.000 OA
BRANCH  25  26
ATOM     26  C   UNL     1      44.309   5.119  11.756  0.00  0.00    +0.000 C 
ATOM     27  C   UNL     1      43.646   3.927  12.461  0.00  0.00    +0.000 C 
ATOM     28  O   UNL     1      43.032   3.480  11.230  0.00  0.00    +0.000 OA
ATOM     29  C   UNL     1      43.851   4.406  10.476  0.00  0.00    +0.000 C 
ENDBRANCH  25  26
ENDBRANCH  23  25
ENDBRANCH  16  18
ENDBRANCH   1  16
TORSDOF 6
ENDMDL
