MODEL 1
REMARK VINA RESULT:    -8.225      0.000      0.000
REMARK INTER + INTRA:         -11.577
REMARK INTER:                 -10.629
REMARK INTRA:                  -0.948
REMARK UNBOUND:                -0.948
REMARK  Name = 
REMARK  5 active torsions:
REMARK  status: ('A' for Active; 'I' for Inactive)
REMARK    1  A    between atoms: C_2  and  C_4
REMARK    2  A    between atoms: C_7  and  C_8
REMARK    3  A    between atoms: C_8  and  O_9
REMARK    4  A    between atoms: O_9  and  C_10
REMARK    5  A    between atoms: C_14  and  C_15
REMARK                            x       y       z     vdW  Elec       q    Type
REMARK                         _______ _______ _______ _____ _____    ______ ____
ROOT
ATOM      1  O   UNL     1      44.453   5.744  10.913  0.00  0.00    +0.000 OA
ENDROOT
BRANCH   1   2
ATOM      2  C   UNL     1      45.339   5.486  11.922  0.00  0.00    +0.000 A 
ATOM      3  C   UNL     1      45.258   4.458  12.855  0.00  0.00    +0.000 A 
ATOM      4  C   UNL     1      46.249   4.326  13.832  0.00  0.00    +0.000 A 
ATOM      5  C   UNL     1      47.358   5.176  13.842  0.00  0.00    +0.000 A 
ATOM      6  C   UNL     1      47.498   6.158  12.860  0.00  0.00    +0.000 A 
ATOM      7  C   UNL     1      46.435   6.346  11.954  0.00  0.00    +0.000 A 
BRANCH   6   8
ATOM      8  C   UNL     1      48.798   6.887  12.554  0.00  0.00    +0.000 C 
ATOM      9  C   UNL     1      49.348   7.439  13.886  0.00  0.00    +0.000 C 
ATOM     10  C   UNL     1      48.715   8.777  14.255  0.00  0.00    +0.000 C 
ATOM     11  N   UNL     1      48.973   9.771  13.212  0.00  0.00    +0.000 NA
ATOM     12  C   UNL     1      48.359   9.368  11.949  0.00  0.00    +0.000 C 
ATOM     13  C   UNL     1      48.804   7.982  11.473  0.00  0.00    +0.000 C 
ATOM     14  H   UNL     1      49.982   9.860  13.086  0.00  0.00    +0.000 HD
ENDBRANCH   6   8
ENDBRANCH   1   2
BRANCH   1  15
ATOM     15  C   UNL     1      43.783   4.619  10.348  0.00  0.00    +0.000 C 
BRANCH  15  19
ATOM     16  C   UNL     1      46.475   2.418   7.763  0.00  0.00    +0.000 A 
ATOM     17  C   UNL     1      46.385   3.810   7.646  0.00  0.00    +0.000 A 
ATOM     18  C   UNL     1      45.517   4.529   8.477  0.00  0.00    +0.000 A 
ATOM     19  C   UNL     1      44.716   3.868   9.422  0.00  0.00    +0.000 A 
ATOM     20  C   UNL     1      44.823   2.476   9.538  0.00  0.00    +0.000 A 
ATOM     21  C   UNL     1      45.686   1.755   8.708  0.00  0.00    +0.000 A 
BRANCH  16  23
ATOM     22  N   UNL     1      48.528   2.179   6.465  0.00  0.00    +0.000 N 
ATOM     23  C   UNL     1      47.365   1.602   6.901  0.00  0.00    +0.000 C 
ATOM     24  O   UNL     1      47.100   0.442   6.617  0.00  0.00    +0.000 OA
ATOM     25  H   UNL     1      49.169   1.567   5.977  0.00  0.00    +0.000 HD
ATOM     26  H   UNL     1      48.900   3.021   6.878  0.00  0.00    +0.000 HD
ENDBRANCH  16  23
ENDBRANCH  15  19
ENDBRANCH   1  15
TORSDOF 5
ENDMDL
MODEL 2
REMARK VINA RESULT:    -7.725      1.149      1.660
REMARK INTER + INTRA:         -10.930
REMARK INTER:                 -10.163
REMARK INTRA:                  -0.767
REMARK UNBOUND:                -0.948
REMARK  Name = 
REMARK  5 active torsions:
REMARK  status: ('A' for Active; 'I' for Inactive)
REMARK    1  A    between atoms: C_2  and  C_4
REMARK    2  A    between atoms: C_7  and  C_8
REMARK    3  A    between atoms: C_8  and  O_9
REMARK    4  A    between atoms: O_9  and  C_10
REMARK    5  A    between atoms: C_14  and  C_15
REMARK                            x       y       z     vdW  Elec       q    Type
REMARK                         _______ _______ _______ _____ _____    ______ ____
ROOT
ATOM      1  O   UNL     1      44.404   4.900  11.522  0.00  0.00    +0.000 OA
ENDROOT
BRANCH   1   2
ATOM      2  C   UNL     1      45.038   6.104  11.647  0.00  0.00    +0.000 A 
ATOM      3  C   UNL     1      44.439   7.359  11.664  0.00  0.00    +0.000 A 
ATOM      4  C   UNL     1      45.229   8.505  11.799  0.00  0.00    +0.000 A 
ATOM      5  C   UNL     1      46.610   8.401  11.985  0.00  0.00    +0.000 A 
ATOM      6  C   UNL     1      47.215   7.145  12.058  0.00  0.00    +0.000 A 
ATOM      7  C   UNL     1      46.419   6.009  11.807  0.00  0.00    +0.000 A 
BRANCH   6   8
ATOM      8  C   UNL     1      48.613   6.897  12.605  0.00  0.00    +0.000 C 
ATOM      9  C   UNL     1      48.480   6.608  14.115  0.00  0.00    +0.000 C 
ATOM     10  C   UNL     1      48.413   7.890  14.939  0.00  0.00    +0.000 C 
ATOM     11  N   UNL     1      49.621   8.692  14.736  0.00  0.00    +0.000 NA
ATOM     12  C   UNL     1      49.736   9.113  13.342  0.00  0.00    +0.000 C 
ATOM     13  C   UNL     1      49.711   7.945  12.352  0.00  0.00    +0.000 C 
ATOM     14  H   UNL     1      50.435   8.129  14.989  0.00  0.00    +0.000 HD
ENDBRANCH   6   8
ENDBRANCH   1   2
BRANCH   1  15
ATOM     15  C   UNL     1      43.771   4.636  10.272  0.00  0.00    +0.000 C 
BRANCH  15  19
ATOM     16  C   UNL     1      46.470   2.371   7.749  0.00  0.00    +0.000 A 
ATOM     17  C   UNL     1      46.429   3.766   7.644  0.00  0.00    +0.000 A 
ATOM     18  C   UNL     1      45.560   4.506   8.455  0.00  0.00    +0.000 A 
ATOM     19  C   UNL     1      44.709   3.863   9.367  0.00  0.00    +0.000 A 
ATOM     20  C   UNL     1      44.765   2.467   9.472  0.00  0.00    +0.000 A 
ATOM     21  C   UNL     1      45.630   1.726   8.661  0.00  0.00    +0.000 A 
BRANCH  16  23
ATOM     22  N   UNL     1      48.507   2.110   6.430  0.00  0.00    +0.000 N 
ATOM     23  C   UNL     1      47.359   1.534   6.906  0.00  0.00    +0.000 C 
ATOM     24  O   UNL     1      47.107   0.360   6.672  0.00  0.00    +0.000 OA
ATOM     25  H   UNL     1      49.150   1.489   5.957  0.00  0.00    +0.000 HD
ATOM     26  H   UNL     1      48.873   2.973   6.804  0.00  0.00    +0.000 HD
ENDBRANCH  16  23
ENDBRANCH  15  19
ENDBRANCH   1  15
TORSDOF 5
ENDMDL
MODEL 3
REMARK VINA RESULT:    -7.193      2.377      3.589
REMARK INTER + INTRA:         -10.244
REMARK INTER:                  -9.779
REMARK INTRA:                  -0.465
REMARK UNBOUND:                -0.948
REMARK  Name = 
REMARK  5 active torsions:
REMARK  status: ('A' for Active; 'I' for Inactive)
REMARK    1  A    between atoms: C_2  and  C_4
REMARK    2  A    between atoms: C_7  and  C_8
REMARK    3  A    between atoms: C_8  and  O_9
REMARK    4  A    between atoms: O_9  and  C_10
REMARK    5  A    between atoms: C_14  and  C_15
REMARK                            x       y       z     vdW  Elec       q    Type
REMARK                         _______ _______ _______ _____ _____    ______ ____
ROOT
ATOM      1  O   UNL     1      44.722   3.785  12.176  0.00  0.00    +0.000 OA
ENDROOT
BRANCH   1   2
ATOM      2  C   UNL     1      45.703   4.531  12.767  0.00  0.00    +0.000 A 
ATOM      3  C   UNL     1      46.234   5.726  12.294  0.00  0.00    +0.000 A 
ATOM      4  C   UNL     1      47.240   6.373  13.018  0.00  0.00    +0.000 A 
ATOM      5  C   UNL     1      47.673   5.868  14.247  0.00  0.00    +0.000 A 
ATOM      6  C   UNL     1      47.087   4.717  14.777  0.00  0.00    +0.000 A 
ATOM      7  C   UNL     1      46.157   4.019  13.981  0.00  0.00    +0.000 A 
BRANCH   6   8
ATOM      8  C   UNL     1      47.211   4.283  16.230  0.00  0.00    +0.000 C 
ATOM      9  C   UNL     1      48.070   5.336  16.961  0.00  0.00    +0.000 C 
ATOM     10  C   UNL     1      49.563   5.078  16.784  0.00  0.00    +0.000 C 
ATOM     11  N   UNL     1      49.920   3.759  17.309  0.00  0.00    +0.000 NA
ATOM     12  C   UNL     1      49.238   2.703  16.565  0.00  0.00    +0.000 C 
ATOM     13  C   UNL     1      47.715   2.863  16.545  0.00  0.00    +0.000 C 
ATOM     14  H   UNL     1      49.649   3.712  18.292  0.00  0.00    +0.000 HD
ENDBRANCH   6   8
ENDBRANCH   1   2
BRANCH   1  15
ATOM     15  C   UNL     1      44.193   4.280  10.948  0.00  0.00    +0.000 C 
BRANCH  15  19
ATOM     16  C   UNL     1      46.452   2.797   7.560  0.00  0.00    +0.000 A 
ATOM     17  C   UNL     1      45.829   1.892   8.428  0.00  0.00    +0.000 A 
ATOM     18  C   UNL     1      45.098   2.363   9.526  0.00  0.00    +0.000 A 
ATOM     19  C   UNL     1      44.993   3.739   9.781  0.00  0.00    +0.000 A 
ATOM     20  C   UNL     1      45.611   4.636   8.900  0.00  0.00    +0.000 A 
ATOM     21  C   UNL     1      46.344   4.169   7.805  0.00  0.00    +0.000 A 
BRANCH  16  23
ATOM     22  N   UNL     1      47.110   3.062   5.225  0.00  0.00    +0.000 N 
ATOM     23  C   UNL     1      47.252   2.357   6.391  0.00  0.00    +0.000 C 
ATOM     24  O   UNL     1      48.044   1.428   6.465  0.00  0.00    +0.000 OA
ATOM     25  H   UNL     1      47.748   2.816   4.479  0.00  0.00    +0.000 HD
ATOM     26  H   UNL     1      46.674   3.971   5.194  0.00  0.00    +0.000 HD
ENDBRANCH  16  23
ENDBRANCH  15  19
ENDBRANCH   1  15
TORSDOF 5
ENDMDL
MODEL 4
REMARK VINA RESULT:    -6.985      4.769      7.930
REMARK INTER + INTRA:          -9.975
REMARK INTER:                  -9.735
REMARK INTRA:                  -0.241
REMARK UNBOUND:                -0.948
REMARK  Name = 
REMARK  5 active torsions:
REMARK  status: ('A' for Active; 'I' for Inactive)
REMARK    1  A    between atoms: C_2  and  C_4
REMARK    2  A    between atoms: C_7  and  C_8
REMARK    3  A    between atoms: C_8  and  O_9
REMARK    4  A    between atoms: O_9  and  C_10
REMARK    5  A    between atoms: C_14  and  C_15
REMARK                            x       y       z     vdW  Elec       q    Type
REMARK                         _______ _______ _______ _____ _____    ______ ____
ROOT
ATOM      1  O   UNL     1      46.635   4.171  15.208  0.00  0.00    +0.000 OA
ENDROOT
BRANCH   1   2
ATOM      2  C   UNL     1      46.636   4.958  14.091  0.00  0.00    +0.000 A 
ATOM      3  C   UNL     1      47.696   5.721  13.613  0.00  0.00    +0.000 A 
ATOM      4  C   UNL     1      47.539   6.477  12.448  0.00  0.00    +0.000 A 
ATOM      5  C   UNL     1      46.348   6.426  11.719  0.00  0.00    +0.000 A 
ATOM      6  C   UNL     1      45.306   5.597  12.138  0.00  0.00    +0.000 A 
ATOM      7  C   UNL     1      45.442   4.931  13.372  0.00  0.00    +0.000 A 
BRANCH   6   8
ATOM      8  C   UNL     1      44.132   5.185  11.261  0.00  0.00    +0.000 C 
ATOM      9  C   UNL     1      43.149   4.385  12.142  0.00  0.00    +0.000 C 
ATOM     10  C   UNL     1      43.548   2.916  12.254  0.00  0.00    +0.000 C 
ATOM     11  N   UNL     1      43.580   2.293  10.929  0.00  0.00    +0.000 NA
ATOM     12  C   UNL     1      44.591   2.923  10.084  0.00  0.00    +0.000 C 
ATOM     13  C   UNL     1      44.408   4.437   9.945  0.00  0.00    +0.000 C 
ATOM     14  H   UNL     1      42.662   2.397  10.496  0.00  0.00    +0.000 HD
ENDBRANCH   6   8
ENDBRANCH   1   2
BRANCH   1  15
ATOM     15  C   UNL     1      47.256   4.713  16.373  0.00  0.00    +0.000 C 
BRANCH  15  19
ATOM     16  C   UNL     1      50.819   2.462  17.376  0.00  0.00    +0.000 A 
ATOM     17  C   UNL     1      49.728   1.808  16.794  0.00  0.00    +0.000 A 
ATOM     18  C   UNL     1      48.572   2.528  16.466  0.00  0.00    +0.000 A 
ATOM     19  C   UNL     1      48.484   3.903  16.732  0.00  0.00    +0.000 A 
ATOM     20  C   UNL     1      49.587   4.550  17.306  0.00  0.00    +0.000 A 
ATOM     21  C   UNL     1      50.741   3.833  17.636  0.00  0.00    +0.000 A 
BRANCH  16  23
ATOM     22  N   UNL     1      51.957   0.428  18.103  0.00  0.00    +0.000 N 
ATOM     23  C   UNL     1      52.064   1.750  17.759  0.00  0.00    +0.000 C 
ATOM     24  O   UNL     1      53.156   2.300  17.730  0.00  0.00    +0.000 OA
ATOM     25  H   UNL     1      52.829  -0.063  18.248  0.00  0.00    +0.000 HD
ATOM     26  H   UNL     1      51.135  -0.119  17.895  0.00  0.00    +0.000 HD
ENDBRANCH  16  23
ENDBRANCH  15  19
ENDBRANCH   1  15
TORSDOF 5
ENDMDL
MODEL 5
REMARK VINA RESULT:    -6.395      4.224      8.175
REMARK INTER + INTRA:          -9.212
REMARK INTER:                  -9.004
REMARK INTRA:                  -0.208
REMARK UNBOUND:                -0.948
REMARK  Name = 
REMARK  5 active torsions:
REMARK  status: ('A' for Active; 'I' for Inactive)
REMARK    1  A    between atoms: C_2  and  C_4
REMARK    2  A    between atoms: C_7  and  C_8
REMARK    3  A    between atoms: C_8  and  O_9
REMARK    4  A    between atoms: O_9  and  C_10
REMARK    5  A    between atoms: C_14  and  C_15
REMARK                            x       y       z     vdW  Elec       q    Type
REMARK                         _______ _______ _______ _____ _____    ______ ____
ROOT
ATOM      1  O   UNL     1      47.681   4.948  13.511  0.00  0.00    +0.000 OA
ENDROOT
BRANCH   1   2
ATOM      2  C   UNL     1      46.859   5.845  12.888  0.00  0.00    +0.000 A 
ATOM      3  C   UNL     1      47.058   7.217  12.780  0.00  0.00    +0.000 A 
ATOM      4  C   UNL     1      46.118   8.005  12.107  0.00  0.00    +0.000 A 
ATOM      5  C   UNL     1      45.014   7.420  11.482  0.00  0.00    +0.000 A 
ATOM      6  C   UNL     1      44.847   6.034  11.506  0.00  0.00    +0.000 A 
ATOM      7  C   UNL     1      45.742   5.272  12.284  0.00  0.00    +0.000 A 
BRANCH   6   8
ATOM      8  C   UNL     1      43.912   5.266  10.583  0.00  0.00    +0.000 C 
ATOM      9  C   UNL     1      42.859   4.563  11.465  0.00  0.00    +0.000 C 
ATOM     10  C   UNL     1      43.369   3.233  12.013  0.00  0.00    +0.000 C 
ATOM     11  N   UNL     1      43.719   2.329  10.917  0.00  0.00    +0.000 NA
ATOM     12  C   UNL     1      44.810   2.880  10.117  0.00  0.00    +0.000 C 
ATOM     13  C   UNL     1      44.512   4.278   9.567  0.00  0.00    +0.000 C 
ATOM     14  H   UNL     1      42.898   2.196  10.325  0.00  0.00    +0.000 HD
ENDBRANCH   6   8
ENDBRANCH   1   2
BRANCH   1  15
ATOM     15  C   UNL     1      47.065   4.043  14.424  0.00  0.00    +0.000 C 
BRANCH  15  19
ATOM     16  C   UNL     1      48.672   4.512  18.421  0.00  0.00    +0.000 A 
ATOM     17  C   UNL     1      48.700   5.592  17.532  0.00  0.00    +0.000 A 
ATOM     18  C   UNL     1      48.183   5.449  16.238  0.00  0.00    +0.000 A 
ATOM     19  C   UNL     1      47.649   4.224  15.810  0.00  0.00    +0.000 A 
ATOM     20  C   UNL     1      47.617   3.152  16.713  0.00  0.00    +0.000 A 
ATOM     21  C   UNL     1      48.134   3.291  18.004  0.00  0.00    +0.000 A 
BRANCH  16  23
ATOM     22  N   UNL     1      48.524   3.966  20.796  0.00  0.00    +0.000 N 
ATOM     23  C   UNL     1      49.218   4.599  19.798  0.00  0.00    +0.000 C 
ATOM     24  O   UNL     1      50.269   5.176  20.039  0.00  0.00    +0.000 OA
ATOM     25  H   UNL     1      48.975   3.943  21.701  0.00  0.00    +0.000 HD
ATOM     26  H   UNL     1      47.812   3.278  20.604  0.00  0.00    +0.000 HD
ENDBRANCH  16  23
ENDBRANCH  15  19
ENDBRANCH   1  15
TORSDOF 5
ENDMDL
MODEL 6
REMARK VINA RESULT:    -6.232      3.535      5.577
REMARK INTER + INTRA:          -9.002
REMARK INTER:                  -8.253
REMARK INTRA:                  -0.749
REMARK UNBOUND:                -0.948
REMARK  Name = 
REMARK  5 active torsions:
REMARK  status: ('A' for Active; 'I' for Inactive)
REMARK    1  A    between atoms: C_2  and  C_4
REMARK    2  A    between atoms: C_7  and  C_8
REMARK    3  A    between atoms: C_8  and  O_9
REMARK    4  A    between atoms: O_9  and  C_10
REMARK    5  A    between atoms: C_14  and  C_15
REMARK                            x       y       z     vdW  Elec       q    Type
REMARK                         _______ _______ _______ _____ _____    ______ ____
ROOT
ATOM      1  O   UNL     1      48.746   7.239  13.173  0.00  0.00    +0.000 OA
ENDROOT
BRANCH   1   2
ATOM      2  C   UNL     1      48.728   7.736  14.446  0.00  0.00    +0.000 A 
ATOM      3  C   UNL     1      48.299   8.999  14.837  0.00  0.00    +0.000 A 
ATOM      4  C   UNL     1      48.343   9.361  16.188  0.00  0.00    +0.000 A 
ATOM      5  C   UNL     1      48.751   8.443  17.159  0.00  0.00    +0.000 A 
ATOM      6  C   UNL     1      49.101   7.143  16.791  0.00  0.00    +0.000 A 
ATOM      7  C   UNL     1      49.157   6.834  15.418  0.00  0.00    +0.000 A 
BRANCH   6   8
ATOM      8  C   UNL     1      49.209   5.976  17.763  0.00  0.00    +0.000 C 
ATOM      9  C   UNL     1      48.869   4.687  16.985  0.00  0.00    +0.000 C 
ATOM     10  C   UNL     1      47.365   4.448  16.906  0.00  0.00    +0.000 C 
ATOM     11  N   UNL     1      46.794   4.331  18.249  0.00  0.00    +0.000 NA
ATOM     12  C   UNL     1      46.966   5.573  18.996  0.00  0.00    +0.000 C 
ATOM     13  C   UNL     1      48.425   6.031  19.086  0.00  0.00    +0.000 C 
ATOM     14  H   UNL     1      47.266   3.570  18.740  0.00  0.00    +0.000 HD
ENDBRANCH   6   8
ENDBRANCH   1   2
BRANCH   1  15
ATOM     15  C   UNL     1      47.646   7.586  12.335  0.00  0.00    +0.000 C 
BRANCH  15  19
ATOM     16  C   UNL     1      45.021   4.198  11.702  0.00  0.00    +0.000 A 
ATOM     17  C   UNL     1      45.668   4.352  12.933  0.00  0.00    +0.000 A 
ATOM     18  C   UNL     1      46.519   5.445  13.146  0.00  0.00    +0.000 A 
ATOM     19  C   UNL     1      46.747   6.384  12.129  0.00  0.00    +0.000 A 
ATOM     20  C   UNL     1      46.086   6.226  10.904  0.00  0.00    +0.000 A 
ATOM     21  C   UNL     1      45.238   5.135  10.688  0.00  0.00    +0.000 A 
BRANCH  16  23
ATOM     22  N   UNL     1      43.677   2.313  12.476  0.00  0.00    +0.000 N 
ATOM     23  C   UNL     1      44.121   3.054  11.413  0.00  0.00    +0.000 C 
ATOM     24  O   UNL     1      43.750   2.797  10.276  0.00  0.00    +0.000 OA
ATOM     25  H   UNL     1      42.977   1.614  12.265  0.00  0.00    +0.000 HD
ATOM     26  H   UNL     1      43.748   2.640  13.428  0.00  0.00    +0.000 HD
ENDBRANCH  16  23
ENDBRANCH  15  19
ENDBRANCH   1  15
TORSDOF 5
ENDMDL
MODEL 7
REMARK VINA RESULT:    -6.189      1.476      1.855
REMARK INTER + INTRA:          -8.946
REMARK INTER:                  -8.254
REMARK INTRA:                  -0.692
REMARK UNBOUND:                -0.948
REMARK  Name = 
REMARK  5 active torsions:
REMARK  status: ('A' for Active; 'I' for Inactive)
REMARK    1  A    between atoms: C_2  and  C_4
REMARK    2  A    between atoms: C_7  and  C_8
REMARK    3  A    between atoms: C_8  and  O_9
REMARK    4  A    between atoms: O_9  and  C_10
REMARK    5  A    between atoms: C_14  and  C_15
REMARK                            x       y       z     vdW  Elec       q    Type
REMARK                         _______ _______ _______ _____ _____    ______ ____
ROOT
ATOM      1  O   UNL     1      43.421   5.021  13.129  0.00  0.00    +0.000 OA
ENDROOT
BRANCH   1   2
ATOM      2  C   UNL     1      44.773   5.186  13.235  0.00  0.00    +0.000 A 
ATOM      3  C   UNL     1      45.684   4.265  13.743  0.00  0.00    +0.000 A 
ATOM      4  C   UNL     1      47.045   4.585  13.784  0.00  0.00    +0.000 A 
ATOM      5  C   UNL     1      47.510   5.794  13.260  0.00  0.00    +0.000 A 
ATOM      6  C   UNL     1      46.619   6.690  12.668  0.00  0.00    +0.000 A 
ATOM      7  C   UNL     1      45.242   6.400  12.737  0.00  0.00    +0.000 A 
BRANCH   6   8
ATOM      8  C   UNL     1      47.034   7.841  11.762  0.00  0.00    +0.000 C 
ATOM      9  C   UNL     1      48.314   8.465  12.357  0.00  0.00    +0.000 C 
ATOM     10  C   UNL     1      47.998   9.477  13.455  0.00  0.00    +0.000 C 
ATOM     11  N   UNL     1      47.167  10.561  12.928  0.00  0.00    +0.000 NA
ATOM     12  C   UNL     1      45.879  10.050  12.468  0.00  0.00    +0.000 C 
ATOM     13  C   UNL     1      46.006   8.935  11.426  0.00  0.00    +0.000 C 
ATOM     14  H   UNL     1      47.657  11.000  12.148  0.00  0.00    +0.000 HD
ENDBRANCH   6   8
ENDBRANCH   1   2
BRANCH   1  15
ATOM     15  C   UNL     1      42.857   5.172  11.828  0.00  0.00    +0.000 C 
BRANCH  15  19
ATOM     16  C   UNL     1      45.240   2.937   8.981  0.00  0.00    +0.000 A 
ATOM     17  C   UNL     1      45.243   4.336   8.941  0.00  0.00    +0.000 A 
ATOM     18  C   UNL     1      44.476   5.066   9.857  0.00  0.00    +0.000 A 
ATOM     19  C   UNL     1      43.683   4.411  10.811  0.00  0.00    +0.000 A 
ATOM     20  C   UNL     1      43.695   3.010  10.850  0.00  0.00    +0.000 A 
ATOM     21  C   UNL     1      44.458   2.278   9.935  0.00  0.00    +0.000 A 
BRANCH  16  23
ATOM     22  N   UNL     1      46.500   2.725   6.902  0.00  0.00    +0.000 N 
ATOM     23  C   UNL     1      46.020   2.110   8.028  0.00  0.00    +0.000 C 
ATOM     24  O   UNL     1      46.266   0.932   8.248  0.00  0.00    +0.000 OA
ATOM     25  H   UNL     1      47.123   2.171   6.328  0.00  0.00    +0.000 HD
ATOM     26  H   UNL     1      46.540   3.729   6.811  0.00  0.00    +0.000 HD
ENDBRANCH  16  23
ENDBRANCH  15  19
ENDBRANCH   1  15
TORSDOF 5
ENDMDL
MODEL 8
REMARK VINA RESULT:    -6.130      3.694      5.704
REMARK INTER + INTRA:          -8.870
REMARK INTER:                  -8.208
REMARK INTRA:                  -0.662
REMARK UNBOUND:                -0.948
REMARK  Name = 
REMARK  5 active torsions:
REMARK  status: ('A' for Active; 'I' for Inactive)
REMARK    1  A    between atoms: C_2  and  C_4
REMARK    2  A    between atoms: C_7  and  C_8
REMARK    3  A    between atoms: C_8  and  O_9
REMARK    4  A    between atoms: O_9  and  C_10
REMARK    5  A    between atoms: C_14  and  C_15
REMARK                            x       y       z     vdW  Elec       q    Type
REMARK                         _______ _______ _______ _____ _____    ______ ____
ROOT
ATOM      1  O   UNL     1      48.602   6.643  13.761  0.00  0.00    +0.000 OA
ENDROOT
BRANCH   1   2
ATOM      2  C   UNL     1      48.686   7.010  15.075  0.00  0.00    +0.000 A 
ATOM      3  C   UNL     1      48.708   8.308  15.574  0.00  0.00    +0.000 A 
ATOM      4  C   UNL     1      48.797   8.521  16.953  0.00  0.00    +0.000 A 
ATOM      5  C   UNL     1      48.797   7.444  17.843  0.00  0.00    +0.000 A 
ATOM      6  C   UNL     1      48.687   6.138  17.363  0.00  0.00    +0.000 A 
ATOM      7  C   UNL     1      48.712   5.940  15.968  0.00  0.00    +0.000 A 
BRANCH   6   8
ATOM      8  C   UNL     1      48.319   4.936  18.221  0.00  0.00    +0.000 C 
ATOM      9  C   UNL     1      49.574   4.536  19.025  0.00  0.00    +0.000 C 
ATOM     10  C   UNL     1      50.509   3.641  18.217  0.00  0.00    +0.000 C 
ATOM     11  N   UNL     1      49.820   2.414  17.812  0.00  0.00    +0.000 NA
ATOM     12  C   UNL     1      48.693   2.719  16.934  0.00  0.00    +0.000 C 
ATOM     13  C   UNL     1      47.693   3.702  17.549  0.00  0.00    +0.000 C 
ATOM     14  H   UNL     1      49.480   1.938  18.648  0.00  0.00    +0.000 HD
ENDBRANCH   6   8
ENDBRANCH   1   2
BRANCH   1  15
ATOM     15  C   UNL     1      47.508   7.174  13.017  0.00  0.00    +0.000 C 
BRANCH  15  19
ATOM     16  C   UNL     1      44.983   4.013  11.464  0.00  0.00    +0.000 A 
ATOM     17  C   UNL     1      45.546   3.887  12.739  0.00  0.00    +0.000 A 
ATOM     18  C   UNL     1      46.364   4.904  13.249  0.00  0.00    +0.000 A 
ATOM     19  C   UNL     1      46.644   6.049  12.487  0.00  0.00    +0.000 A 
ATOM     20  C   UNL     1      46.067   6.169  11.215  0.00  0.00    +0.000 A 
ATOM     21  C   UNL     1      45.253   5.155  10.703  0.00  0.00    +0.000 A 
BRANCH  16  23
ATOM     22  N   UNL     1      44.654   2.211   9.851  0.00  0.00    +0.000 N 
ATOM     23  C   UNL     1      44.123   2.963  10.866  0.00  0.00    +0.000 C 
ATOM     24  O   UNL     1      42.995   2.740  11.282  0.00  0.00    +0.000 OA
ATOM     25  H   UNL     1      44.091   1.430   9.540  0.00  0.00    +0.000 HD
ATOM     26  H   UNL     1      45.643   2.188   9.658  0.00  0.00    +0.000 HD
ENDBRANCH  16  23
ENDBRANCH  15  19
ENDBRANCH   1  15
TORSDOF 5
ENDMDL
MODEL 9
REMARK VINA RESULT:    -5.863      4.783      7.215
REMARK INTER + INTRA:          -8.525
REMARK INTER:                  -7.665
REMARK INTRA:                  -0.860
REMARK UNBOUND:                -0.948
REMARK  Name = 
REMARK  5 active torsions:
REMARK  status: ('A' for Active; 'I' for Inactive)
REMARK    1  A    between atoms: C_2  and  C_4
REMARK    2  A    between atoms: C_7  and  C_8
REMARK    3  A    between atoms: C_8  and  O_9
REMARK    4  A    between atoms: O_9  and  C_10
REMARK    5  A    between atoms: C_14  and  C_15
REMARK                            x       y       z     vdW  Elec       q    Type
REMARK                         _______ _______ _______ _____ _____    ______ ____
ROOT
ATOM      1  O   UNL     1      44.464  10.067  12.200  0.00  0.00    +0.000 OA
ENDROOT
BRANCH   1   2
ATOM      2  C   UNL     1      45.241   8.943  12.157  0.00  0.00    +0.000 A 
ATOM      3  C   UNL     1      46.474   8.763  12.776  0.00  0.00    +0.000 A 
ATOM      4  C   UNL     1      47.150   7.547  12.636  0.00  0.00    +0.000 A 
ATOM      5  C   UNL     1      46.572   6.485  11.936  0.00  0.00    +0.000 A 
ATOM      6  C   UNL     1      45.297   6.621  11.384  0.00  0.00    +0.000 A 
ATOM      7  C   UNL     1      44.682   7.888  11.438  0.00  0.00    +0.000 A 
BRANCH   6   8
ATOM      8  C   UNL     1      44.432   5.457  10.925  0.00  0.00    +0.000 C 
ATOM      9  C   UNL     1      43.075   5.569  11.651  0.00  0.00    +0.000 C 
ATOM     10  C   UNL     1      43.120   4.953  13.046  0.00  0.00    +0.000 C 
ATOM     11  N   UNL     1      43.476   3.535  12.967  0.00  0.00    +0.000 NA
ATOM     12  C   UNL     1      44.814   3.366  12.408  0.00  0.00    +0.000 C 
ATOM     13  C   UNL     1      44.986   4.025  11.036  0.00  0.00    +0.000 C 
ATOM     14  H   UNL     1      42.796   3.059  12.372  0.00  0.00    +0.000 HD
ENDBRANCH   6   8
ENDBRANCH   1   2
BRANCH   1  15
ATOM     15  C   UNL     1      45.063  11.277  11.742  0.00  0.00    +0.000 C 
BRANCH  15  19
ATOM     16  C   UNL     1      44.462  11.617   7.465  0.00  0.00    +0.000 A 
ATOM     17  C   UNL     1      45.604  12.174   8.050  0.00  0.00    +0.000 A 
ATOM     18  C   UNL     1      45.806  12.069   9.433  0.00  0.00    +0.000 A 
ATOM     19  C   UNL     1      44.864  11.424  10.248  0.00  0.00    +0.000 A 
ATOM     20  C   UNL     1      43.729  10.861   9.650  0.00  0.00    +0.000 A 
ATOM     21  C   UNL     1      43.523  10.966   8.271  0.00  0.00    +0.000 A 
BRANCH  16  23
ATOM     22  N   UNL     1      45.255  11.628   5.157  0.00  0.00    +0.000 N 
ATOM     23  C   UNL     1      44.186  11.710   6.010  0.00  0.00    +0.000 C 
ATOM     24  O   UNL     1      43.048  11.813   5.575  0.00  0.00    +0.000 OA
ATOM     25  H   UNL     1      45.030  11.578   4.171  0.00  0.00    +0.000 HD
ATOM     26  H   UNL     1      46.158  11.291   5.454  0.00  0.00    +0.000 HD
ENDBRANCH  16  23
ENDBRANCH  15  19
ENDBRANCH   1  15
TORSDOF 5
ENDMDL
