MODEL 1
REMARK VINA RESULT:    -7.891      0.000      0.000
REMARK INTER + INTRA:         -10.095
REMARK INTER:                 -10.197
REMARK INTRA:                   0.102
REMARK UNBOUND:                 0.102
REMARK  Name = 
REMARK  5 active torsions:
REMARK  status: ('A' for Active; 'I' for Inactive)
REMARK    1  A    between atoms: C_2  and  C_3
REMARK    2  A    between atoms: C_6  and  O_7
REMARK    3  A    between atoms: O_7  and  C_8
REMARK    4  A    between atoms: C_8  and  C_9
REMARK    5  A    between atoms: C_14  and  N_15
REMARK                            x       y       z     vdW  Elec       q    Type
REMARK                         _______ _______ _______ _____ _____    ______ ____
ROOT
ATOM      1  C   UNL     1      45.018   5.924  11.553  0.00  0.00    +0.000 A 
ATOM      2  C   UNL     1      44.403   7.183  11.440  0.00  0.00    +0.000 A 
ATOM      3  C   UNL     1      45.096   8.358  11.742  0.00  0.00    +0.000 A 
ATOM      4  C   UNL     1      46.429   8.301  12.146  0.00  0.00    +0.000 A 
ATOM      5  F   UNL     1      47.037   9.456  12.463  0.00  0.00    +0.000 F 
ATOM      6  C   UNL     1      47.125   7.090  12.217  0.00  0.00    +0.000 A 
ATOM      7  C   UNL     1      46.392   5.925  11.898  0.00  0.00    +0.000 A 
ENDROOT
BRANCH   6   8
ATOM      8  N   UNL     1      48.438   6.957  12.652  0.00  0.00    +0.000 N 
ATOM      9  C   UNL     1      48.781   7.000  14.084  0.00  0.00    +0.000 C 
ATOM     10  C   UNL     1      49.515   8.294  14.462  0.00  0.00    +0.000 C 
ATOM     11  O   UNL     1      50.644   8.531  13.604  0.00  0.00    +0.000 OA
ATOM     12  C   UNL     1      50.204   8.649  12.240  0.00  0.00    +0.000 C 
ATOM     13  C   UNL     1      49.529   7.357  11.748  0.00  0.00    +0.000 C 
ENDBRANCH   6   8
BRANCH   1  14
ATOM     14  C   UNL     1      44.185   4.633  11.480  0.00  0.00    +0.000 C 
ATOM     15  C   UNL     1      44.621   3.390  12.236  0.00  0.00    +0.000 C 
ATOM     16  C   UNL     1      43.414   4.145  12.691  0.00  0.00    +0.000 C 
BRANCH  14  17
ATOM     17  O   UNL     1      43.656   4.236  10.183  0.00  0.00    +0.000 OA
BRANCH  17  21
ATOM     18  C   UNL     1      46.453   2.594   7.680  0.00  0.00    +0.000 A 
ATOM     19  C   UNL     1      45.661   1.769   8.475  0.00  0.00    +0.000 A 
ATOM     20  C   UNL     1      44.687   2.341   9.281  0.00  0.00    +0.000 A 
ATOM     21  C   UNL     1      44.537   3.723   9.256  0.00  0.00    +0.000 A 
ATOM     22  N   UNL     1      45.240   4.541   8.450  0.00  0.00    +0.000 NA
ATOM     23  C   UNL     1      46.196   3.962   7.692  0.00  0.00    +0.000 A 
BRANCH  18  25
ATOM     24  N   UNL     1      48.378   1.615   6.265  0.00  0.00    +0.000 NA
ATOM     25  C   UNL     1      47.519   2.071   6.898  0.00  0.00    +0.000 C 
ENDBRANCH  18  25
ENDBRANCH  17  21
ENDBRANCH  14  17
ENDBRANCH   1  14
TORSDOF 5
ENDMDL
MODEL 2
REMARK VINA RESULT:    -7.556      1.453      2.154
REMARK INTER + INTRA:          -9.663
REMARK INTER:                  -8.946
REMARK INTRA:                  -0.717
REMARK UNBOUND:                 0.102
REMARK  Name = 
REMARK  5 active torsions:
REMARK  status: ('A' for Active; 'I' for Inactive)
REMARK    1  A    between atoms: C_2  and  C_3
REMARK    2  A    between atoms: C_6  and  O_7
REMARK    3  A    between atoms: O_7  and  C_8
REMARK    4  A    between atoms: C_8  and  C_9
REMARK    5  A    between atoms: C_14  and  N_15
REMARK                            x       y       z     vdW  Elec       q    Type
REMARK                         _______ _______ _______ _____ _____    ______ ____
ROOT
ATOM      1  C   UNL     1      45.009   5.311  12.376  0.00  0.00    +0.000 A 
ATOM      2  C   UNL     1      45.549   4.339  13.235  0.00  0.00    +0.000 A 
ATOM      3  C   UNL     1      46.780   4.534  13.866  0.00  0.00    +0.000 A 
ATOM      4  C   UNL     1      47.490   5.717  13.668  0.00  0.00    +0.000 A 
ATOM      5  F   UNL     1      48.687   5.838  14.265  0.00  0.00    +0.000 F 
ATOM      6  C   UNL     1      46.983   6.755  12.879  0.00  0.00    +0.000 A 
ATOM      7  C   UNL     1      45.733   6.523  12.263  0.00  0.00    +0.000 A 
ENDROOT
BRANCH   6   8
ATOM      8  N   UNL     1      47.656   7.940  12.605  0.00  0.00    +0.000 N 
ATOM      9  C   UNL     1      48.782   7.982  11.658  0.00  0.00    +0.000 C 
ATOM     10  C   UNL     1      50.126   8.192  12.370  0.00  0.00    +0.000 C 
ATOM     11  O   UNL     1      50.085   9.329  13.249  0.00  0.00    +0.000 OA
ATOM     12  C   UNL     1      49.074   9.133  14.252  0.00  0.00    +0.000 C 
ATOM     13  C   UNL     1      47.674   8.999  13.628  0.00  0.00    +0.000 C 
ENDBRANCH   6   8
BRANCH   1  14
ATOM     14  C   UNL     1      43.798   4.985  11.484  0.00  0.00    +0.000 C 
ATOM     15  C   UNL     1      42.405   5.448  11.877  0.00  0.00    +0.000 C 
ATOM     16  C   UNL     1      43.094   6.085  10.712  0.00  0.00    +0.000 C 
BRANCH  14  17
ATOM     17  O   UNL     1      43.709   3.648  10.916  0.00  0.00    +0.000 OA
BRANCH  17  21
ATOM     18  C   UNL     1      46.257   2.626   7.876  0.00  0.00    +0.000 A 
ATOM     19  C   UNL     1      45.574   1.634   8.574  0.00  0.00    +0.000 A 
ATOM     20  C   UNL     1      44.680   2.002   9.569  0.00  0.00    +0.000 A 
ATOM     21  C   UNL     1      44.497   3.356   9.824  0.00  0.00    +0.000 A 
ATOM     22  N   UNL     1      45.090   4.340   9.122  0.00  0.00    +0.000 NA
ATOM     23  C   UNL     1      45.972   3.956   8.174  0.00  0.00    +0.000 A 
BRANCH  18  25
ATOM     24  N   UNL     1      48.051   2.014   6.122  0.00  0.00    +0.000 NA
ATOM     25  C   UNL     1      47.244   2.306   6.904  0.00  0.00    +0.000 C 
ENDBRANCH  18  25
ENDBRANCH  17  21
ENDBRANCH  14  17
ENDBRANCH   1  14
TORSDOF 5
ENDMDL
MODEL 3
REMARK VINA RESULT:    -7.532      3.047      3.681
REMARK INTER + INTRA:          -9.632
REMARK INTER:                  -9.313
REMARK INTRA:                  -0.319
REMARK UNBOUND:                 0.102
REMARK  Name = 
REMARK  5 active torsions:
REMARK  status: ('A' for Active; 'I' for Inactive)
REMARK    1  A    between atoms: C_2  and  C_3
REMARK    2  A    between atoms: C_6  and  O_7
REMARK    3  A    between atoms: O_7  and  C_8
REMARK    4  A    between atoms: C_8  and  C_9
REMARK    5  A    between atoms: C_14  and  N_15
REMARK                            x       y       z     vdW  Elec       q    Type
REMARK                         _______ _______ _______ _____ _____    ______ ____
ROOT
ATOM      1  C   UNL     1      45.879   5.124  13.080  0.00  0.00    +0.000 A 
ATOM      2  C   UNL     1      46.780   6.148  12.742  0.00  0.00    +0.000 A 
ATOM      3  C   UNL     1      47.841   6.488  13.585  0.00  0.00    +0.000 A 
ATOM      4  C   UNL     1      48.037   5.795  14.779  0.00  0.00    +0.000 A 
ATOM      5  F   UNL     1      49.047   6.187  15.572  0.00  0.00    +0.000 F 
ATOM      6  C   UNL     1      47.221   4.721  15.148  0.00  0.00    +0.000 A 
ATOM      7  C   UNL     1      46.163   4.404  14.267  0.00  0.00    +0.000 A 
ENDROOT
BRANCH   6   8
ATOM      8  N   UNL     1      47.333   4.017  16.341  0.00  0.00    +0.000 N 
ATOM      9  C   UNL     1      47.081   4.662  17.640  0.00  0.00    +0.000 C 
ATOM     10  C   UNL     1      48.374   4.866  18.442  0.00  0.00    +0.000 C 
ATOM     11  O   UNL     1      49.125   3.645  18.554  0.00  0.00    +0.000 OA
ATOM     12  C   UNL     1      49.481   3.171  17.245  0.00  0.00    +0.000 C 
ATOM     13  C   UNL     1      48.236   2.855  16.397  0.00  0.00    +0.000 C 
ENDBRANCH   6   8
BRANCH   1  14
ATOM     14  C   UNL     1      44.573   4.934  12.290  0.00  0.00    +0.000 C 
ATOM     15  C   UNL     1      43.244   5.374  12.881  0.00  0.00    +0.000 C 
ATOM     16  C   UNL     1      43.830   6.133  11.734  0.00  0.00    +0.000 C 
BRANCH  14  17
ATOM     17  O   UNL     1      44.381   3.677  11.581  0.00  0.00    +0.000 OA
BRANCH  17  21
ATOM     18  C   UNL     1      45.855   3.254   7.782  0.00  0.00    +0.000 A 
ATOM     19  C   UNL     1      45.271   2.167   8.427  0.00  0.00    +0.000 A 
ATOM     20  C   UNL     1      44.736   2.342   9.695  0.00  0.00    +0.000 A 
ATOM     21  C   UNL     1      44.798   3.606  10.269  0.00  0.00    +0.000 A 
ATOM     22  N   UNL     1      45.294   4.692   9.646  0.00  0.00    +0.000 NA
ATOM     23  C   UNL     1      45.829   4.490   8.422  0.00  0.00    +0.000 A 
BRANCH  18  25
ATOM     24  N   UNL     1      46.981   2.996   5.473  0.00  0.00    +0.000 NA
ATOM     25  C   UNL     1      46.491   3.115   6.518  0.00  0.00    +0.000 C 
ENDBRANCH  18  25
ENDBRANCH  17  21
ENDBRANCH  14  17
ENDBRANCH   1  14
TORSDOF 5
ENDMDL
MODEL 4
REMARK VINA RESULT:    -7.479      3.245      7.147
REMARK INTER + INTRA:          -9.563
REMARK INTER:                  -8.754
REMARK INTRA:                  -0.809
REMARK UNBOUND:                 0.102
REMARK  Name = 
REMARK  5 active torsions:
REMARK  status: ('A' for Active; 'I' for Inactive)
REMARK    1  A    between atoms: C_2  and  C_3
REMARK    2  A    between atoms: C_6  and  O_7
REMARK    3  A    between atoms: O_7  and  C_8
REMARK    4  A    between atoms: C_8  and  C_9
REMARK    5  A    between atoms: C_14  and  N_15
REMARK                            x       y       z     vdW  Elec       q    Type
REMARK                         _______ _______ _______ _____ _____    ______ ____
ROOT
ATOM      1  C   UNL     1      45.632   5.530  12.257  0.00  0.00    +0.000 A 
ATOM      2  C   UNL     1      44.788   5.052  13.273  0.00  0.00    +0.000 A 
ATOM      3  C   UNL     1      43.853   4.044  13.024  0.00  0.00    +0.000 A 
ATOM      4  C   UNL     1      43.755   3.476  11.754  0.00  0.00    +0.000 A 
ATOM      5  F   UNL     1      42.813   2.539  11.557  0.00  0.00    +0.000 F 
ATOM      6  C   UNL     1      44.608   3.856  10.712  0.00  0.00    +0.000 A 
ATOM      7  C   UNL     1      45.543   4.873  11.004  0.00  0.00    +0.000 A 
ENDROOT
BRANCH   6   8
ATOM      8  N   UNL     1      44.537   3.364   9.414  0.00  0.00    +0.000 N 
ATOM      9  C   UNL     1      44.679   1.926   9.129  0.00  0.00    +0.000 C 
ATOM     10  C   UNL     1      46.012   1.606   8.439  0.00  0.00    +0.000 C 
ATOM     11  O   UNL     1      46.222   2.434   7.283  0.00  0.00    +0.000 OA
ATOM     12  C   UNL     1      46.242   3.818   7.673  0.00  0.00    +0.000 C 
ATOM     13  C   UNL     1      44.905   4.251   8.298  0.00  0.00    +0.000 C 
ENDBRANCH   6   8
BRANCH   1  14
ATOM     14  C   UNL     1      46.463   6.808  12.463  0.00  0.00    +0.000 C 
ATOM     15  C   UNL     1      47.865   6.730  13.042  0.00  0.00    +0.000 C 
ATOM     16  C   UNL     1      47.681   7.080  11.600  0.00  0.00    +0.000 C 
BRANCH  14  17
ATOM     17  O   UNL     1      45.791   7.979  13.008  0.00  0.00    +0.000 OA
BRANCH  17  21
ATOM     18  C   UNL     1      44.105  10.859  10.633  0.00  0.00    +0.000 A 
ATOM     19  C   UNL     1      45.238  11.154  11.386  0.00  0.00    +0.000 A 
ATOM     20  C   UNL     1      45.822  10.152  12.148  0.00  0.00    +0.000 A 
ATOM     21  C   UNL     1      45.252   8.885  12.121  0.00  0.00    +0.000 A 
ATOM     22  N   UNL     1      44.198   8.551  11.352  0.00  0.00    +0.000 NA
ATOM     23  C   UNL     1      43.634   9.549  10.638  0.00  0.00    +0.000 A 
BRANCH  18  25
ATOM     24  N   UNL     1      42.885  12.696   9.290  0.00  0.00    +0.000 NA
ATOM     25  C   UNL     1      43.417  11.864   9.899  0.00  0.00    +0.000 C 
ENDBRANCH  18  25
ENDBRANCH  17  21
ENDBRANCH  14  17
ENDBRANCH   1  14
TORSDOF 5
ENDMDL
MODEL 5
REMARK VINA RESULT:    -7.229      3.136      7.597
REMARK INTER + INTRA:          -9.240
REMARK INTER:                  -8.727
REMARK INTRA:                  -0.513
REMARK UNBOUND:                 0.102
REMARK  Name = 
REMARK  5 active torsions:
REMARK  status: ('A' for Active; 'I' for Inactive)
REMARK    1  A    between atoms: C_2  and  C_3
REMARK    2  A    between atoms: C_6  and  O_7
REMARK    3  A    between atoms: O_7  and  C_8
REMARK    4  A    between atoms: C_8  and  C_9
REMARK    5  A    between atoms: C_14  and  N_15
REMARK                            x       y       z     vdW  Elec       q    Type
REMARK                         _______ _______ _______ _____ _____    ______ ____
ROOT
ATOM      1  C   UNL     1      45.744   5.217  12.432  0.00  0.00    +0.000 A 
ATOM      2  C   UNL     1      44.757   4.874  13.371  0.00  0.00    +0.000 A 
ATOM      3  C   UNL     1      43.684   4.049  13.026  0.00  0.00    +0.000 A 
ATOM      4  C   UNL     1      43.584   3.532  11.736  0.00  0.00    +0.000 A 
ATOM      5  F   UNL     1      42.512   2.778  11.444  0.00  0.00    +0.000 F 
ATOM      6  C   UNL     1      44.564   3.776  10.768  0.00  0.00    +0.000 A 
ATOM      7  C   UNL     1      45.636   4.609  11.156  0.00  0.00    +0.000 A 
ENDROOT
BRANCH   6   8
ATOM      8  N   UNL     1      44.505   3.329   9.454  0.00  0.00    +0.000 N 
ATOM      9  C   UNL     1      44.649   1.902   9.121  0.00  0.00    +0.000 C 
ATOM     10  C   UNL     1      45.989   1.603   8.434  0.00  0.00    +0.000 C 
ATOM     11  O   UNL     1      46.211   2.470   7.309  0.00  0.00    +0.000 OA
ATOM     12  C   UNL     1      46.228   3.839   7.745  0.00  0.00    +0.000 C 
ATOM     13  C   UNL     1      44.885   4.253   8.372  0.00  0.00    +0.000 C 
ENDBRANCH   6   8
BRANCH   1  14
ATOM     14  C   UNL     1      46.766   6.327  12.735  0.00  0.00    +0.000 C 
ATOM     15  C   UNL     1      46.997   7.454  11.743  0.00  0.00    +0.000 C 
ATOM     16  C   UNL     1      46.302   7.739  13.035  0.00  0.00    +0.000 C 
BRANCH  14  17
ATOM     17  O   UNL     1      48.044   5.937  13.314  0.00  0.00    +0.000 OA
BRANCH  17  21
ATOM     18  C   UNL     1      48.555   5.375  17.339  0.00  0.00    +0.000 A 
ATOM     19  C   UNL     1      49.002   6.549  16.738  0.00  0.00    +0.000 A 
ATOM     20  C   UNL     1      48.778   6.741  15.382  0.00  0.00    +0.000 A 
ATOM     21  C   UNL     1      48.105   5.750  14.678  0.00  0.00    +0.000 A 
ATOM     22  N   UNL     1      47.601   4.637  15.242  0.00  0.00    +0.000 NA
ATOM     23  C   UNL     1      47.852   4.462  16.557  0.00  0.00    +0.000 A 
BRANCH  18  25
ATOM     24  N   UNL     1      49.083   4.854  19.812  0.00  0.00    +0.000 NA
ATOM     25  C   UNL     1      48.828   5.088  18.704  0.00  0.00    +0.000 C 
ENDBRANCH  18  25
ENDBRANCH  17  21
ENDBRANCH  14  17
ENDBRANCH   1  14
TORSDOF 5
ENDMDL
MODEL 6
REMARK VINA RESULT:    -7.086      2.169      3.217
REMARK INTER + INTRA:          -9.055
REMARK INTER:                  -9.882
REMARK INTRA:                   0.827
REMARK UNBOUND:                 0.102
REMARK  Name = 
REMARK  5 active torsions:
REMARK  status: ('A' for Active; 'I' for Inactive)
REMARK    1  A    between atoms: C_2  and  C_3
REMARK    2  A    between atoms: C_6  and  O_7
REMARK    3  A    between atoms: O_7  and  C_8
REMARK    4  A    between atoms: C_8  and  C_9
REMARK    5  A    between atoms: C_14  and  N_15
REMARK                            x       y       z     vdW  Elec       q    Type
REMARK                         _______ _______ _______ _____ _____    ______ ____
ROOT
ATOM      1  C   UNL     1      45.103   5.994  11.998  0.00  0.00    +0.000 A 
ATOM      2  C   UNL     1      46.488   5.763  12.041  0.00  0.00    +0.000 A 
ATOM      3  C   UNL     1      47.401   6.820  12.007  0.00  0.00    +0.000 A 
ATOM      4  C   UNL     1      46.946   8.137  11.948  0.00  0.00    +0.000 A 
ATOM      5  F   UNL     1      47.864   9.114  11.876  0.00  0.00    +0.000 F 
ATOM      6  C   UNL     1      45.582   8.445  11.970  0.00  0.00    +0.000 A 
ATOM      7  C   UNL     1      44.691   7.350  12.011  0.00  0.00    +0.000 A 
ENDROOT
BRANCH   6   8
ATOM      8  N   UNL     1      45.060   9.729  11.870  0.00  0.00    +0.000 N 
ATOM      9  C   UNL     1      43.783   9.990  11.185  0.00  0.00    +0.000 C 
ATOM     10  C   UNL     1      43.985  10.714   9.847  0.00  0.00    +0.000 C 
ATOM     11  O   UNL     1      44.794  11.893  10.001  0.00  0.00    +0.000 OA
ATOM     12  C   UNL     1      46.088  11.532  10.513  0.00  0.00    +0.000 C 
ATOM     13  C   UNL     1      45.986  10.874  11.901  0.00  0.00    +0.000 C 
ENDBRANCH   6   8
BRANCH   1  14
ATOM     14  C   UNL     1      44.119   4.833  11.769  0.00  0.00    +0.000 C 
ATOM     15  C   UNL     1      44.355   3.482  12.422  0.00  0.00    +0.000 C 
ATOM     16  C   UNL     1      43.230   4.345  12.896  0.00  0.00    +0.000 C 
BRANCH  14  17
ATOM     17  O   UNL     1      43.614   4.624  10.420  0.00  0.00    +0.000 OA
BRANCH  17  21
ATOM     18  C   UNL     1      46.223   2.623   7.976  0.00  0.00    +0.000 A 
ATOM     19  C   UNL     1      45.308   1.911   8.748  0.00  0.00    +0.000 A 
ATOM     20  C   UNL     1      44.402   2.608   9.534  0.00  0.00    +0.000 A 
ATOM     21  C   UNL     1      44.440   3.998   9.511  0.00  0.00    +0.000 A 
ATOM     22  N   UNL     1      45.265   4.714   8.725  0.00  0.00    +0.000 NA
ATOM     23  C   UNL     1      46.152   4.013   7.987  0.00  0.00    +0.000 A 
BRANCH  18  25
ATOM     24  N   UNL     1      48.039   1.442   6.571  0.00  0.00    +0.000 NA
ATOM     25  C   UNL     1      47.227   1.962   7.216  0.00  0.00    +0.000 C 
ENDBRANCH  18  25
ENDBRANCH  17  21
ENDBRANCH  14  17
ENDBRANCH   1  14
TORSDOF 5
ENDMDL
MODEL 7
REMARK VINA RESULT:    -7.058      2.870      7.942
REMARK INTER + INTRA:          -9.019
REMARK INTER:                  -8.003
REMARK INTRA:                  -1.016
REMARK UNBOUND:                 0.102
REMARK  Name = 
REMARK  5 active torsions:
REMARK  status: ('A' for Active; 'I' for Inactive)
REMARK    1  A    between atoms: C_2  and  C_3
REMARK    2  A    between atoms: C_6  and  O_7
REMARK    3  A    between atoms: O_7  and  C_8
REMARK    4  A    between atoms: C_8  and  C_9
REMARK    5  A    between atoms: C_14  and  N_15
REMARK                            x       y       z     vdW  Elec       q    Type
REMARK                         _______ _______ _______ _____ _____    ______ ____
ROOT
ATOM      1  C   UNL     1      47.702   7.440  13.159  0.00  0.00    +0.000 A 
ATOM      2  C   UNL     1      46.767   8.487  13.218  0.00  0.00    +0.000 A 
ATOM      3  C   UNL     1      45.463   8.322  12.745  0.00  0.00    +0.000 A 
ATOM      4  C   UNL     1      45.058   7.096  12.219  0.00  0.00    +0.000 A 
ATOM      5  F   UNL     1      43.806   7.001  11.741  0.00  0.00    +0.000 F 
ATOM      6  C   UNL     1      45.914   5.990  12.190  0.00  0.00    +0.000 A 
ATOM      7  C   UNL     1      47.222   6.195  12.683  0.00  0.00    +0.000 A 
ENDROOT
BRANCH   6   8
ATOM      8  N   UNL     1      45.591   4.755  11.642  0.00  0.00    +0.000 N 
ATOM      9  C   UNL     1      45.164   4.625  10.239  0.00  0.00    +0.000 C 
ATOM     10  C   UNL     1      43.670   4.294  10.119  0.00  0.00    +0.000 C 
ATOM     11  O   UNL     1      43.314   3.157  10.925  0.00  0.00    +0.000 OA
ATOM     12  C   UNL     1      43.602   3.430  12.306  0.00  0.00    +0.000 C 
ATOM     13  C   UNL     1      45.102   3.689  12.533  0.00  0.00    +0.000 C 
ENDBRANCH   6   8
BRANCH   1  14
ATOM     14  C   UNL     1      49.194   7.702  13.430  0.00  0.00    +0.000 C 
ATOM     15  C   UNL     1      50.163   7.902  12.278  0.00  0.00    +0.000 C 
ATOM     16  C   UNL     1      49.799   9.063  13.146  0.00  0.00    +0.000 C 
BRANCH  14  17
ATOM     17  O   UNL     1      49.847   6.915  14.466  0.00  0.00    +0.000 OA
BRANCH  17  21
ATOM     18  C   UNL     1      48.129   6.466  18.158  0.00  0.00    +0.000 A 
ATOM     19  C   UNL     1      48.496   7.733  17.710  0.00  0.00    +0.000 A 
ATOM     20  C   UNL     1      49.033   7.871  16.439  0.00  0.00    +0.000 A 
ATOM     21  C   UNL     1      49.177   6.731  15.656  0.00  0.00    +0.000 A 
ATOM     22  N   UNL     1      48.770   5.504  16.033  0.00  0.00    +0.000 NA
ATOM     23  C   UNL     1      48.272   5.393  17.283  0.00  0.00    +0.000 A 
BRANCH  18  25
ATOM     24  N   UNL     1      47.289   6.094  20.571  0.00  0.00    +0.000 NA
ATOM     25  C   UNL     1      47.651   6.254  19.480  0.00  0.00    +0.000 C 
ENDBRANCH  18  25
ENDBRANCH  17  21
ENDBRANCH  14  17
ENDBRANCH   1  14
TORSDOF 5
ENDMDL
MODEL 8
REMARK VINA RESULT:    -6.658      3.557      5.911
REMARK INTER + INTRA:          -8.501
REMARK INTER:                  -7.688
REMARK INTRA:                  -0.813
REMARK UNBOUND:                 0.102
REMARK  Name = 
REMARK  5 active torsions:
REMARK  status: ('A' for Active; 'I' for Inactive)
REMARK    1  A    between atoms: C_2  and  C_3
REMARK    2  A    between atoms: C_6  and  O_7
REMARK    3  A    between atoms: O_7  and  C_8
REMARK    4  A    between atoms: C_8  and  C_9
REMARK    5  A    between atoms: C_14  and  N_15
REMARK                            x       y       z     vdW  Elec       q    Type
REMARK                         _______ _______ _______ _____ _____    ______ ____
ROOT
ATOM      1  C   UNL     1      48.502   7.678  14.980  0.00  0.00    +0.000 A 
ATOM      2  C   UNL     1      48.420   8.888  15.689  0.00  0.00    +0.000 A 
ATOM      3  C   UNL     1      48.425   8.912  17.086  0.00  0.00    +0.000 A 
ATOM      4  C   UNL     1      48.533   7.724  17.807  0.00  0.00    +0.000 A 
ATOM      5  F   UNL     1      48.492   7.797  19.147  0.00  0.00    +0.000 F 
ATOM      6  C   UNL     1      48.685   6.488  17.169  0.00  0.00    +0.000 A 
ATOM      7  C   UNL     1      48.682   6.506  15.756  0.00  0.00    +0.000 A 
ENDROOT
BRANCH   6   8
ATOM      8  N   UNL     1      48.754   5.264  17.823  0.00  0.00    +0.000 N 
ATOM      9  C   UNL     1      50.043   4.687  18.240  0.00  0.00    +0.000 C 
ATOM     10  C   UNL     1      50.432   3.471  17.388  0.00  0.00    +0.000 C 
ATOM     11  O   UNL     1      49.372   2.502  17.334  0.00  0.00    +0.000 OA
ATOM     12  C   UNL     1      48.198   3.097  16.755  0.00  0.00    +0.000 C 
ATOM     13  C   UNL     1      47.684   4.278  17.597  0.00  0.00    +0.000 C 
ENDBRANCH   6   8
BRANCH   1  14
ATOM     14  C   UNL     1      48.230   7.633  13.466  0.00  0.00    +0.000 C 
ATOM     15  C   UNL     1      49.107   8.415  12.503  0.00  0.00    +0.000 C 
ATOM     16  C   UNL     1      49.191   6.922  12.534  0.00  0.00    +0.000 C 
BRANCH  14  17
ATOM     17  O   UNL     1      46.847   7.715  13.020  0.00  0.00    +0.000 OA
BRANCH  17  21
ATOM     18  C   UNL     1      44.648   4.401  12.039  0.00  0.00    +0.000 A 
ATOM     19  C   UNL     1      44.943   5.353  11.066  0.00  0.00    +0.000 A 
ATOM     20  C   UNL     1      45.728   6.445  11.407  0.00  0.00    +0.000 A 
ATOM     21  C   UNL     1      46.198   6.539  12.712  0.00  0.00    +0.000 A 
ATOM     22  N   UNL     1      45.988   5.602  13.656  0.00  0.00    +0.000 NA
ATOM     23  C   UNL     1      45.202   4.561  13.306  0.00  0.00    +0.000 A 
BRANCH  18  25
ATOM     24  N   UNL     1      43.059   2.432  11.526  0.00  0.00    +0.000 NA
ATOM     25  C   UNL     1      43.781   3.306  11.769  0.00  0.00    +0.000 C 
ENDBRANCH  18  25
ENDBRANCH  17  21
ENDBRANCH  14  17
ENDBRANCH   1  14
TORSDOF 5
ENDMDL
MODEL 9
REMARK VINA RESULT:    -6.146      2.915      7.284
REMARK INTER + INTRA:          -7.840
REMARK INTER:                  -7.008
REMARK INTRA:                  -0.832
REMARK UNBOUND:                 0.102
REMARK  Name = 
REMARK  5 active torsions:
REMARK  status: ('A' for Active; 'I' for Inactive)
REMARK    1  A    between atoms: C_2  and  C_3
REMARK    2  A    between atoms: C_6  and  O_7
REMARK    3  A    between atoms: O_7  and  C_8
REMARK    4  A    between atoms: C_8  and  C_9
REMARK    5  A    between atoms: C_14  and  N_15
REMARK                            x       y       z     vdW  Elec       q    Type
REMARK                         _______ _______ _______ _____ _____    ______ ____
ROOT
ATOM      1  C   UNL     1      48.135   7.195  12.624  0.00  0.00    +0.000 A 
ATOM      2  C   UNL     1      48.248   6.525  13.854  0.00  0.00    +0.000 A 
ATOM      3  C   UNL     1      47.320   5.554  14.238  0.00  0.00    +0.000 A 
ATOM      4  C   UNL     1      46.267   5.216  13.389  0.00  0.00    +0.000 A 
ATOM      5  F   UNL     1      45.380   4.306  13.823  0.00  0.00    +0.000 F 
ATOM      6  C   UNL     1      46.131   5.792  12.122  0.00  0.00    +0.000 A 
ATOM      7  C   UNL     1      47.091   6.765  11.767  0.00  0.00    +0.000 A 
ENDROOT
BRANCH   6   8
ATOM      8  N   UNL     1      45.084   5.534  11.245  0.00  0.00    +0.000 N 
ATOM      9  C   UNL     1      43.738   6.089  11.469  0.00  0.00    +0.000 C 
ATOM     10  C   UNL     1      42.733   5.010  11.896  0.00  0.00    +0.000 C 
ATOM     11  O   UNL     1      42.739   3.895  10.988  0.00  0.00    +0.000 OA
ATOM     12  C   UNL     1      44.048   3.299  10.957  0.00  0.00    +0.000 C 
ATOM     13  C   UNL     1      45.111   4.292  10.455  0.00  0.00    +0.000 C 
ENDBRANCH   6   8
BRANCH   1  14
ATOM     14  C   UNL     1      48.992   8.437  12.323  0.00  0.00    +0.000 C 
ATOM     15  C   UNL     1      50.508   8.365  12.405  0.00  0.00    +0.000 C 
ATOM     16  C   UNL     1      49.846   8.497  11.071  0.00  0.00    +0.000 C 
BRANCH  14  17
ATOM     17  O   UNL     1      48.550   9.716  12.858  0.00  0.00    +0.000 OA
BRANCH  17  21
ATOM     18  C   UNL     1      45.607  11.499  10.635  0.00  0.00    +0.000 A 
ATOM     19  C   UNL     1      45.270  10.588  11.634  0.00  0.00    +0.000 A 
ATOM     20  C   UNL     1      46.278  10.030  12.407  0.00  0.00    +0.000 A 
ATOM     21  C   UNL     1      47.590  10.413  12.156  0.00  0.00    +0.000 A 
ATOM     22  N   UNL     1      47.943  11.340  11.245  0.00  0.00    +0.000 NA
ATOM     23  C   UNL     1      46.946  11.851  10.491  0.00  0.00    +0.000 A 
BRANCH  18  25
ATOM     24  N   UNL     1      43.806  12.453   9.050  0.00  0.00    +0.000 NA
ATOM     25  C   UNL     1      44.625  12.039   9.760  0.00  0.00    +0.000 C 
ENDBRANCH  18  25
ENDBRANCH  17  21
ENDBRANCH  14  17
ENDBRANCH   1  14
TORSDOF 5
ENDMDL
