MODEL 1
REMARK VINA RESULT:    -8.540      0.000      0.000
REMARK INTER + INTRA:         -14.088
REMARK INTER:                 -13.782
REMARK INTRA:                  -0.305
REMARK UNBOUND:                -0.305
REMARK  Name = 
REMARK  12 active torsions:
REMARK  status: ('A' for Active; 'I' for Inactive)
REMARK    1  A    between atoms: C_1  and  N_2
REMARK    2  A    between atoms: N_2  and  C_3
REMARK    3  A    between atoms: N_2  and  C_14
REMARK    4  A    between atoms: C_3  and  C_4
REMARK    5  A    between atoms: C_7  and  O_8
REMARK    6  A    between atoms: O_8  and  C_9
REMARK    7  A    between atoms: C_9  and  C_10
REMARK    8  A    between atoms: C_10  and  O_11
REMARK    9  A    between atoms: C_14  and  C_15
REMARK   10  A    between atoms: C_18  and  C_19
REMARK   11  A    between atoms: C_19  and  N_20
REMARK   12  A    between atoms: C_21  and  C_23
REMARK                            x       y       z     vdW  Elec       q    Type
REMARK                         _______ _______ _______ _____ _____    ______ ____
ROOT
ATOM      1  C   UNL     1      46.536   4.407  13.677  0.00  0.00    +0.000 A 
ATOM      2  C   UNL     1      47.223   5.560  13.302  0.00  0.00    +0.000 A 
ATOM      3  C   UNL     1      48.013   6.211  14.247  0.00  0.00    +0.000 A 
ATOM      4  C   UNL     1      48.108   5.701  15.543  0.00  0.00    +0.000 A 
ATOM      5  C   UNL     1      47.369   4.560  15.833  0.00  0.00    +0.000 A 
ATOM      6  N   UNL     1      46.597   3.904  14.937  0.00  0.00    +0.000 NA
ENDROOT
BRANCH   1   7
ATOM      7  C   UNL     1      45.675   3.656  12.675  0.00  0.00    +0.000 C 
BRANCH   7   9
ATOM      8  C   UNL     1      43.784   5.045  13.263  0.00  0.00    +0.000 C 
ATOM      9  N   UNL     1      44.215   3.674  12.952  0.00  0.00    +0.000 NA
BRANCH   9  10
ATOM     10  C   UNL     1      43.516   3.158  11.757  0.00  0.00    +0.000 C 
BRANCH  10  11
ATOM     11  C   UNL     1      44.229   3.399  10.443  0.00  0.00    +0.000 A 
ATOM     12  C   UNL     1      44.701   4.681  10.126  0.00  0.00    +0.000 A 
ATOM     13  C   UNL     1      45.395   4.917   8.936  0.00  0.00    +0.000 A 
ATOM     14  C   UNL     1      45.638   3.875   8.039  0.00  0.00    +0.000 A 
ATOM     15  C   UNL     1      45.162   2.597   8.345  0.00  0.00    +0.000 A 
ATOM     16  C   UNL     1      44.466   2.357   9.536  0.00  0.00    +0.000 A 
BRANCH  14  17
ATOM     17  O   UNL     1      46.319   3.982   6.855  0.00  0.00    +0.000 OA
BRANCH  17  18
ATOM     18  C   UNL     1      46.658   2.749   6.205  0.00  0.00    +0.000 C 
BRANCH  18  19
ATOM     19  C   UNL     1      48.108   2.404   6.532  0.00  0.00    +0.000 C 
BRANCH  19  20
ATOM     20  O   UNL     1      48.696   1.651   5.474  0.00  0.00    +0.000 OA
ATOM     21  H   UNL     1      49.492   2.146   5.203  0.00  0.00    +0.000 HD
ENDBRANCH  19  20
ENDBRANCH  18  19
ENDBRANCH  17  18
ENDBRANCH  14  17
ENDBRANCH  10  11
ENDBRANCH   9  10
ENDBRANCH   7   9
ENDBRANCH   1   7
BRANCH   4  22
ATOM     22  C   UNL     1      48.932   6.369  16.602  0.00  0.00    +0.000 C 
BRANCH  22  23
ATOM     23  N   UNL     1      50.054   5.549  16.985  0.00  0.00    +0.000 N 
ATOM     24  C   UNL     1      50.314   5.277  18.304  0.00  0.00    +0.000 C 
ATOM     25  O   UNL     1      49.585   5.684  19.206  0.00  0.00    +0.000 OA
ATOM     26  H   UNL     1      50.776   5.387  16.291  0.00  0.00    +0.000 HD
BRANCH  24  27
ATOM     27  C   UNL     1      51.473   4.421  18.583  0.00  0.00    +0.000 A 
ATOM     28  C   UNL     1      52.516   4.911  19.358  0.00  0.00    +0.000 A 
ATOM     29  S   UNL     1      53.754   3.772  19.639  0.00  0.00    +0.000 S 
ATOM     30  C   UNL     1      52.970   2.603  18.685  0.00  0.00    +0.000 A 
ATOM     31  N   UNL     1      53.524   1.377  18.485  0.00  0.00    +0.000 NA
ATOM     32  C   UNL     1      52.845   0.603  17.706  0.00  0.00    +0.000 A 
ATOM     33  N   UNL     1      51.654   0.941  17.117  0.00  0.00    +0.000 N 
ATOM     34  C   UNL     1      51.036   2.152  17.321  0.00  0.00    +0.000 A 
ATOM     35  O   UNL     1      49.944   2.406  16.821  0.00  0.00    +0.000 OA
ATOM     36  C   UNL     1      51.770   3.068  18.173  0.00  0.00    +0.000 A 
ATOM     37  H   UNL     1      51.167   0.285  16.524  0.00  0.00    +0.000 HD
ENDBRANCH  24  27
ENDBRANCH  22  23
ENDBRANCH   4  22
TORSDOF 11
ENDMDL
MODEL 2
REMARK VINA RESULT:    -7.726      3.404      3.841
REMARK INTER + INTRA:         -12.774
REMARK INTER:                 -11.449
REMARK INTRA:                  -1.325
REMARK UNBOUND:                -0.305
REMARK  Name = 
REMARK  12 active torsions:
REMARK  status: ('A' for Active; 'I' for Inactive)
REMARK    1  A    between atoms: C_1  and  N_2
REMARK    2  A    between atoms: N_2  and  C_3
REMARK    3  A    between atoms: N_2  and  C_14
REMARK    4  A    between atoms: C_3  and  C_4
REMARK    5  A    between atoms: C_7  and  O_8
REMARK    6  A    between atoms: O_8  and  C_9
REMARK    7  A    between atoms: C_9  and  C_10
REMARK    8  A    between atoms: C_10  and  O_11
REMARK    9  A    between atoms: C_14  and  C_15
REMARK   10  A    between atoms: C_18  and  C_19
REMARK   11  A    between atoms: C_19  and  N_20
REMARK   12  A    between atoms: C_21  and  C_23
REMARK                            x       y       z     vdW  Elec       q    Type
REMARK                         _______ _______ _______ _____ _____    ______ ____
ROOT
ATOM      1  C   UNL     1      45.752   6.902  12.615  0.00  0.00    +0.000 A 
ATOM      2  C   UNL     1      46.631   5.843  12.828  0.00  0.00    +0.000 A 
ATOM      3  C   UNL     1      47.876   6.103  13.397  0.00  0.00    +0.000 A 
ATOM      4  C   UNL     1      48.219   7.410  13.748  0.00  0.00    +0.000 A 
ATOM      5  C   UNL     1      47.289   8.406  13.477  0.00  0.00    +0.000 A 
ATOM      6  N   UNL     1      46.072   8.184  12.929  0.00  0.00    +0.000 NA
ENDROOT
BRANCH   1   7
ATOM      7  C   UNL     1      44.379   6.662  12.011  0.00  0.00    +0.000 C 
BRANCH   7   9
ATOM      8  C   UNL     1      42.898   5.054  13.046  0.00  0.00    +0.000 C 
ATOM      9  N   UNL     1      43.923   5.247  12.011  0.00  0.00    +0.000 NA
BRANCH   9  10
ATOM     10  C   UNL     1      43.384   4.941  10.670  0.00  0.00    +0.000 C 
BRANCH  10  11
ATOM     11  C   UNL     1      44.285   4.097   9.792  0.00  0.00    +0.000 A 
ATOM     12  C   UNL     1      44.226   2.698   9.868  0.00  0.00    +0.000 A 
ATOM     13  C   UNL     1      45.022   1.900   9.040  0.00  0.00    +0.000 A 
ATOM     14  C   UNL     1      45.890   2.485   8.116  0.00  0.00    +0.000 A 
ATOM     15  C   UNL     1      45.960   3.879   8.043  0.00  0.00    +0.000 A 
ATOM     16  C   UNL     1      45.165   4.681   8.871  0.00  0.00    +0.000 A 
BRANCH  14  17
ATOM     17  O   UNL     1      46.702   1.808   7.245  0.00  0.00    +0.000 OA
BRANCH  17  18
ATOM     18  C   UNL     1      46.629   2.208   5.869  0.00  0.00    +0.000 C 
BRANCH  18  19
ATOM     19  C   UNL     1      48.047   2.406   5.339  0.00  0.00    +0.000 C 
BRANCH  19  20
ATOM     20  O   UNL     1      48.973   2.526   6.415  0.00  0.00    +0.000 OA
ATOM     21  H   UNL     1      48.626   3.234   6.989  0.00  0.00    +0.000 HD
ENDBRANCH  19  20
ENDBRANCH  18  19
ENDBRANCH  17  18
ENDBRANCH  14  17
ENDBRANCH  10  11
ENDBRANCH   9  10
ENDBRANCH   7   9
ENDBRANCH   1   7
BRANCH   4  22
ATOM     22  C   UNL     1      49.550   7.748  14.350  0.00  0.00    +0.000 C 
BRANCH  22  23
ATOM     23  N   UNL     1      49.446   7.927  15.776  0.00  0.00    +0.000 N 
ATOM     24  C   UNL     1      49.819   6.932  16.645  0.00  0.00    +0.000 C 
ATOM     25  O   UNL     1      50.291   5.869  16.247  0.00  0.00    +0.000 OA
ATOM     26  H   UNL     1      48.871   8.692  16.113  0.00  0.00    +0.000 HD
BRANCH  24  27
ATOM     27  C   UNL     1      49.686   7.224  18.076  0.00  0.00    +0.000 A 
ATOM     28  C   UNL     1      50.564   8.115  18.679  0.00  0.00    +0.000 A 
ATOM     29  S   UNL     1      50.234   8.389  20.330  0.00  0.00    +0.000 S 
ATOM     30  C   UNL     1      48.945   7.281  20.313  0.00  0.00    +0.000 A 
ATOM     31  N   UNL     1      48.234   7.018  21.443  0.00  0.00    +0.000 NA
ATOM     32  C   UNL     1      47.312   6.126  21.300  0.00  0.00    +0.000 A 
ATOM     33  N   UNL     1      47.030   5.478  20.124  0.00  0.00    +0.000 N 
ATOM     34  C   UNL     1      47.694   5.740  18.949  0.00  0.00    +0.000 A 
ATOM     35  O   UNL     1      47.383   5.182  17.901  0.00  0.00    +0.000 OA
ATOM     36  C   UNL     1      48.756   6.721  19.061  0.00  0.00    +0.000 A 
ATOM     37  H   UNL     1      46.288   4.796  20.076  0.00  0.00    +0.000 HD
ENDBRANCH  24  27
ENDBRANCH  22  23
ENDBRANCH   4  22
TORSDOF 11
ENDMDL
MODEL 3
REMARK VINA RESULT:    -7.643      2.367      3.184
REMARK INTER + INTRA:         -12.639
REMARK INTER:                 -11.133
REMARK INTRA:                  -1.506
REMARK UNBOUND:                -0.305
REMARK  Name = 
REMARK  12 active torsions:
REMARK  status: ('A' for Active; 'I' for Inactive)
REMARK    1  A    between atoms: C_1  and  N_2
REMARK    2  A    between atoms: N_2  and  C_3
REMARK    3  A    between atoms: N_2  and  C_14
REMARK    4  A    between atoms: C_3  and  C_4
REMARK    5  A    between atoms: C_7  and  O_8
REMARK    6  A    between atoms: O_8  and  C_9
REMARK    7  A    between atoms: C_9  and  C_10
REMARK    8  A    between atoms: C_10  and  O_11
REMARK    9  A    between atoms: C_14  and  C_15
REMARK   10  A    between atoms: C_18  and  C_19
REMARK   11  A    between atoms: C_19  and  N_20
REMARK   12  A    between atoms: C_21  and  C_23
REMARK                            x       y       z     vdW  Elec       q    Type
REMARK                         _______ _______ _______ _____ _____    ______ ____
ROOT
ATOM      1  C   UNL     1      45.760   7.264  12.118  0.00  0.00    +0.000 A 
ATOM      2  C   UNL     1      46.815   6.757  11.363  0.00  0.00    +0.000 A 
ATOM      3  C   UNL     1      48.118   7.123  11.694  0.00  0.00    +0.000 A 
ATOM      4  C   UNL     1      48.345   7.981  12.772  0.00  0.00    +0.000 A 
ATOM      5  C   UNL     1      47.230   8.456  13.452  0.00  0.00    +0.000 A 
ATOM      6  N   UNL     1      45.955   8.116  13.157  0.00  0.00    +0.000 NA
ENDROOT
BRANCH   1   7
ATOM      7  C   UNL     1      44.324   6.879  11.802  0.00  0.00    +0.000 C 
BRANCH   7   9
ATOM      8  C   UNL     1      43.088   5.210  13.042  0.00  0.00    +0.000 C 
ATOM      9  N   UNL     1      44.013   5.430  11.921  0.00  0.00    +0.000 NA
BRANCH   9  10
ATOM     10  C   UNL     1      43.414   4.984  10.646  0.00  0.00    +0.000 C 
BRANCH  10  11
ATOM     11  C   UNL     1      44.311   4.120   9.784  0.00  0.00    +0.000 A 
ATOM     12  C   UNL     1      44.260   2.724   9.899  0.00  0.00    +0.000 A 
ATOM     13  C   UNL     1      45.050   1.906   9.085  0.00  0.00    +0.000 A 
ATOM     14  C   UNL     1      45.906   2.469   8.136  0.00  0.00    +0.000 A 
ATOM     15  C   UNL     1      45.968   3.860   8.023  0.00  0.00    +0.000 A 
ATOM     16  C   UNL     1      45.177   4.682   8.837  0.00  0.00    +0.000 A 
BRANCH  14  17
ATOM     17  O   UNL     1      46.712   1.771   7.275  0.00  0.00    +0.000 OA
BRANCH  17  18
ATOM     18  C   UNL     1      46.608   2.119   5.888  0.00  0.00    +0.000 C 
BRANCH  18  19
ATOM     19  C   UNL     1      48.010   2.371   5.338  0.00  0.00    +0.000 C 
BRANCH  19  20
ATOM     20  O   UNL     1      48.938   2.570   6.401  0.00  0.00    +0.000 OA
ATOM     21  H   UNL     1      48.478   3.125   7.058  0.00  0.00    +0.000 HD
ENDBRANCH  19  20
ENDBRANCH  18  19
ENDBRANCH  17  18
ENDBRANCH  14  17
ENDBRANCH  10  11
ENDBRANCH   9  10
ENDBRANCH   7   9
ENDBRANCH   1   7
BRANCH   4  22
ATOM     22  C   UNL     1      49.725   8.418  13.162  0.00  0.00    +0.000 C 
BRANCH  22  23
ATOM     23  N   UNL     1      50.321   7.493  14.092  0.00  0.00    +0.000 N 
ATOM     24  C   UNL     1      51.097   7.936  15.133  0.00  0.00    +0.000 C 
ATOM     25  O   UNL     1      51.283   9.133  15.339  0.00  0.00    +0.000 OA
ATOM     26  H   UNL     1      50.360   6.515  13.823  0.00  0.00    +0.000 HD
BRANCH  24  27
ATOM     27  C   UNL     1      51.645   6.911  16.029  0.00  0.00    +0.000 A 
ATOM     28  C   UNL     1      53.021   6.798  16.181  0.00  0.00    +0.000 A 
ATOM     29  S   UNL     1      53.489   5.601  17.302  0.00  0.00    +0.000 S 
ATOM     30  C   UNL     1      51.873   5.148  17.577  0.00  0.00    +0.000 A 
ATOM     31  N   UNL     1      51.567   4.136  18.432  0.00  0.00    +0.000 NA
ATOM     32  C   UNL     1      50.307   3.868  18.515  0.00  0.00    +0.000 A 
ATOM     33  N   UNL     1      49.322   4.530  17.827  0.00  0.00    +0.000 N 
ATOM     34  C   UNL     1      49.581   5.585  16.983  0.00  0.00    +0.000 A 
ATOM     35  O   UNL     1      48.673   6.191  16.422  0.00  0.00    +0.000 OA
ATOM     36  C   UNL     1      50.986   5.912  16.838  0.00  0.00    +0.000 A 
ATOM     37  H   UNL     1      48.352   4.278  17.943  0.00  0.00    +0.000 HD
ENDBRANCH  24  27
ENDBRANCH  22  23
ENDBRANCH   4  22
TORSDOF 11
ENDMDL
MODEL 4
REMARK VINA RESULT:    -7.284      3.905      9.680
REMARK INTER + INTRA:         -12.060
REMARK INTER:                 -10.392
REMARK INTRA:                  -1.668
REMARK UNBOUND:                -0.305
REMARK  Name = 
REMARK  12 active torsions:
REMARK  status: ('A' for Active; 'I' for Inactive)
REMARK    1  A    between atoms: C_1  and  N_2
REMARK    2  A    between atoms: N_2  and  C_3
REMARK    3  A    between atoms: N_2  and  C_14
REMARK    4  A    between atoms: C_3  and  C_4
REMARK    5  A    between atoms: C_7  and  O_8
REMARK    6  A    between atoms: O_8  and  C_9
REMARK    7  A    between atoms: C_9  and  C_10
REMARK    8  A    between atoms: C_10  and  O_11
REMARK    9  A    between atoms: C_14  and  C_15
REMARK   10  A    between atoms: C_18  and  C_19
REMARK   11  A    between atoms: C_19  and  N_20
REMARK   12  A    between atoms: C_21  and  C_23
REMARK                            x       y       z     vdW  Elec       q    Type
REMARK                         _______ _______ _______ _____ _____    ______ ____
ROOT
ATOM      1  C   UNL     1      50.367   8.797  12.681  0.00  0.00    +0.000 A 
ATOM      2  C   UNL     1      49.947   7.676  11.969  0.00  0.00    +0.000 A 
ATOM      3  C   UNL     1      48.583   7.478  11.765  0.00  0.00    +0.000 A 
ATOM      4  C   UNL     1      47.665   8.402  12.268  0.00  0.00    +0.000 A 
ATOM      5  C   UNL     1      48.174   9.477  12.985  0.00  0.00    +0.000 A 
ATOM      6  N   UNL     1      49.491   9.698  13.197  0.00  0.00    +0.000 NA
ENDROOT
BRANCH   1   7
ATOM      7  C   UNL     1      51.845   9.061  12.914  0.00  0.00    +0.000 C 
BRANCH   7   9
ATOM      8  C   UNL     1      53.970   8.282  13.768  0.00  0.00    +0.000 C 
ATOM      9  N   UNL     1      52.511   8.142  13.875  0.00  0.00    +0.000 NA
BRANCH   9  10
ATOM     10  C   UNL     1      52.044   8.485  15.234  0.00  0.00    +0.000 C 
BRANCH  10  11
ATOM     11  C   UNL     1      51.285   7.386  15.949  0.00  0.00    +0.000 A 
ATOM     12  C   UNL     1      51.985   6.376  16.624  0.00  0.00    +0.000 A 
ATOM     13  C   UNL     1      51.305   5.374  17.322  0.00  0.00    +0.000 A 
ATOM     14  C   UNL     1      49.909   5.364  17.364  0.00  0.00    +0.000 A 
ATOM     15  C   UNL     1      49.206   6.363  16.685  0.00  0.00    +0.000 A 
ATOM     16  C   UNL     1      49.885   7.368  15.985  0.00  0.00    +0.000 A 
BRANCH  14  17
ATOM     17  O   UNL     1      49.137   4.447  18.028  0.00  0.00    +0.000 OA
BRANCH  17  18
ATOM     18  C   UNL     1      49.461   3.068  17.807  0.00  0.00    +0.000 C 
BRANCH  18  19
ATOM     19  C   UNL     1      48.669   2.563  16.604  0.00  0.00    +0.000 C 
BRANCH  19  20
ATOM     20  O   UNL     1      49.415   1.583  15.887  0.00  0.00    +0.000 OA
ATOM     21  H   UNL     1      49.927   2.073  15.217  0.00  0.00    +0.000 HD
ENDBRANCH  19  20
ENDBRANCH  18  19
ENDBRANCH  17  18
ENDBRANCH  14  17
ENDBRANCH  10  11
ENDBRANCH   9  10
ENDBRANCH   7   9
ENDBRANCH   1   7
BRANCH   4  22
ATOM     22  C   UNL     1      46.187   8.230  12.089  0.00  0.00    +0.000 C 
BRANCH  22  23
ATOM     23  N   UNL     1      45.851   6.856  11.810  0.00  0.00    +0.000 N 
ATOM     24  C   UNL     1      44.572   6.494  11.473  0.00  0.00    +0.000 C 
ATOM     25  O   UNL     1      43.673   7.324  11.356  0.00  0.00    +0.000 OA
ATOM     26  H   UNL     1      46.510   6.143  12.106  0.00  0.00    +0.000 HD
BRANCH  24  27
ATOM     27  C   UNL     1      44.342   5.071  11.196  0.00  0.00    +0.000 A 
ATOM     28  C   UNL     1      43.585   4.315  12.081  0.00  0.00    +0.000 A 
ATOM     29  S   UNL     1      43.362   2.699  11.584  0.00  0.00    +0.000 S 
ATOM     30  C   UNL     1      44.320   2.936  10.199  0.00  0.00    +0.000 A 
ATOM     31  N   UNL     1      44.561   1.915   9.332  0.00  0.00    +0.000 NA
ATOM     32  C   UNL     1      45.338   2.221   8.348  0.00  0.00    +0.000 A 
ATOM     33  N   UNL     1      45.889   3.461   8.145  0.00  0.00    +0.000 N 
ATOM     34  C   UNL     1      45.641   4.532   8.971  0.00  0.00    +0.000 A 
ATOM     35  O   UNL     1      46.107   5.643   8.734  0.00  0.00    +0.000 OA
ATOM     36  C   UNL     1      44.790   4.235  10.107  0.00  0.00    +0.000 A 
ATOM     37  H   UNL     1      46.482   3.638   7.348  0.00  0.00    +0.000 HD
ENDBRANCH  24  27
ENDBRANCH  22  23
ENDBRANCH   4  22
TORSDOF 11
ENDMDL
MODEL 5
REMARK VINA RESULT:    -7.274      1.753      2.079
REMARK INTER + INTRA:         -12.044
REMARK INTER:                 -11.908
REMARK INTRA:                  -0.136
REMARK UNBOUND:                -0.305
REMARK  Name = 
REMARK  12 active torsions:
REMARK  status: ('A' for Active; 'I' for Inactive)
REMARK    1  A    between atoms: C_1  and  N_2
REMARK    2  A    between atoms: N_2  and  C_3
REMARK    3  A    between atoms: N_2  and  C_14
REMARK    4  A    between atoms: C_3  and  C_4
REMARK    5  A    between atoms: C_7  and  O_8
REMARK    6  A    between atoms: O_8  and  C_9
REMARK    7  A    between atoms: C_9  and  C_10
REMARK    8  A    between atoms: C_10  and  O_11
REMARK    9  A    between atoms: C_14  and  C_15
REMARK   10  A    between atoms: C_18  and  C_19
REMARK   11  A    between atoms: C_19  and  N_20
REMARK   12  A    between atoms: C_21  and  C_23
REMARK                            x       y       z     vdW  Elec       q    Type
REMARK                         _______ _______ _______ _____ _____    ______ ____
ROOT
ATOM      1  C   UNL     1      46.462   4.427  13.541  0.00  0.00    +0.000 A 
ATOM      2  C   UNL     1      47.014   5.516  12.871  0.00  0.00    +0.000 A 
ATOM      3  C   UNL     1      47.846   6.388  13.571  0.00  0.00    +0.000 A 
ATOM      4  C   UNL     1      48.115   6.156  14.921  0.00  0.00    +0.000 A 
ATOM      5  C   UNL     1      47.501   5.059  15.512  0.00  0.00    +0.000 A 
ATOM      6  N   UNL     1      46.693   4.193  14.859  0.00  0.00    +0.000 NA
ENDROOT
BRANCH   1   7
ATOM      7  C   UNL     1      45.562   3.443  12.813  0.00  0.00    +0.000 C 
BRANCH   7   9
ATOM      8  C   UNL     1      43.851   5.106  13.206  0.00  0.00    +0.000 C 
ATOM      9  N   UNL     1      44.103   3.677  12.972  0.00  0.00    +0.000 NA
BRANCH   9  10
ATOM     10  C   UNL     1      43.428   3.215  11.742  0.00  0.00    +0.000 C 
BRANCH  10  11
ATOM     11  C   UNL     1      44.226   3.394  10.467  0.00  0.00    +0.000 A 
ATOM     12  C   UNL     1      44.421   2.307   9.604  0.00  0.00    +0.000 A 
ATOM     13  C   UNL     1      45.121   2.459   8.403  0.00  0.00    +0.000 A 
ATOM     14  C   UNL     1      45.638   3.703   8.038  0.00  0.00    +0.000 A 
ATOM     15  C   UNL     1      45.455   4.789   8.899  0.00  0.00    +0.000 A 
ATOM     16  C   UNL     1      44.754   4.640  10.102  0.00  0.00    +0.000 A 
BRANCH  14  17
ATOM     17  O   UNL     1      46.323   3.976   6.884  0.00  0.00    +0.000 OA
BRANCH  17  18
ATOM     18  C   UNL     1      46.613   2.854   6.038  0.00  0.00    +0.000 C 
BRANCH  18  19
ATOM     19  C   UNL     1      47.870   2.161   6.554  0.00  0.00    +0.000 C 
BRANCH  19  20
ATOM     20  O   UNL     1      48.686   1.726   5.470  0.00  0.00    +0.000 OA
ATOM     21  H   UNL     1      49.572   1.568   5.847  0.00  0.00    +0.000 HD
ENDBRANCH  19  20
ENDBRANCH  18  19
ENDBRANCH  17  18
ENDBRANCH  14  17
ENDBRANCH  10  11
ENDBRANCH   9  10
ENDBRANCH   7   9
ENDBRANCH   1   7
BRANCH   4  22
ATOM     22  C   UNL     1      48.991   7.070  15.725  0.00  0.00    +0.000 C 
BRANCH  22  23
ATOM     23  N   UNL     1      49.636   6.361  16.800  0.00  0.00    +0.000 N 
ATOM     24  C   UNL     1      49.945   6.990  17.980  0.00  0.00    +0.000 C 
ATOM     25  O   UNL     1      49.651   8.166  18.182  0.00  0.00    +0.000 OA
ATOM     26  H   UNL     1      50.073   5.472  16.581  0.00  0.00    +0.000 HD
BRANCH  24  27
ATOM     27  C   UNL     1      50.589   6.172  19.014  0.00  0.00    +0.000 A 
ATOM     28  C   UNL     1      50.040   6.123  20.288  0.00  0.00    +0.000 A 
ATOM     29  S   UNL     1      50.873   5.081  21.352  0.00  0.00    +0.000 S 
ATOM     30  C   UNL     1      52.031   4.706  20.165  0.00  0.00    +0.000 A 
ATOM     31  N   UNL     1      53.066   3.866  20.438  0.00  0.00    +0.000 NA
ATOM     32  C   UNL     1      53.895   3.703  19.462  0.00  0.00    +0.000 A 
ATOM     33  N   UNL     1      53.776   4.296  18.231  0.00  0.00    +0.000 N 
ATOM     34  C   UNL     1      52.727   5.118  17.896  0.00  0.00    +0.000 A 
ATOM     35  O   UNL     1      52.620   5.592  16.769  0.00  0.00    +0.000 OA
ATOM     36  C   UNL     1      51.777   5.352  18.967  0.00  0.00    +0.000 A 
ATOM     37  H   UNL     1      54.455   4.119  17.505  0.00  0.00    +0.000 HD
ENDBRANCH  24  27
ENDBRANCH  22  23
ENDBRANCH   4  22
TORSDOF 11
ENDMDL
MODEL 6
REMARK VINA RESULT:    -7.206      4.045      9.017
REMARK INTER + INTRA:         -11.934
REMARK INTER:                 -10.157
REMARK INTRA:                  -1.777
REMARK UNBOUND:                -0.305
REMARK  Name = 
REMARK  12 active torsions:
REMARK  status: ('A' for Active; 'I' for Inactive)
REMARK    1  A    between atoms: C_1  and  N_2
REMARK    2  A    between atoms: N_2  and  C_3
REMARK    3  A    between atoms: N_2  and  C_14
REMARK    4  A    between atoms: C_3  and  C_4
REMARK    5  A    between atoms: C_7  and  O_8
REMARK    6  A    between atoms: O_8  and  C_9
REMARK    7  A    between atoms: C_9  and  C_10
REMARK    8  A    between atoms: C_10  and  O_11
REMARK    9  A    between atoms: C_14  and  C_15
REMARK   10  A    between atoms: C_18  and  C_19
REMARK   11  A    between atoms: C_19  and  N_20
REMARK   12  A    between atoms: C_21  and  C_23
REMARK                            x       y       z     vdW  Elec       q    Type
REMARK                         _______ _______ _______ _____ _____    ______ ____
ROOT
ATOM      1  C   UNL     1      51.368   3.472  18.032  0.00  0.00    +0.000 A 
ATOM      2  C   UNL     1      50.910   2.359  17.331  0.00  0.00    +0.000 A 
ATOM      3  C   UNL     1      49.562   2.287  16.985  0.00  0.00    +0.000 A 
ATOM      4  C   UNL     1      48.698   3.326  17.339  0.00  0.00    +0.000 A 
ATOM      5  C   UNL     1      49.240   4.385  18.059  0.00  0.00    +0.000 A 
ATOM      6  N   UNL     1      50.544   4.484  18.405  0.00  0.00    +0.000 NA
ENDROOT
BRANCH   1   7
ATOM      7  C   UNL     1      52.833   3.598  18.416  0.00  0.00    +0.000 C 
BRANCH   7   9
ATOM      8  C   UNL     1      54.248   5.191  19.562  0.00  0.00    +0.000 C 
ATOM      9  N   UNL     1      53.379   4.981  18.395  0.00  0.00    +0.000 NA
BRANCH   9  10
ATOM     10  C   UNL     1      54.131   5.157  17.136  0.00  0.00    +0.000 C 
BRANCH  10  11
ATOM     11  C   UNL     1      53.600   6.237  16.216  0.00  0.00    +0.000 A 
ATOM     12  C   UNL     1      54.434   6.796  15.238  0.00  0.00    +0.000 A 
ATOM     13  C   UNL     1      53.953   7.766  14.353  0.00  0.00    +0.000 A 
ATOM     14  C   UNL     1      52.627   8.195  14.426  0.00  0.00    +0.000 A 
ATOM     15  C   UNL     1      51.793   7.647  15.405  0.00  0.00    +0.000 A 
ATOM     16  C   UNL     1      52.272   6.675  16.293  0.00  0.00    +0.000 A 
BRANCH  14  17
ATOM     17  O   UNL     1      52.041   9.123  13.606  0.00  0.00    +0.000 OA
BRANCH  17  18
ATOM     18  C   UNL     1      52.069   8.835  12.201  0.00  0.00    +0.000 C 
BRANCH  18  19
ATOM     19  C   UNL     1      50.655   8.495  11.740  0.00  0.00    +0.000 C 
BRANCH  19  20
ATOM     20  O   UNL     1      50.407   7.097  11.869  0.00  0.00    +0.000 OA
ATOM     21  H   UNL     1      49.739   7.008  12.575  0.00  0.00    +0.000 HD
ENDBRANCH  19  20
ENDBRANCH  18  19
ENDBRANCH  17  18
ENDBRANCH  14  17
ENDBRANCH  10  11
ENDBRANCH   9  10
ENDBRANCH   7   9
ENDBRANCH   1   7
BRANCH   4  22
ATOM     22  C   UNL     1      47.238   3.294  17.005  0.00  0.00    +0.000 C 
BRANCH  22  23
ATOM     23  N   UNL     1      46.896   4.328  16.062  0.00  0.00    +0.000 N 
ATOM     24  C   UNL     1      46.999   4.117  14.711  0.00  0.00    +0.000 C 
ATOM     25  O   UNL     1      47.347   3.033  14.249  0.00  0.00    +0.000 OA
ATOM     26  H   UNL     1      46.817   5.277  16.413  0.00  0.00    +0.000 HD
BRANCH  24  27
ATOM     27  C   UNL     1      46.613   5.232  13.839  0.00  0.00    +0.000 A 
ATOM     28  C   UNL     1      47.469   6.316  13.693  0.00  0.00    +0.000 A 
ATOM     29  S   UNL     1      46.900   7.495  12.599  0.00  0.00    +0.000 S 
ATOM     30  C   UNL     1      45.462   6.629  12.328  0.00  0.00    +0.000 A 
ATOM     31  N   UNL     1      44.502   7.110  11.494  0.00  0.00    +0.000 NA
ATOM     32  C   UNL     1      43.445   6.375  11.413  0.00  0.00    +0.000 A 
ATOM     33  N   UNL     1      43.264   5.192  12.084  0.00  0.00    +0.000 N 
ATOM     34  C   UNL     1      44.222   4.646  12.906  0.00  0.00    +0.000 A 
ATOM     35  O   UNL     1      44.052   3.560  13.452  0.00  0.00    +0.000 OA
ATOM     36  C   UNL     1      45.423   5.446  13.048  0.00  0.00    +0.000 A 
ATOM     37  H   UNL     1      42.415   4.658  11.969  0.00  0.00    +0.000 HD
ENDBRANCH  24  27
ENDBRANCH  22  23
ENDBRANCH   4  22
TORSDOF 11
ENDMDL
MODEL 7
REMARK VINA RESULT:    -7.104      2.863      3.633
REMARK INTER + INTRA:         -11.770
REMARK INTER:                 -10.402
REMARK INTRA:                  -1.369
REMARK UNBOUND:                -0.305
REMARK  Name = 
REMARK  12 active torsions:
REMARK  status: ('A' for Active; 'I' for Inactive)
REMARK    1  A    between atoms: C_1  and  N_2
REMARK    2  A    between atoms: N_2  and  C_3
REMARK    3  A    between atoms: N_2  and  C_14
REMARK    4  A    between atoms: C_3  and  C_4
REMARK    5  A    between atoms: C_7  and  O_8
REMARK    6  A    between atoms: O_8  and  C_9
REMARK    7  A    between atoms: C_9  and  C_10
REMARK    8  A    between atoms: C_10  and  O_11
REMARK    9  A    between atoms: C_14  and  C_15
REMARK   10  A    between atoms: C_18  and  C_19
REMARK   11  A    between atoms: C_19  and  N_20
REMARK   12  A    between atoms: C_21  and  C_23
REMARK                            x       y       z     vdW  Elec       q    Type
REMARK                         _______ _______ _______ _____ _____    ______ ____
ROOT
ATOM      1  C   UNL     1      46.019   6.662  12.823  0.00  0.00    +0.000 A 
ATOM      2  C   UNL     1      47.136   5.847  12.988  0.00  0.00    +0.000 A 
ATOM      3  C   UNL     1      48.397   6.365  12.698  0.00  0.00    +0.000 A 
ATOM      4  C   UNL     1      48.521   7.683  12.254  0.00  0.00    +0.000 A 
ATOM      5  C   UNL     1      47.349   8.413  12.096  0.00  0.00    +0.000 A 
ATOM      6  N   UNL     1      46.113   7.940  12.372  0.00  0.00    +0.000 NA
ENDROOT
BRANCH   1   7
ATOM      7  C   UNL     1      44.626   6.144  13.142  0.00  0.00    +0.000 C 
BRANCH   7   9
ATOM      8  C   UNL     1      43.104   4.264  13.142  0.00  0.00    +0.000 C 
ATOM      9  N   UNL     1      44.242   4.886  12.450  0.00  0.00    +0.000 NA
BRANCH   9  10
ATOM     10  C   UNL     1      43.894   5.220  11.053  0.00  0.00    +0.000 C 
BRANCH  10  11
ATOM     11  C   UNL     1      44.583   4.377  10.000  0.00  0.00    +0.000 A 
ATOM     12  C   UNL     1      45.409   4.986   9.045  0.00  0.00    +0.000 A 
ATOM     13  C   UNL     1      46.085   4.223   8.088  0.00  0.00    +0.000 A 
ATOM     14  C   UNL     1      45.953   2.833   8.070  0.00  0.00    +0.000 A 
ATOM     15  C   UNL     1      45.123   2.221   9.013  0.00  0.00    +0.000 A 
ATOM     16  C   UNL     1      44.445   2.983   9.973  0.00  0.00    +0.000 A 
BRANCH  14  17
ATOM     17  O   UNL     1      46.577   1.984   7.195  0.00  0.00    +0.000 OA
BRANCH  17  18
ATOM     18  C   UNL     1      46.369   2.246   5.800  0.00  0.00    +0.000 C 
BRANCH  18  19
ATOM     19  C   UNL     1      47.704   2.635   5.169  0.00  0.00    +0.000 C 
BRANCH  19  20
ATOM     20  O   UNL     1      48.702   1.661   5.463  0.00  0.00    +0.000 OA
ATOM     21  H   UNL     1      48.445   1.263   6.316  0.00  0.00    +0.000 HD
ENDBRANCH  19  20
ENDBRANCH  18  19
ENDBRANCH  17  18
ENDBRANCH  14  17
ENDBRANCH  10  11
ENDBRANCH   9  10
ENDBRANCH   7   9
ENDBRANCH   1   7
BRANCH   4  22
ATOM     22  C   UNL     1      49.851   8.285  11.914  0.00  0.00    +0.000 C 
BRANCH  22  23
ATOM     23  N   UNL     1      50.879   7.817  12.809  0.00  0.00    +0.000 N 
ATOM     24  C   UNL     1      51.131   8.458  13.996  0.00  0.00    +0.000 C 
ATOM     25  O   UNL     1      50.470   9.428  14.361  0.00  0.00    +0.000 OA
ATOM     26  H   UNL     1      51.565   7.168  12.438  0.00  0.00    +0.000 HD
BRANCH  24  27
ATOM     27  C   UNL     1      52.190   7.891  14.838  0.00  0.00    +0.000 A 
ATOM     28  C   UNL     1      53.506   8.289  14.644  0.00  0.00    +0.000 A 
ATOM     29  S   UNL     1      54.603   7.584  15.744  0.00  0.00    +0.000 S 
ATOM     30  C   UNL     1      53.367   6.676  16.479  0.00  0.00    +0.000 A 
ATOM     31  N   UNL     1      53.641   5.822  17.501  0.00  0.00    +0.000 NA
ATOM     32  C   UNL     1      52.619   5.164  17.938  0.00  0.00    +0.000 A 
ATOM     33  N   UNL     1      51.344   5.292  17.450  0.00  0.00    +0.000 N 
ATOM     34  C   UNL     1      51.013   6.171  16.446  0.00  0.00    +0.000 A 
ATOM     35  O   UNL     1      49.852   6.301  16.067  0.00  0.00    +0.000 OA
ATOM     36  C   UNL     1      52.131   6.920  15.906  0.00  0.00    +0.000 A 
ATOM     37  H   UNL     1      50.585   4.754  17.842  0.00  0.00    +0.000 HD
ENDBRANCH  24  27
ENDBRANCH  22  23
ENDBRANCH   4  22
TORSDOF 11
ENDMDL
MODEL 8
REMARK VINA RESULT:    -6.975      3.297      3.788
REMARK INTER + INTRA:         -11.562
REMARK INTER:                 -10.603
REMARK INTRA:                  -0.959
REMARK UNBOUND:                -0.305
REMARK  Name = 
REMARK  12 active torsions:
REMARK  status: ('A' for Active; 'I' for Inactive)
REMARK    1  A    between atoms: C_1  and  N_2
REMARK    2  A    between atoms: N_2  and  C_3
REMARK    3  A    between atoms: N_2  and  C_14
REMARK    4  A    between atoms: C_3  and  C_4
REMARK    5  A    between atoms: C_7  and  O_8
REMARK    6  A    between atoms: O_8  and  C_9
REMARK    7  A    between atoms: C_9  and  C_10
REMARK    8  A    between atoms: C_10  and  O_11
REMARK    9  A    between atoms: C_14  and  C_15
REMARK   10  A    between atoms: C_18  and  C_19
REMARK   11  A    between atoms: C_19  and  N_20
REMARK   12  A    between atoms: C_21  and  C_23
REMARK                            x       y       z     vdW  Elec       q    Type
REMARK                         _______ _______ _______ _____ _____    ______ ____
ROOT
ATOM      1  C   UNL     1      45.718   6.773  12.441  0.00  0.00    +0.000 A 
ATOM      2  C   UNL     1      46.726   5.837  12.657  0.00  0.00    +0.000 A 
ATOM      3  C   UNL     1      47.819   6.193  13.444  0.00  0.00    +0.000 A 
ATOM      4  C   UNL     1      47.886   7.471  14.003  0.00  0.00    +0.000 A 
ATOM      5  C   UNL     1      46.846   8.346  13.713  0.00  0.00    +0.000 A 
ATOM      6  N   UNL     1      45.771   8.028  12.957  0.00  0.00    +0.000 NA
ENDROOT
BRANCH   1   7
ATOM      7  C   UNL     1      44.500   6.423  11.603  0.00  0.00    +0.000 C 
BRANCH   7   9
ATOM      8  C   UNL     1      42.918   5.142  12.910  0.00  0.00    +0.000 C 
ATOM      9  N   UNL     1      43.928   5.072  11.845  0.00  0.00    +0.000 NA
BRANCH   9  10
ATOM     10  C   UNL     1      43.332   4.595  10.580  0.00  0.00    +0.000 C 
BRANCH  10  11
ATOM     11  C   UNL     1      44.261   3.791   9.695  0.00  0.00    +0.000 A 
ATOM     12  C   UNL     1      45.159   4.448   8.842  0.00  0.00    +0.000 A 
ATOM     13  C   UNL     1      46.053   3.726   8.045  0.00  0.00    +0.000 A 
ATOM     14  C   UNL     1      46.069   2.331   8.087  0.00  0.00    +0.000 A 
ATOM     15  C   UNL     1      45.170   1.670   8.928  0.00  0.00    +0.000 A 
ATOM     16  C   UNL     1      44.274   2.390   9.728  0.00  0.00    +0.000 A 
BRANCH  14  17
ATOM     17  O   UNL     1      46.908   1.521   7.367  0.00  0.00    +0.000 OA
BRANCH  17  18
ATOM     18  C   UNL     1      46.794   1.599   5.940  0.00  0.00    +0.000 C 
BRANCH  18  19
ATOM     19  C   UNL     1      47.866   2.549   5.413  0.00  0.00    +0.000 C 
BRANCH  19  20
ATOM     20  O   UNL     1      48.970   2.610   6.313  0.00  0.00    +0.000 OA
ATOM     21  H   UNL     1      49.117   1.696   6.619  0.00  0.00    +0.000 HD
ENDBRANCH  19  20
ENDBRANCH  18  19
ENDBRANCH  17  18
ENDBRANCH  14  17
ENDBRANCH  10  11
ENDBRANCH   9  10
ENDBRANCH   7   9
ENDBRANCH   1   7
BRANCH   4  22
ATOM     22  C   UNL     1      49.046   7.910  14.845  0.00  0.00    +0.000 C 
BRANCH  22  23
ATOM     23  N   UNL     1      48.784   7.696  16.245  0.00  0.00    +0.000 N 
ATOM     24  C   UNL     1      49.272   6.592  16.897  0.00  0.00    +0.000 C 
ATOM     25  O   UNL     1      49.981   5.765  16.328  0.00  0.00    +0.000 OA
ATOM     26  H   UNL     1      48.040   8.238  16.672  0.00  0.00    +0.000 HD
BRANCH  24  27
ATOM     27  C   UNL     1      48.958   6.478  18.326  0.00  0.00    +0.000 A 
ATOM     28  C   UNL     1      47.682   6.097  18.718  0.00  0.00    +0.000 A 
ATOM     29  S   UNL     1      47.500   5.953  20.408  0.00  0.00    +0.000 S 
ATOM     30  C   UNL     1      49.102   6.454  20.678  0.00  0.00    +0.000 A 
ATOM     31  N   UNL     1      49.594   6.575  21.941  0.00  0.00    +0.000 NA
ATOM     32  C   UNL     1      50.809   7.006  22.003  0.00  0.00    +0.000 A 
ATOM     33  N   UNL     1      51.583   7.317  20.914  0.00  0.00    +0.000 N 
ATOM     34  C   UNL     1      51.143   7.172  19.620  0.00  0.00    +0.000 A 
ATOM     35  O   UNL     1      51.877   7.409  18.665  0.00  0.00    +0.000 OA
ATOM     36  C   UNL     1      49.774   6.711  19.495  0.00  0.00    +0.000 A 
ATOM     37  H   UNL     1      52.532   7.640  21.031  0.00  0.00    +0.000 HD
ENDBRANCH  24  27
ENDBRANCH  22  23
ENDBRANCH   4  22
TORSDOF 11
ENDMDL
MODEL 9
REMARK VINA RESULT:    -6.957      3.382      4.626
REMARK INTER + INTRA:         -11.532
REMARK INTER:                 -11.307
REMARK INTRA:                  -0.225
REMARK UNBOUND:                -0.305
REMARK  Name = 
REMARK  12 active torsions:
REMARK  status: ('A' for Active; 'I' for Inactive)
REMARK    1  A    between atoms: C_1  and  N_2
REMARK    2  A    between atoms: N_2  and  C_3
REMARK    3  A    between atoms: N_2  and  C_14
REMARK    4  A    between atoms: C_3  and  C_4
REMARK    5  A    between atoms: C_7  and  O_8
REMARK    6  A    between atoms: O_8  and  C_9
REMARK    7  A    between atoms: C_9  and  C_10
REMARK    8  A    between atoms: C_10  and  O_11
REMARK    9  A    between atoms: C_14  and  C_15
REMARK   10  A    between atoms: C_18  and  C_19
REMARK   11  A    between atoms: C_19  and  N_20
REMARK   12  A    between atoms: C_21  and  C_23
REMARK                            x       y       z     vdW  Elec       q    Type
REMARK                         _______ _______ _______ _____ _____    ______ ____
ROOT
ATOM      1  C   UNL     1      46.354   4.282  13.468  0.00  0.00    +0.000 A 
ATOM      2  C   UNL     1      46.932   5.433  12.937  0.00  0.00    +0.000 A 
ATOM      3  C   UNL     1      47.773   6.198  13.742  0.00  0.00    +0.000 A 
ATOM      4  C   UNL     1      48.025   5.802  15.058  0.00  0.00    +0.000 A 
ATOM      5  C   UNL     1      47.385   4.654  15.508  0.00  0.00    +0.000 A 
ATOM      6  N   UNL     1      46.567   3.888  14.749  0.00  0.00    +0.000 NA
ENDROOT
BRANCH   1   7
ATOM      7  C   UNL     1      45.444   3.409  12.620  0.00  0.00    +0.000 C 
BRANCH   7   9
ATOM      8  C   UNL     1      43.731   4.940  13.378  0.00  0.00    +0.000 C 
ATOM      9  N   UNL     1      43.987   3.589  12.859  0.00  0.00    +0.000 NA
BRANCH   9  10
ATOM     10  C   UNL     1      43.284   3.373  11.578  0.00  0.00    +0.000 C 
BRANCH  10  11
ATOM     11  C   UNL     1      44.148   3.501  10.341  0.00  0.00    +0.000 A 
ATOM     12  C   UNL     1      44.393   2.378   9.538  0.00  0.00    +0.000 A 
ATOM     13  C   UNL     1      45.156   2.482   8.371  0.00  0.00    +0.000 A 
ATOM     14  C   UNL     1      45.687   3.712   7.980  0.00  0.00    +0.000 A 
ATOM     15  C   UNL     1      45.454   4.833   8.782  0.00  0.00    +0.000 A 
ATOM     16  C   UNL     1      44.690   4.733   9.951  0.00  0.00    +0.000 A 
BRANCH  14  17
ATOM     17  O   UNL     1      46.432   3.939   6.853  0.00  0.00    +0.000 OA
BRANCH  17  18
ATOM     18  C   UNL     1      46.634   2.812   5.989  0.00  0.00    +0.000 C 
BRANCH  18  19
ATOM     19  C   UNL     1      47.856   2.034   6.472  0.00  0.00    +0.000 C 
BRANCH  19  20
ATOM     20  O   UNL     1      48.686   1.671   5.372  0.00  0.00    +0.000 OA
ATOM     21  H   UNL     1      49.556   1.451   5.755  0.00  0.00    +0.000 HD
ENDBRANCH  19  20
ENDBRANCH  18  19
ENDBRANCH  17  18
ENDBRANCH  14  17
ENDBRANCH  10  11
ENDBRANCH   9  10
ENDBRANCH   7   9
ENDBRANCH   1   7
BRANCH   4  22
ATOM     22  C   UNL     1      48.909   6.596  15.971  0.00  0.00    +0.000 C 
BRANCH  22  23
ATOM     23  N   UNL     1      50.100   7.037  15.290  0.00  0.00    +0.000 N 
ATOM     24  C   UNL     1      51.264   7.269  15.978  0.00  0.00    +0.000 C 
ATOM     25  O   UNL     1      51.351   7.075  17.189  0.00  0.00    +0.000 OA
ATOM     26  H   UNL     1      49.995   7.404  14.350  0.00  0.00    +0.000 HD
BRANCH  24  27
ATOM     27  C   UNL     1      52.421   7.703  15.186  0.00  0.00    +0.000 A 
ATOM     28  C   UNL     1      53.648   7.079  15.368  0.00  0.00    +0.000 A 
ATOM     29  S   UNL     1      54.871   7.658  14.329  0.00  0.00    +0.000 S 
ATOM     30  C   UNL     1      53.820   8.806  13.643  0.00  0.00    +0.000 A 
ATOM     31  N   UNL     1      54.254   9.666  12.683  0.00  0.00    +0.000 NA
ATOM     32  C   UNL     1      53.366  10.511  12.280  0.00  0.00    +0.000 A 
ATOM     33  N   UNL     1      52.077  10.569  12.744  0.00  0.00    +0.000 N 
ATOM     34  C   UNL     1      51.582   9.695  13.684  0.00  0.00    +0.000 A 
ATOM     35  O   UNL     1      50.408   9.738  14.041  0.00  0.00    +0.000 OA
ATOM     36  C   UNL     1      52.548   8.736  14.185  0.00  0.00    +0.000 A 
ATOM     37  H   UNL     1      51.427  11.250  12.380  0.00  0.00    +0.000 HD
ENDBRANCH  24  27
ENDBRANCH  22  23
ENDBRANCH   4  22
TORSDOF 11
ENDMDL
